# generated using pymatgen
data_PrH12C11O9
_symmetry_space_group_name_H-M   'P 1'
_cell_length_a   8.98786803
_cell_length_b   8.99536482
_cell_length_c   19.57640000
_cell_angle_alpha   82.97960023
_cell_angle_beta   82.97371499
_cell_angle_gamma   60.86598062
_symmetry_Int_Tables_number   1
_chemical_formula_structural   PrH12C11O9
_chemical_formula_sum   'Pr4 H48 C44 O36'
_cell_volume   1368.52081902
_cell_formula_units_Z   4
loop_
 _symmetry_equiv_pos_site_id
 _symmetry_equiv_pos_as_xyz
  1  'x, y, z'
loop_
 _atom_site_type_symbol
 _atom_site_label
 _atom_site_symmetry_multiplicity
 _atom_site_fract_x
 _atom_site_fract_y
 _atom_site_fract_z
 _atom_site_occupancy
 _atom_site_hle17_bader_spin_density
 _atom_site_hle17_ddec_charge
 _atom_site_hle17_ddec_spin_density
 _atom_site_hle17_ddec_sum_bond_order
 _atom_site_hle17_magmom
 _atom_site_hse06_10hf_bader_spin_density
 _atom_site_hse06_10hf_ddec_charge
 _atom_site_hse06_10hf_ddec_spin_density
 _atom_site_hse06_10hf_ddec_sum_bond_order
 _atom_site_hse06_10hf_magmom
 _atom_site_hse06_bader_spin_density
 _atom_site_hse06_ddec_charge
 _atom_site_hse06_ddec_spin_density
 _atom_site_hse06_ddec_sum_bond_order
 _atom_site_hse06_magmom
 _atom_site_pbe_bader_charge
 _atom_site_pbe_bader_spin_density
 _atom_site_pbe_cm5_charge
 _atom_site_pbe_ddec_charge
 _atom_site_pbe_ddec_spin_density
 _atom_site_pbe_ddec_sum_bond_order
 _atom_site_pbe_magmom
Pr  Pr0  1  0.63074464  0.26111480  0.46158619  1  0  2.32654  0  1.601811  0  0  2.165425  0  2.061114  0  0  2.24857  0  1.933245  0  2.276918  0  1.488675  2.135306  0  2.094828  0
Pr  Pr1  1  0.73894975  0.36928727  0.03840247  1  0  2.326442  0  1.602142  0  0  2.165475  0  2.061165  0  0  2.248459  0  1.933601  0  2.276639  0  1.488564  2.135329  0  2.094929  0
Pr  Pr2  1  0.36925476  0.73888589  0.53841350  1  0  2.326538  0  1.601803  0  0  2.165421  0  2.061104  0  0  2.248564  0  1.93324  0  2.276923  0  1.488666  2.135301  0  2.094821  0
Pr  Pr3  1  0.26104914  0.63071215  0.96159783  1  0  2.326466  0  1.602153  0  0  2.165498  0  2.061187  0  0  2.248486  0  1.933613  0  2.276651  0  1.488565  2.135353  0  2.094949  0
H  H4  1  0.90671745  0.25829986  0.22384533  1  0  0.398557  0  0.87096  0  0  0.372698  0  0.941331  0  0  0.383142  0  0.929891  0  0.641897  0  0.31167  0.365414  0  0.949159  0
H  H5  1  0.74183843  0.09298121  0.27616710  1  0  0.398747  0  0.870665  0  0  0.372927  0  0.940931  0  0  0.383373  0  0.929494  0  0.643571  0  0.311934  0.365633  0  0.948773  0
H  H6  1  0.09328022  0.74170211  0.77615438  1  0  0.398525  0  0.87103  0  0  0.372677  0  0.941371  0  0  0.383119  0  0.929936  0  0.641998  0  0.311684  0.365402  0  0.949185  0
H  H7  1  0.25816046  0.90701821  0.72383320  1  0  0.398739  0  0.870695  0  0  0.37292  0  0.940955  0  0  0.383366  0  0.929517  0  0.643569  0  0.311927  0.365627  0  0.948796  0
H  H8  1  0.93912533  0.13399952  0.35245785  1  0  0.437074  0  0.855245  0  0  0.407205  0  0.91686  0  0  0.417401  0  0.901842  0  0.651048  0  0.304993  0.399921  0  0.927686  0
H  H9  1  0.86589815  0.06085435  0.14753801  1  0  0.437224  0  0.855046  0  0  0.407267  0  0.916837  0  0  0.417475  0  0.901795  0  0.650263  0  0.30501  0.399969  0  0.927687  0
H  H10  1  0.06087520  0.86600118  0.64754229  1  0  0.437062  0  0.855266  0  0  0.407198  0  0.916871  0  0  0.417393  0  0.901855  0  0.651062  0  0.305002  0.399918  0  0.92769  0
H  H11  1  0.13409973  0.93914252  0.85246249  1  0  0.437277  0  0.854976  0  0  0.407332  0  0.916739  0  0  0.417538  0  0.901701  0  0.650282  0  0.30506  0.400035  0  0.927589  0
H  H12  1  0.01490679  0.98165889  0.41277496  1  0  0.43927  0  0.864245  0  0  0.408555  0  0.926753  0  0  0.419811  0  0.910552  0  0.6542  0  0.297308  0.400704  0  0.938079  0
H  H13  1  0.01829989  0.98516418  0.08720314  1  0  0.43916  0  0.864377  0  0  0.4085  0  0.926786  0  0  0.419744  0  0.910609  0  0.654092  0  0.297237  0.400665  0  0.938083  0
H  H14  1  0.98509261  0.01834180  0.58722472  1  0  0.439262  0  0.864256  0  0  0.408548  0  0.926761  0  0  0.419805  0  0.91056  0  0.654194  0  0.297309  0.400697  0  0.938086  0
H  H15  1  0.98169850  0.01483397  0.91279675  1  0  0.439156  0  0.86438  0  0  0.408499  0  0.926784  0  0  0.419746  0  0.910601  0  0.654145  0  0.297249  0.400665  0  0.93808  0
H  H16  1  0.17685086  0.17318543  0.35634012  1  0  0.120744  0  0.94935  0  0  0.130228  0  1.012354  0  0  0.134866  0  1.008051  0  0.10524  0  0.113559  0.126916  0  1.015348  0
H  H17  1  0.82678038  0.82311474  0.14365882  1  0  0.120642  0  0.949627  0  0  0.1303  0  1.012423  0  0  0.134968  0  1.008082  0  0.104981  0  0.113425  0.126928  0  1.015488  0
H  H18  1  0.82314385  0.82682037  0.64365954  1  0  0.120707  0  0.949365  0  0  0.130193  0  1.01237  0  0  0.134834  0  1.008069  0  0.105256  0  0.113572  0.126881  0  1.015364  0
H  H19  1  0.17322198  0.17688212  0.85634142  1  0  0.120647  0  0.949654  0  0  0.130312  0  1.012444  0  0  0.13496  0  1.008127  0  0.104932  0  0.113429  0.126953  0  1.015494  0
H  H20  1  0.53025829  0.27838728  0.21647056  1  0  0.112798  0  0.962387  0  0  0.117488  0  1.033708  0  0  0.122223  0  1.029411  0  0.092994  0  0.112509  0.114037  0  1.036899  0
H  H21  1  0.72158685  0.46992727  0.28351659  1  0  0.11235  0  0.962914  0  0  0.117256  0  1.033943  0  0  0.121965  0  1.029689  0  0.093763  0  0.112539  0.113825  0  1.03712  0
H  H22  1  0.46974172  0.72161214  0.78352916  1  0  0.112787  0  0.962391  0  0  0.117488  0  1.033698  0  0  0.122223  0  1.029402  0  0.092966  0  0.112506  0.114036  0  1.03689  0
H  H23  1  0.27841490  0.53007087  0.71648414  1  0  0.112326  0  0.962907  0  0  0.117243  0  1.033935  0  0  0.121953  0  1.029677  0  0.093781  0  0.112526  0.11381  0  1.037118  0
H  H24  1  0.69540395  0.89297028  0.53282631  1  0  0.464432  0  0.820439  0  0  0.433704  0  0.881442  0  0  0.444907  0  0.865096  0  0.655981  0  0.310639  0.425815  0  0.893019  0
H  H25  1  0.10714019  0.30453844  0.96716530  1  0  0.464249  0  0.820829  0  0  0.433534  0  0.881807  0  0  0.444749  0  0.865442  0  0.656136  0  0.310501  0.425637  0  0.893393  0
H  H26  1  0.30459607  0.10702914  0.46717392  1  0  0.464433  0  0.820439  0  0  0.433707  0  0.881441  0  0  0.444908  0  0.865096  0  0.655983  0  0.310633  0.425817  0  0.893017  0
H  H27  1  0.89285799  0.69546480  0.03283686  1  0  0.464356  0  0.820662  0  0  0.4336  0  0.881706  0  0  0.444814  0  0.865343  0  0.656105  0  0.310546  0.425705  0  0.893289  0
H  H28  1  0.87502363  0.87001432  0.49934457  1  0  0.44773  0  0.813567  0  0  0.427425  0  0.86383  0  0  0.436122  0  0.851216  0  0.644006  0  0.329536  0.421311  0  0.872786  0
H  H29  1  0.12997867  0.12505831  0.00063100  1  0  0.448245  0  0.812469  0  0  0.427918  0  0.863035  0  0  0.436615  0  0.850414  0  0.64515  0  0.329721  0.421802  0  0.871997  0
H  H30  1  0.12497578  0.12998637  0.50065512  1  0  0.447751  0  0.81355  0  0  0.427444  0  0.863807  0  0  0.436142  0  0.851191  0  0.644003  0  0.329543  0.42133  0  0.872763  0
H  H31  1  0.87002063  0.87494494  0.99937111  1  0  0.448277  0  0.812379  0  0  0.427959  0  0.862973  0  0  0.436659  0  0.850347  0  0.645126  0  0.329738  0.421844  0  0.871935  0
H  H32  1  0.10508094  0.27926392  0.13790465  1  0  0.123579  0  0.959112  0  0  0.127911  0  1.030246  0  0  0.132382  0  1.026576  0  0.094576  0  0.115017  0.124579  0  1.03319  0
H  H33  1  0.72071253  0.89476312  0.36210410  1  0  0.12343  0  0.958995  0  0  0.127902  0  1.030084  0  0  0.132276  0  1.026529  0  0.094201  0  0.114926  0.124574  0  1.033029  0
H  H34  1  0.89491785  0.72073805  0.86209500  1  0  0.12358  0  0.959109  0  0  0.127904  0  1.03026  0  0  0.132376  0  1.026589  0  0.094559  0  0.115002  0.124571  0  1.033204  0
H  H35  1  0.27928749  0.10523630  0.63789614  1  0  0.123445  0  0.958979  0  0  0.127916  0  1.030067  0  0  0.13229  0  1.026511  0  0.094204  0  0.114928  0.124588  0  1.033012  0
H  H36  1  0.58300215  0.31503515  0.70659946  1  0  0.064192  0  0.959333  0  0  0.083616  0  1.01928  0  0  0.083665  0  1.021079  0  0.040954  0  0.090989  0.083513  0  1.018048  0
H  H37  1  0.68499026  0.41685932  0.79341731  1  0  0.064187  0  0.959246  0  0  0.083648  0  1.01907  0  0  0.083676  0  1.020894  0  0.041807  0  0.09096  0.08358  0  1.017797  0
H  H38  1  0.41699786  0.68496427  0.29340027  1  0  0.064159  0  0.959367  0  0  0.083593  0  1.019304  0  0  0.083636  0  1.021111  0  0.040902  0  0.090981  0.08349  0  1.018073  0
H  H39  1  0.31501261  0.58313882  0.20658181  1  0  0.064134  0  0.959236  0  0  0.083687  0  1.018954  0  0  0.083715  0  1.020778  0  0.041793  0  0.090967  0.083616  0  1.017688  0
H  H40  1  0.77444842  0.11924850  0.70624607  1  0  0.066473  0  0.952414  0  0  0.083867  0  1.014789  0  0  0.084477  0  1.015843  0  0.029594  0  0.089184  0.083338  0  1.01412  0
H  H41  1  0.88090760  0.22552349  0.79373826  1  0  0.066393  0  0.953376  0  0  0.084087  0  1.01537  0  0  0.084685  0  1.016444  0  0.029135  0  0.089173  0.083599  0  1.014661  0
H  H42  1  0.22555332  0.88074965  0.29375311  1  0  0.066486  0  0.952427  0  0  0.083878  0  1.014803  0  0  0.084496  0  1.015846  0  0.029613  0  0.089183  0.083348  0  1.014135  0
H  H43  1  0.11909527  0.77447465  0.20626087  1  0  0.066431  0  0.953327  0  0  0.084102  0  1.015351  0  0  0.0847  0  1.016423  0  0.029124  0  0.089184  0.083613  0  1.01464  0
H  H44  1  0.76070743  0.46769675  0.66827434  1  0  0.104762  0  0.952069  0  0  0.120518  0  1.008814  0  0  0.12175  0  1.009611  0  0.073528  0  0.101303  0.119629  0  1.008228  0
H  H45  1  0.53215836  0.23934428  0.83174234  1  0  0.105082  0  0.952365  0  0  0.120638  0  1.0092  0  0  0.121869  0  1.01  0  0.072558  0  0.101412  0.119752  0  1.008611  0
H  H46  1  0.23929259  0.53230266  0.33172488  1  0  0.104753  0  0.952104  0  0  0.12049  0  1.008862  0  0  0.121718  0  1.009663  0  0.073508  0  0.101306  0.119601  0  1.008276  0
H  H47  1  0.46784390  0.76065514  0.16825726  1  0  0.1051  0  0.952398  0  0  0.120648  0  1.009218  0  0  0.121878  0  1.01002  0  0.072521  0  0.101432  0.119763  0  1.00863  0
H  H48  1  0.94268161  0.26420027  0.65883912  1  0  0.102053  0  0.948108  0  0  0.116692  0  1.007472  0  0  0.11847  0  1.007235  0  0.04985  0  0.09847  0.115421  0  1.007583  0
H  H49  1  0.73579125  0.05748560  0.84115012  1  0  0.102543  0  0.947758  0  0  0.117046  0  1.007177  0  0  0.118828  0  1.006934  0  0.050354  0  0.098654  0.115779  0  1.007276  0
H  H50  1  0.05731841  0.73579915  0.34115958  1  0  0.102053  0  0.948115  0  0  0.116697  0  1.007468  0  0  0.118476  0  1.00723  0  0.049844  0  0.098463  0.115424  0  1.007583  0
H  H51  1  0.26421100  0.94251381  0.15884948  1  0  0.102551  0  0.947752  0  0  0.117044  0  1.007163  0  0  0.118827  0  1.006922  0  0.050362  0  0.098646  0.11578  0  1.007263  0
C  C52  1  0.46351021  0.21053640  0.35117425  1  0  0.645416  0  3.914739  0  0  0.595172  0  4.211957  0  0  0.627905  0  4.208346  0  1.512642  0  0.206139  0.572449  0  4.216828  0
C  C53  1  0.78948839  0.53659526  0.14880587  1  0  0.645693  0  3.914793  0  0  0.595505  0  4.211932  0  0  0.628255  0  4.208278  0  1.513178  0  0.206423  0.572769  0  4.216822  0
C  C54  1  0.53649042  0.78946174  0.64882603  1  0  0.645388  0  3.914786  0  0  0.595157  0  4.211986  0  0  0.62789  0  4.208375  0  1.512642  0  0.206155  0.572434  0  4.216855  0
C  C55  1  0.21051224  0.46340288  0.85119440  1  0  0.645679  0  3.914757  0  0  0.595506  0  4.211879  0  0  0.628255  0  4.208225  0  1.513022  0  0.206437  0.572771  0  4.216766  0
C  C56  1  0.37921490  0.33287164  0.10050290  1  0  0.717594  0  3.864597  0  0  0.67462  0  4.148742  0  0  0.709639  0  4.139888  0  1.612895  0  0.235587  0.650779  0  4.156231  0
C  C57  1  0.66717661  0.62073862  0.39949107  1  0  0.717867  0  3.863908  0  0  0.674605  0  4.148493  0  0  0.709627  0  4.13966  0  1.612849  0  0.2357  0.650768  0  4.15597  0
C  C58  1  0.62078053  0.66713033  0.89949745  1  0  0.717632  0  3.86458  0  0  0.674596  0  4.148814  0  0  0.709613  0  4.139964  0  1.612897  0  0.235614  0.650756  0  4.156301  0
C  C59  1  0.33282453  0.37926080  0.60050910  1  0  0.717898  0  3.864066  0  0  0.674641  0  4.148647  0  0  0.709663  0  4.139815  0  1.612802  0  0.235725  0.650804  0  4.156122  0
C  C60  1  0.21999435  0.20093675  0.30430990  1  0  -0.165489  0  3.656939  0  0  -0.199942  0  3.905453  0  0  -0.201003  0  3.92181  0  -0.014943  0  -0.087471  -0.198835  0  3.894131  0
C  C61  1  0.79900885  0.77997821  0.19568519  1  0  -0.16582  0  3.657946  0  0  -0.200318  0  3.9065  0  0  -0.201411  0  3.922887  0  -0.013841  0  -0.087582  -0.199174  0  3.895221  0
C  C62  1  0.78000444  0.79906522  0.69569077  1  0  -0.165398  0  3.657017  0  0  -0.199859  0  3.905515  0  0  -0.200926  0  3.921879  0  -0.014008  0  -0.087488  -0.19875  0  3.894187  0
C  C63  1  0.20099290  0.22001993  0.80431553  1  0  -0.165834  0  3.65801  0  0  -0.20031  0  3.90657  0  0  -0.201386  0  3.922966  0  -0.014204  0  -0.087575  -0.199176  0  3.895282  0
C  C64  1  0.41838845  0.26019733  0.22588561  1  0  -0.094266  0  3.718082  0  0  -0.137956  0  3.975388  0  0  -0.136389  0  3.992693  0  0.00607  0  -0.085385  -0.138663  0  3.963325  0
C  C65  1  0.73979510  0.58169690  0.27410103  1  0  -0.093843  0  3.718133  0  0  -0.13758  0  3.97539  0  0  -0.135996  0  3.992677  0  -0.05851  0  -0.085405  -0.138306  0  3.963337  0
C  C66  1  0.58161157  0.73980209  0.77411514  1  0  -0.09425  0  3.718069  0  0  -0.137931  0  3.975346  0  0  -0.136366  0  3.992651  0  0.005937  0  -0.085378  -0.138639  0  3.963284  0
C  C67  1  0.26020552  0.41830124  0.72589975  1  0  -0.093805  0  3.718081  0  0  -0.137547  0  3.975334  0  0  -0.135963  0  3.992625  0  -0.058489  0  -0.085389  -0.138271  0  3.963275  0
C  C68  1  0.17713960  0.26275962  0.18169725  1  0  -0.190779  0  3.697967  0  0  -0.223921  0  3.948906  0  0  -0.225997  0  3.966276  0  -0.032353  0  -0.090103  -0.222126  0  3.936913  0
C  C69  1  0.73719604  0.82276766  0.31830708  1  0  -0.190304  0  3.697222  0  0  -0.223602  0  3.948323  0  0  -0.225616  0  3.965777  0  -0.031367  0  -0.089968  -0.221824  0  3.936342  0
C  C70  1  0.82285970  0.73724363  0.81830281  1  0  -0.190715  0  3.697929  0  0  -0.223865  0  3.948862  0  0  -0.22594  0  3.966231  0  -0.032283  0  -0.090068  -0.222073  0  3.936875  0
C  C71  1  0.26280510  0.17723176  0.68169310  1  0  -0.190332  0  3.697212  0  0  -0.223612  0  3.948316  0  0  -0.225625  0  3.965769  0  -0.031374  0  -0.089984  -0.221834  0  3.936336  0
C  C72  1  0.36610933  0.22123345  0.29279709  1  0  -0.057898  0  3.80119  0  0  -0.03296  0  4.040802  0  0  -0.04051  0  4.063938  0  0.023626  0  -0.020787  -0.027971  0  4.024838  0
C  C73  1  0.77874128  0.63395839  0.20718540  1  0  -0.057798  0  3.801217  0  0  -0.032942  0  4.04098  0  0  -0.04049  0  4.064124  0  0.024091  0  -0.020718  -0.027946  0  4.025004  0
C  C74  1  0.63389068  0.77876597  0.70720314  1  0  -0.057922  0  3.80117  0  0  -0.032996  0  4.040792  0  0  -0.040545  0  4.06393  0  0.0227  0  -0.02079  -0.028007  0  4.024829  0
C  C75  1  0.22125935  0.36603975  0.79281487  1  0  -0.057758  0  3.801192  0  0  -0.032927  0  4.040983  0  0  -0.040474  0  4.064123  0  0.024197  0  -0.020738  -0.027931  0  4.025007  0
C  C76  1  0.12665392  0.22052524  0.24859923  1  0  0.321353  0  3.826033  0  0  0.314213  0  4.093314  0  0  0.322571  0  4.111059  0  0.436414  0  0.082224  0.308163  0  4.081222  0
C  C77  1  0.77941897  0.87324525  0.25139955  1  0  0.321078  0  3.826477  0  0  0.313674  0  4.094252  0  0  0.322012  0  4.112054  0  0.437213  0  0.082052  0.307614  0  4.082127  0
C  C78  1  0.87334314  0.77947800  0.75140044  1  0  0.321214  0  3.826191  0  0  0.314108  0  4.093436  0  0  0.322464  0  4.111181  0  0.436705  0  0.082208  0.308068  0  4.081334  0
C  C79  1  0.22058390  0.12675289  0.74860060  1  0  0.321053  0  3.826476  0  0  0.313599  0  4.094317  0  0  0.321938  0  4.112114  0  0.437619  0  0.082025  0.307538  0  4.082195  0
C  C80  1  0.32336402  0.28202144  0.17069616  1  0  -0.033093  0  3.75837  0  0  -0.007234  0  3.989083  0  0  -0.013262  0  4.009448  0  -0.052529  0  -0.011111  -0.003278  0  3.9748  0
C  C81  1  0.71798911  0.67661897  0.32929828  1  0  -0.032987  0  3.757931  0  0  -0.006987  0  3.98869  0  0  -0.013015  0  4.009035  0  0.010048  0  -0.010915  -0.003029  0  3.974402  0
C  C82  1  0.67663416  0.71798180  0.82930397  1  0  -0.033117  0  3.758376  0  0  -0.007235  0  3.989094  0  0  -0.013263  0  4.009459  0  -0.052483  0  -0.011118  -0.00328  0  3.97481  0
C  C83  1  0.28201264  0.32337918  0.67070244  1  0  -0.033009  0  3.757896  0  0  -0.007018  0  3.988665  0  0  -0.013044  0  4.009008  0  0.010084  0  -0.010924  -0.003059  0  3.974376  0
C  C84  1  0.75394683  0.33272489  0.58718926  1  0  0.760492  0  3.783484  0  0  0.718527  0  4.073215  0  0  0.752536  0  4.066521  0  1.535401  0  0.234975  0.69513  0  4.079958  0
C  C85  1  0.66727685  0.24608560  0.91281567  1  0  0.760683  0  3.782829  0  0  0.719083  0  4.071856  0  0  0.753115  0  4.065095  0  1.534375  0  0.235367  0.695681  0  4.078617  0
C  C86  1  0.24605257  0.66727580  0.41280992  1  0  0.760388  0  3.783578  0  0  0.718488  0  4.073196  0  0  0.752493  0  4.066508  0  1.535385  0  0.234971  0.695091  0  4.079939  0
C  C87  1  0.33272592  0.75391509  0.08718383  1  0  0.760676  0  3.782906  0  0  0.719048  0  4.071952  0  0  0.753081  0  4.065191  0  1.534601  0  0.235352  0.695649  0  4.078712  0
C  C88  1  0.72032934  0.25576564  0.71343322  1  0  -0.072537  0  3.633614  0  0  -0.110779  0  3.88945  0  0  -0.11101  0  3.902711  0  -0.040906  0  -0.159254  -0.110328  0  3.879982  0
C  C89  1  0.74427097  0.27964928  0.78656613  1  0  -0.072899  0  3.634798  0  0  -0.11128  0  3.890377  0  0  -0.111505  0  3.903654  0  -0.011623  0  -0.159246  -0.110869  0  3.880892  0
C  C90  1  0.27967231  0.74423505  0.28656481  1  0  -0.072503  0  3.633642  0  0  -0.110778  0  3.889514  0  0  -0.11101  0  3.902775  0  -0.040966  0  -0.15925  -0.110327  0  3.880045  0
C  C91  1  0.25573129  0.72035013  0.21343398  1  0  -0.072879  0  3.634678  0  0  -0.111304  0  3.890248  0  0  -0.111529  0  3.903526  0  -0.016084  0  -0.159248  -0.11089  0  3.880761  0
C  C92  1  0.80309916  0.33543775  0.65778382  1  0  -0.262393  0  3.631973  0  0  -0.297188  0  3.872448  0  0  -0.302547  0  3.879252  0  -0.018595  0  -0.159316  -0.293201  0  3.867076  0
C  C93  1  0.66452897  0.19695423  0.84222291  1  0  -0.263062  0  3.63231  0  0  -0.297674  0  3.872543  0  0  -0.303044  0  3.879343  0  -0.022045  0  -0.159647  -0.29369  0  3.867195  0
C  C94  1  0.19690086  0.66456166  0.34221539  1  0  -0.262358  0  3.631991  0  0  -0.297144  0  3.872416  0  0  -0.302502  0  3.879221  0  -0.018552  0  -0.1593  -0.293157  0  3.867043  0
C  C95  1  0.33547441  0.80304519  0.15777662  1  0  -0.263068  0  3.632353  0  0  -0.297637  0  3.87256  0  0  -0.303006  0  3.879355  0  -0.01769  0  -0.159647  -0.293663  0  3.867219  0
O  O96  1  0.60181097  0.22252735  0.33739968  1  0  -0.718542  0  2.002333  0  0  -0.662321  0  2.243794  0  0  -0.690275  0  2.232515  0  -1.19461  0  -0.373765  -0.645874  0  2.251175  0
O  O97  1  0.77746494  0.39842182  0.16256949  1  0  -0.718485  0  2.002282  0  0  -0.662355  0  2.243806  0  0  -0.690304  0  2.23254  0  -1.195895  0  -0.373729  -0.645894  0  2.25118  0
O  O98  1  0.39818966  0.77747079  0.66260059  1  0  -0.718515  0  2.002365  0  0  -0.662302  0  2.243821  0  0  -0.690257  0  2.232545  0  -1.194618  0  -0.373773  -0.645854  0  2.2512  0
O  O99  1  0.22253396  0.60157760  0.83743030  1  0  -0.718478  0  2.002209  0  0  -0.662352  0  2.243716  0  0  -0.690302  0  2.232452  0  -1.195861  0  -0.373716  -0.645891  0  2.251086  0
O  O100  1  0.53945399  0.27508616  0.08796886  1  0  -0.738753  0  2.035345  0  0  -0.687528  0  2.284854  0  0  -0.717403  0  2.271229  0  -1.203027  0  -0.412632  -0.670558  0  2.292943  0
O  O101  1  0.72490950  0.46064536  0.41200200  1  0  -0.738983  0  2.034615  0  0  -0.687733  0  2.284286  0  0  -0.71762  0  2.270639  0  -1.203404  0  -0.412512  -0.670776  0  2.292379  0
O  O102  1  0.46054256  0.72491581  0.91203092  1  0  -0.738755  0  2.035347  0  0  -0.687514  0  2.284892  0  0  -0.717388  0  2.271267  0  -1.203095  0  -0.412644  -0.670544  0  2.29298  0
O  O103  1  0.27509225  0.53935278  0.58799872  1  0  -0.739004  0  2.034786  0  0  -0.687746  0  2.284438  0  0  -0.717633  0  2.270794  0  -1.203378  0  -0.412537  -0.670788  0  2.292529  0
O  O104  1  0.61949565  0.45613073  0.56294648  1  0  -0.809949  0  2.11983  0  0  -0.753923  0  2.379474  0  0  -0.787906  0  2.36748  0  -1.226323  0  -0.4062  -0.736509  0  2.38637  0
O  O105  1  0.54390426  0.38061468  0.93700776  1  0  -0.810404  0  2.119905  0  0  -0.754567  0  2.379449  0  0  -0.788513  0  2.367417  0  -1.226229  0  -0.406732  -0.73714  0  2.386347  0
O  O106  1  0.38050437  0.54386869  0.43705222  1  0  -0.80991  0  2.119852  0  0  -0.753912  0  2.379466  0  0  -0.787893  0  2.367474  0  -1.226302  0  -0.406229  -0.736497  0  2.38636  0
O  O107  1  0.45609637  0.61938346  0.06299200  1  0  -0.810456  0  2.119913  0  0  -0.754621  0  2.379485  0  0  -0.788565  0  2.367447  0  -1.226263  0  -0.406754  -0.737193  0  2.386379  0
O  O108  1  0.84313229  0.20044548  0.55260420  1  0  -0.726113  0  1.988287  0  0  -0.662925  0  2.215075  0  0  -0.692423  0  2.20221  0  -1.213291  0  -0.357254  -0.645299  0  2.223002  0
O  O109  1  0.79954978  0.15683426  0.94743850  1  0  -0.726024  0  1.987948  0  0  -0.662987  0  2.214503  0  0  -0.692451  0  2.201603  0  -1.212782  0  -0.357148  -0.645377  0  2.222437  0
O  O110  1  0.15686600  0.79955522  0.44739452  1  0  -0.726075  0  1.988337  0  0  -0.662909  0  2.215099  0  0  -0.692406  0  2.202237  0  -1.213265  0  -0.357219  -0.645283  0  2.223026  0
O  O111  1  0.20045350  0.84316771  0.05256090  1  0  -0.726003  0  1.988013  0  0  -0.662963  0  2.214571  0  0  -0.692424  0  2.20167  0  -1.212767  0  -0.357136  -0.645352  0  2.222503  0
O  O112  1  0.26487619  0.43210417  0.05990546  1  0  -0.718009  0  1.969431  0  0  -0.66945  0  2.212767  0  0  -0.698513  0  2.199338  0  -1.202208  0  -0.390676  -0.652855  0  2.220245  0
O  O113  1  0.56797191  0.73498121  0.44011942  1  0  -0.718253  0  1.969113  0  0  -0.66952  0  2.212582  0  0  -0.698552  0  2.198994  0  -1.202256  0  -0.390979  -0.652919  0  2.220059  0
O  O114  1  0.73512097  0.56789652  0.94009486  1  0  -0.718057  0  1.969398  0  0  -0.669473  0  2.212751  0  0  -0.698536  0  2.199323  0  -1.202145  0  -0.390707  -0.652878  0  2.220228  0
O  O115  1  0.43202922  0.26501821  0.55988075  1  0  -0.718259  0  1.969145  0  0  -0.669525  0  2.212603  0  0  -0.698566  0  2.199033  0  -1.202264  0  -0.390974  -0.652925  0  2.220081  0
O  O116  1  0.98715856  0.19547530  0.26129459  1  0  -0.545195  0  2.158454  0  0  -0.484422  0  2.369687  0  0  -0.504013  0  2.36037  0  -1.172581  0  -0.346199  -0.470374  0  2.375686  0
O  O117  1  0.80453995  0.01258941  0.23870257  1  0  -0.54518  0  2.158801  0  0  -0.484329  0  2.370249  0  0  -0.503804  0  2.36071  0  -1.174146  0  -0.346316  -0.470258  0  2.376273  0
O  O118  1  0.01283860  0.80452539  0.73870625  1  0  -0.545085  0  2.158524  0  0  -0.484351  0  2.369802  0  0  -0.503934  0  2.360477  0  -1.172928  0  -0.346221  -0.470333  0  2.375826  0
O  O119  1  0.19546068  0.98740873  0.76129771  1  0  -0.545164  0  2.158757  0  0  -0.484297  0  2.370217  0  0  -0.503771  0  2.360681  0  -1.174159  0  -0.346266  -0.470224  0  2.376237  0
O  O120  1  0.92022274  0.09869915  0.40091378  1  0  -0.928382  0  1.837875  0  0  -0.881639  0  2.039645  0  0  -0.904009  0  2.002336  0  -1.306941  0  -0.654593  -0.869172  0  2.06357  0
O  O121  1  0.90125218  0.07987883  0.09909980  1  0  -0.928421  0  1.837045  0  0  -0.88169  0  2.03873  0  0  -0.904013  0  2.001406  0  -1.306058  0  -0.654476  -0.869236  0  2.062649  0
O  O122  1  0.07977606  0.90130282  0.59908638  1  0  -0.928364  0  1.83791  0  0  -0.88162  0  2.039684  0  0  -0.903988  0  2.002372  0  -1.306943  0  -0.65459  -0.869152  0  2.063603  0
O  O123  1  0.09874243  0.92011548  0.90089950  1  0  -0.92846  0  1.837021  0  0  -0.881742  0  2.038722  0  0  -0.904064  0  2.001392  0  -1.306127  0  -0.654546  -0.869289  0  2.062645  0
O  O124  1  0.41118599  0.19569478  0.41387805  1  0  -0.685327  0  1.998501  0  0  -0.627543  0  2.228709  0  0  -0.655115  0  2.217657  0  -1.191776  0  -0.343514  -0.611093  0  2.235734  0
O  O125  1  0.80438553  0.58883251  0.08610333  1  0  -0.685439  0  1.998983  0  0  -0.627666  0  2.229151  0  0  -0.655207  0  2.218097  0  -1.191557  0  -0.34346  -0.611217  0  2.236182  0
O  O126  1  0.58881342  0.80430591  0.58612215  1  0  -0.685318  0  1.998495  0  0  -0.627529  0  2.228687  0  0  -0.655102  0  2.217636  0  -1.191764  0  -0.343503  -0.611079  0  2.235713  0
O  O127  1  0.19561326  0.41116946  0.91389684  1  0  -0.685429  0  1.999037  0  0  -0.627678  0  2.2292  0  0  -0.655219  0  2.218141  0  -1.191551  0  -0.343474  -0.611229  0  2.236232  0
O  O128  1  0.75224394  0.94618115  0.49956309  1  0  -0.906138  0  1.778811  0  0  -0.858057  0  1.963597  0  0  -0.880011  0  1.927002  0  -1.280636  0  -0.624569  -0.846209  0  1.986505  0
O  O129  1  0.05391233  0.24775466  0.00045901  1  0  -0.906328  0  1.778852  0  0  -0.858224  0  1.963877  0  0  -0.880219  0  1.927388  0  -1.281826  0  -0.624725  -0.846344  0  1.986755  0
O  O130  1  0.24775546  0.05381954  0.50043660  1  0  -0.906159  0  1.778809  0  0  -0.858076  0  1.963596  0  0  -0.880029  0  1.927003  0  -1.280637  0  -0.624562  -0.846228  0  1.986504  0
O  O131  1  0.94608921  0.75224858  0.99954501  1  0  -0.906472  0  1.778672  0  0  -0.858353  0  1.963748  0  0  -0.88035  0  1.927259  0  -1.281776  0  -0.624783  -0.846473  0  1.986623  0
