# generated using pymatgen
data_MnH10C5O6
_symmetry_space_group_name_H-M   'P 1'
_cell_length_a   7.58306294
_cell_length_b   9.09191813
_cell_length_c   12.15422272
_cell_angle_alpha   90.00017048
_cell_angle_beta   89.99974259
_cell_angle_gamma   85.90170887
_symmetry_Int_Tables_number   1
_chemical_formula_structural   MnH10C5O6
_chemical_formula_sum   'Mn4 H40 C20 O24'
_cell_volume   835.82511575
_cell_formula_units_Z   4
loop_
 _symmetry_equiv_pos_site_id
 _symmetry_equiv_pos_as_xyz
  1  'x, y, z'
loop_
 _atom_site_type_symbol
 _atom_site_label
 _atom_site_symmetry_multiplicity
 _atom_site_fract_x
 _atom_site_fract_y
 _atom_site_fract_z
 _atom_site_occupancy
 _atom_site_hle17_ddec_charge
 _atom_site_hle17_ddec_spin_density
 _atom_site_hle17_ddec_sum_bond_order
 _atom_site_hle17_magmom
 _atom_site_hse06_10hf_ddec_charge
 _atom_site_hse06_10hf_ddec_spin_density
 _atom_site_hse06_10hf_ddec_sum_bond_order
 _atom_site_hse06_10hf_magmom
 _atom_site_hse06_ddec_charge
 _atom_site_hse06_ddec_spin_density
 _atom_site_hse06_ddec_sum_bond_order
 _atom_site_hse06_magmom
 _atom_site_pbe_cm5_charge
 _atom_site_pbe_ddec_charge
 _atom_site_pbe_ddec_spin_density
 _atom_site_pbe_ddec_sum_bond_order
 _atom_site_pbe_magmom
Mn  Mn0  1  0.05707036  0.27906218  0.06472260  1  1.240019  4.804686  1.670952  4.688  1.079134  4.736903  2.164775  4.556  1.139179  4.774778  2.091311  4.613  0.590512  1.031614  4.699242  2.219254  4.502
Mn  Mn1  1  0.44292296  0.72093513  0.56471831  1  1.239998  4.804666  1.670948  4.688  1.078986  4.73689  2.164921  4.557  1.139037  4.774763  2.091459  4.613  0.590439  1.031468  4.699228  2.219394  4.502
Mn  Mn2  1  0.94293177  0.72093683  0.93527274  1  1.240056  4.804721  1.671024  4.688  1.079074  4.736946  2.164899  4.556  1.139119  4.774825  2.091432  4.613  0.590474  1.03154  4.699277  2.219377  4.502
Mn  Mn3  1  0.55706446  0.27906876  0.43528278  1  1.240064  4.804686  1.670953  4.688  1.0791  4.736909  2.164862  4.557  1.139148  4.774781  2.0914  4.613  0.590522  1.031569  4.699258  2.219336  4.502
H  H4  1  0.08309477  0.66089221  0.32532626  1  0.117362  -2.9e-05  0.922296  0.0  0.135846  0.000342  0.977215  0.001  0.137752  0.000122  0.977009  0.001  0.106652  0.134272  0.000621  0.977655  0.001
H  H5  1  0.41692114  0.33912192  0.82533351  1  0.117361  -3.6e-05  0.922352  0.0  0.135878  0.00034  0.97726  0.001  0.137781  0.00012  0.977057  0.001  0.106613  0.134312  0.000618  0.97769  0.001
H  H6  1  0.91691119  0.33910998  0.67467731  1  0.117424  -2.6e-05  0.922313  0.0  0.135947  0.000342  0.977198  0.001  0.137851  0.000121  0.976993  0.001  0.106676  0.134379  0.00062  0.977633  0.001
H  H7  1  0.58309492  0.66089204  0.17467253  1  0.117393  -9e-06  0.922265  0.0  0.13588  0.000342  0.977183  0.001  0.137784  0.000122  0.976978  0.001  0.106658  0.134307  0.000621  0.977623  0.001
H  H8  1  0.86185225  0.62107642  0.31884830  1  0.090203  -6e-06  0.969689  0.0  0.10385  0.00035  1.035112  0.001  0.105893  0.000114  1.034548  0.001  0.09762  0.102358  0.00062  1.035667  0.001
H  H9  1  0.63815419  0.37892508  0.81885811  1  0.090284  -9e-06  0.969855  0.0  0.103913  0.000348  1.035283  0.001  0.105949  0.000112  1.034724  0.001  0.097665  0.102424  0.000617  1.03584  0.001
H  H10  1  0.13814489  0.37891505  0.68114046  1  0.090367  -4e-06  0.969811  0.0  0.103979  0.000349  1.035258  0.001  0.106017  0.000113  1.034698  0.001  0.097684  0.10249  0.000618  1.035816  0.001
H  H11  1  0.36185173  0.62107822  0.18115039  1  0.090178  1.1e-05  0.969766  0.0  0.103826  0.00035  1.03518  0.001  0.105866  0.000114  1.034616  0.001  0.097601  0.102332  0.00062  1.035738  0.001
H  H12  1  0.78105984  0.85285334  0.21659122  1  0.06752  -0.000155  0.946363  0.0  0.087771  -3.7e-05  1.006013  0.0  0.087992  -8e-05  1.007268  0.0  0.094193  0.087554  -7e-06  1.005116  0.0
H  H13  1  0.71894592  0.14714997  0.71660108  1  0.067337  -0.000137  0.946496  0.0  0.087603  -3.7e-05  1.006119  0.0  0.087822  -8e-05  1.007378  0.0  0.094147  0.087388  -7e-06  1.005219  0.0
H  H14  1  0.21895184  0.14713766  0.78339342  1  0.067328  -0.000161  0.946394  0.0  0.08758  -3.7e-05  1.006097  0.0  0.087798  -8e-05  1.007357  0.0  0.094166  0.087362  -7e-06  1.005191  0.0
H  H15  1  0.28106677  0.85284870  0.28341483  1  0.067498  -0.000133  0.946437  0.0  0.087757  -3.7e-05  1.006047  0.0  0.087977  -8e-05  1.007302  0.0  0.09418  0.087535  -7e-06  1.005148  0.0
H  H16  1  0.00291916  0.89599560  0.21143454  1  0.070452  -0.000424  0.94286  0.0  0.087759  -0.000412  1.005823  0.0  0.088652  -0.000436  1.006016  0.0  0.09407  0.086949  -0.000385  1.005828  0.0
H  H17  1  0.49707263  0.10401446  0.71143937  1  0.0704  -0.000428  0.942897  0.0  0.087696  -0.000412  1.005808  0.0  0.088591  -0.000436  1.006004  0.0  0.094061  0.086887  -0.000385  1.00581  0.0
H  H18  1  0.99707785  0.10399918  0.78856326  1  0.070292  -0.000433  0.942957  0.0  0.087633  -0.000412  1.005878  0.0  0.088527  -0.000436  1.006073  0.0  0.093999  0.086823  -0.000385  1.005873  0.0
H  H19  1  0.50292404  0.89598913  0.28856996  1  0.070396  -0.00042  0.942865  0.0  0.087708  -0.000412  1.005806  0.0  0.088604  -0.000436  1.005995  0.0  0.094054  0.086897  -0.000385  1.005809  0.0
H  H20  1  0.83390323  0.82427094  0.43236303  1  0.112314  -0.000325  0.945886  0.0  0.127523  -0.000184  1.005021  0.0  0.13001  -0.00032  1.003801  0.0  0.104882  0.125582  -5.1e-05  1.00625  0.001
H  H21  1  0.66608927  0.17572926  0.93237476  1  0.112363  -0.000331  0.945746  0.0  0.127557  -0.000183  1.004944  0.0  0.130045  -0.00032  1.003723  0.0  0.104912  0.125647  -5e-05  1.006145  0.001
H  H22  1  0.16606991  0.17572681  0.56762161  1  0.11237  -0.00032  0.94582  0.0  0.127535  -0.000183  1.004993  0.0  0.13004  -0.00032  1.003749  0.0  0.104933  0.12559  -5e-05  1.006235  0.001
H  H23  1  0.33390621  0.82427107  0.06764444  1  0.112369  -0.00034  0.945878  0.0  0.1276  -0.000183  1.005  0.0  0.13009  -0.00032  1.003779  0.0  0.10492  0.12567  -5e-05  1.006219  0.001
H  H24  1  0.02131312  0.92191580  0.41046332  1  0.117554  -0.000163  0.942021  0.0  0.132606  2.6e-05  1.00058  0.0  0.135241  -9.9e-05  0.999822  0.0  0.106038  0.130617  0.000169  1.001294  0.001
H  H25  1  0.47869729  0.07808895  0.91046978  1  0.117649  -0.000163  0.942027  0.0  0.132671  2.6e-05  1.000648  0.0  0.135307  -9.9e-05  0.999889  0.0  0.106094  0.130697  0.00017  1.001345  0.001
H  H26  1  0.97867307  0.07808593  0.58953284  1  0.117676  -0.000168  0.941905  0.0  0.132635  2.6e-05  1.000561  0.0  0.135268  -9.9e-05  0.99981  0.0  0.106085  0.130646  0.00017  1.001274  0.001
H  H27  1  0.52130334  0.92191451  0.08954037  1  0.117626  -0.000168  0.942017  0.0  0.13268  2.6e-05  1.000602  0.0  0.135316  -9.9e-05  0.99985  0.0  0.106108  0.130703  0.000169  1.001307  0.001
H  H28  1  0.80466293  0.15068475  0.18611537  1  0.438985  -6.9e-05  0.861373  0.001  0.407162  0.000711  0.925247  0.002  0.41877  0.000356  0.908537  0.002  0.294817  0.398878  0.001053  0.937101  0.003
H  H29  1  0.69532729  0.84931673  0.68612034  1  0.43904  -7.2e-05  0.861278  0.001  0.407177  0.00071  0.925213  0.002  0.418784  0.000356  0.908504  0.002  0.294783  0.398892  0.001052  0.937068  0.003
H  H30  1  0.19532863  0.84931460  0.81387421  1  0.438915  -7e-05  0.861458  0.001  0.40706  0.000711  0.925375  0.002  0.418667  0.000356  0.908667  0.002  0.294768  0.398775  0.001053  0.937229  0.003
H  H31  1  0.30466657  0.15069135  0.31388323  1  0.439001  -7e-05  0.861361  0.001  0.407224  0.00071  0.925182  0.002  0.418834  0.000355  0.908469  0.002  0.294802  0.39894  0.001052  0.937037  0.003
H  H32  1  0.81611134  0.07001763  0.06713192  1  0.42105  5.9e-05  0.888337  0.002  0.387961  0.000918  0.95631  0.003  0.399054  0.000528  0.940444  0.002  0.291567  0.379993  0.001322  0.967627  0.003
H  H33  1  0.68388544  0.92997216  0.56713711  1  0.421162  5.7e-05  0.888239  0.002  0.388077  0.000917  0.95621  0.003  0.399173  0.000527  0.940339  0.002  0.291668  0.380114  0.00132  0.967521  0.003
H  H34  1  0.18389369  0.92997468  0.93286095  1  0.42106  5.7e-05  0.888346  0.002  0.388037  0.000918  0.956245  0.003  0.399134  0.000527  0.940372  0.002  0.291597  0.380069  0.001321  0.967561  0.003
H  H35  1  0.31611140  0.07002703  0.43286234  1  0.421151  5.8e-05  0.888248  0.002  0.388073  0.000918  0.956219  0.003  0.399172  0.000527  0.940342  0.002  0.291639  0.380109  0.001321  0.967531  0.003
H  H36  1  0.38893960  0.40262731  0.07235499  1  0.432046  -0.000221  0.806869  0.0  0.415171  0.00063  0.861466  0.001  0.424082  0.000248  0.85134  0.001  0.328074  0.408503  0.001037  0.8692  0.001
H  H37  1  0.11105643  0.59736664  0.57235881  1  0.432128  -0.00022  0.806793  0.0  0.415258  0.00063  0.861377  0.001  0.42417  0.000248  0.851251  0.001  0.328087  0.408587  0.001037  0.869112  0.001
H  H38  1  0.61105340  0.59736870  0.92764446  1  0.432103  -0.000218  0.806819  0.0  0.415235  0.00063  0.861404  0.001  0.424146  0.000248  0.851279  0.001  0.3281  0.408566  0.001037  0.869137  0.001
H  H39  1  0.88894331  0.40262585  0.42764805  1  0.432028  -0.00022  0.806855  0.0  0.415141  0.00063  0.86148  0.001  0.424056  0.000248  0.851347  0.001  0.328038  0.408471  0.001037  0.869215  0.001
H  H40  1  0.23205999  0.51311230  0.03357459  1  0.411983  -0.000504  0.890562  0.0  0.379816  0.000476  0.961707  0.001  0.390744  0.000123  0.945517  0.0  0.29876  0.371988  0.000849  0.97331  0.001
H  H41  1  0.26793892  0.48688251  0.53358756  1  0.412031  -0.000504  0.890554  0.0  0.379879  0.000477  0.961638  0.001  0.390812  0.000124  0.94544  0.0  0.298772  0.372054  0.000849  0.973241  0.001
H  H42  1  0.76793962  0.48688350  0.96641828  1  0.411976  -0.000503  0.890582  0.0  0.379821  0.000476  0.961694  0.001  0.390749  0.000123  0.945503  0.0  0.29877  0.371996  0.000849  0.973294  0.001
H  H43  1  0.73206074  0.51311218  0.46642259  1  0.411927  -0.000502  0.890582  0.0  0.379786  0.000477  0.961735  0.001  0.390712  0.000123  0.945549  0.0  0.298754  0.371966  0.000849  0.973329  0.001
C  C44  1  0.00514770  0.58437094  0.17130080  1  0.73669  0.013198  3.789329  0.013  0.682532  0.021179  4.090329  0.019  0.718381  0.015882  4.083079  0.015  0.231219  0.657051  0.027119  4.09448  0.024
C  C45  1  0.49487025  0.41565241  0.67129483  1  0.737168  0.013165  3.790433  0.013  0.682858  0.021135  4.091655  0.019  0.718691  0.015846  4.084409  0.015  0.231117  0.657391  0.027057  4.095799  0.024
C  C46  1  0.99487301  0.41562527  0.82870770  1  0.737448  0.013188  3.789628  0.013  0.683032  0.021148  4.091019  0.019  0.71887  0.015861  4.083771  0.015  0.231224  0.657567  0.027078  4.095163  0.024
C  C47  1  0.50514057  0.58436062  0.32869886  1  0.737125  0.013202  3.789695  0.013  0.682771  0.021165  4.090975  0.019  0.718612  0.01587  4.083729  0.015  0.231283  0.657312  0.027099  4.095115  0.024
C  C48  1  0.96376739  0.67538348  0.27313405  1  -0.279249  0.000913  3.677778  0.001  -0.314854  0.001877  3.929456  0.001  -0.322072  0.001142  3.938799  0.001  -0.164994  -0.309752  0.002652  3.923179  0.002
C  C49  1  0.53624261  0.32463642  0.77314487  1  -0.279587  0.000942  3.677639  0.001  -0.315219  0.001876  3.929421  0.001  -0.322424  0.001143  3.938755  0.001  -0.165051  -0.310125  0.002652  3.923153  0.002
C  C50  1  0.03623908  0.32463960  0.72686375  1  -0.279778  0.000894  3.677714  0.001  -0.315367  0.001876  3.929567  0.001  -0.322577  0.001141  3.938896  0.001  -0.165124  -0.310273  0.002651  3.923296  0.002
C  C51  1  0.46376838  0.67537221  0.22687022  1  -0.279399  0.000843  3.677702  0.001  -0.314945  0.001877  3.929437  0.001  -0.322155  0.00114  3.93877  0.001  -0.164969  -0.309841  0.002652  3.923142  0.002
C  C52  1  0.90743025  0.83922871  0.26082832  1  -0.051396  0.000672  3.67183  0.001  -0.098706  0.001144  3.936274  0.001  -0.097389  0.000745  3.948992  0.001  -0.164163  -0.099395  0.001626  3.927385  0.002
C  C53  1  0.59257426  0.16076491  0.76084681  1  -0.051209  0.000652  3.671811  0.001  -0.098373  0.001144  3.936106  0.001  -0.097062  0.000746  3.948831  0.001  -0.16408  -0.099074  0.001625  3.927239  0.002
C  C54  1  0.09256830  0.16076051  0.73915221  1  -0.05102  0.000692  3.671695  0.001  -0.098327  0.001145  3.936078  0.001  -0.097015  0.000748  3.948803  0.001  -0.164007  -0.099004  0.001626  3.92717  0.002
C  C55  1  0.40742275  0.83922987  0.23916663  1  -0.051303  0.000645  3.671963  0.001  -0.098531  0.001144  3.936322  0.001  -0.097216  0.000746  3.949049  0.001  -0.164106  -0.099209  0.001626  3.927417  0.002
C  C56  1  0.88925686  0.90447870  0.37669597  1  -0.283197  -0.001407  3.667551  -0.001  -0.317669  -0.000364  3.917958  0.0  -0.324308  -0.000733  3.925935  -0.001  -0.166457  -0.312946  0.000124  3.912586  0.0
C  C57  1  0.61075079  0.09551529  0.87671261  1  -0.283235  -0.001406  3.668092  -0.001  -0.317793  -0.000363  3.918643  0.0  -0.324419  -0.000735  3.926585  -0.001  -0.166558  -0.313122  0.000125  3.913296  0.0
C  C58  1  0.11073892  0.09551392  0.62328209  1  -0.283439  -0.001415  3.668154  -0.001  -0.317759  -0.000363  3.9185  0.0  -0.324389  -0.000736  3.926414  -0.001  -0.166645  -0.313073  0.000124  3.913207  0.0
C  C59  1  0.38925266  0.90448368  0.12330576  1  -0.283369  -0.001369  3.667964  -0.001  -0.317989  -0.000363  3.918502  0.0  -0.324633  -0.000736  3.92647  -0.001  -0.166639  -0.313297  0.000124  3.913138  0.0
C  C60  1  0.77855625  0.04711936  0.39157392  1  0.704691  0.004321  3.808494  0.003  0.650934  0.008173  4.10932  0.006  0.684568  0.006452  4.10432  0.005  0.221067  0.627717  0.009952  4.11157  0.007
C  C61  1  0.72141919  0.95288563  0.89156918  1  0.704816  0.004324  3.80834  0.003  0.651073  0.008173  4.109157  0.006  0.684708  0.006453  4.104155  0.005  0.221165  0.627849  0.009954  4.111418  0.007
C  C62  1  0.22141650  0.95288831  0.60841977  1  0.705055  0.004328  3.808007  0.003  0.651252  0.008173  4.108843  0.006  0.684899  0.006452  4.103834  0.005  0.221328  0.628033  0.009953  4.111093  0.007
C  C63  1  0.27856294  0.04711843  0.10843685  1  0.704788  0.004329  3.808331  0.003  0.651222  0.008172  4.10896  0.006  0.684864  0.006453  4.103955  0.005  0.221288  0.628005  0.009952  4.111216  0.007
O  O64  1  0.98884326  0.44693637  0.17918040  1  -0.641971  0.036928  1.990979  0.025  -0.579119  0.044568  2.252415  0.028  -0.608903  0.038837  2.236411  0.023  -0.309708  -0.557274  0.050553  2.263239  0.034
O  O65  1  0.51118636  0.55303740  0.67918359  1  -0.642002  0.0369  1.991809  0.025  -0.579051  0.04455  2.253309  0.028  -0.608822  0.038822  2.237309  0.023  -0.309613  -0.557213  0.050529  2.264122  0.034
O  O66  1  0.01118872  0.55304187  0.82081658  1  -0.642279  0.036921  1.990908  0.025  -0.579264  0.044562  2.252409  0.028  -0.609046  0.03883  2.236411  0.023  -0.309776  -0.557416  0.050544  2.263218  0.034
O  O67  1  0.48883470  0.44694999  0.32082245  1  -0.642045  0.03692  1.991535  0.025  -0.579093  0.044562  2.253039  0.028  -0.608871  0.038833  2.237039  0.023  -0.309675  -0.55725  0.050544  2.26385  0.034
O  O68  1  0.06453321  0.64620319  0.08448240  1  -0.708903  0.033382  2.046485  0.017  -0.626122  0.043624  2.307892  0.024  -0.65828  0.038435  2.291964  0.019  -0.319209  -0.602179  0.048624  2.318561  0.028
O  O69  1  0.43548412  0.35381763  0.58450362  1  -0.709104  0.033383  2.04715  0.017  -0.62632  0.043631  2.308697  0.024  -0.658483  0.038443  2.292782  0.019  -0.319173  -0.602376  0.048632  2.31936  0.028
O  O70  1  0.93549197  0.35381378  0.91550389  1  -0.70909  0.033376  2.047151  0.017  -0.626213  0.043622  2.308589  0.024  -0.658363  0.038433  2.29266  0.019  -0.319121  -0.602297  0.048623  2.319278  0.028
O  O71  1  0.56453198  0.64619523  0.41551311  1  -0.709055  0.033374  2.046471  0.017  -0.626239  0.043627  2.308019  0.024  -0.658392  0.038437  2.292084  0.019  -0.319298  -0.602353  0.048631  2.318735  0.028
O  O72  1  0.74699900  0.14038424  0.31480487  1  -0.639613  0.021269  1.984055  0.014  -0.568941  0.02879  2.214697  0.02  -0.597753  0.025139  2.202143  0.017  -0.290071  -0.547754  0.031947  2.22277  0.023
O  O73  1  0.75299963  0.85961529  0.81481381  1  -0.639578  0.021272  1.984467  0.014  -0.568901  0.028789  2.215116  0.02  -0.597714  0.025139  2.202562  0.017  -0.290005  -0.547713  0.031944  2.223187  0.023
O  O74  1  0.25298612  0.85961092  0.68517154  1  -0.639735  0.021275  1.984285  0.014  -0.569008  0.028789  2.214927  0.02  -0.597821  0.025141  2.202364  0.017  -0.29008  -0.547818  0.031945  2.222996  0.023
O  O75  1  0.24699206  0.14038076  0.18519634  1  -0.639536  0.021268  1.984344  0.014  -0.568949  0.028792  2.214936  0.02  -0.597759  0.025141  2.202375  0.017  -0.290115  -0.547764  0.031947  2.223011  0.023
O  O76  1  0.71308395  0.07578651  0.48794550  1  -0.67613  0.026878  2.013005  0.017  -0.602967  0.03176  2.259911  0.019  -0.634957  0.028464  2.248646  0.016  -0.309024  -0.579454  0.034938  2.266993  0.022
O  O77  1  0.78691578  0.92422138  0.98795613  1  -0.676269  0.026877  2.012293  0.017  -0.60309  0.03176  2.259198  0.019  -0.635074  0.028463  2.247918  0.016  -0.309095  -0.579581  0.034937  2.2663  0.022
O  O78  1  0.28690352  0.92421628  0.51203585  1  -0.676256  0.026876  2.012091  0.017  -0.603162  0.031764  2.259142  0.019  -0.635185  0.028467  2.24789  0.016  -0.309166  -0.579646  0.034943  2.266224  0.022
O  O79  1  0.21308506  0.07577657  0.01205484  1  -0.676154  0.026874  2.012509  0.017  -0.60316  0.031759  2.259463  0.019  -0.635161  0.028464  2.248195  0.016  -0.309105  -0.579648  0.034938  2.266556  0.022
O  O80  1  0.83383902  0.16459396  0.10649363  1  -0.866747  0.037364  1.874915  0.025  -0.804542  0.046177  2.090051  0.03  -0.830684  0.040647  2.051749  0.025  -0.582464  -0.784662  0.051282  2.117059  0.034
O  O81  1  0.66614882  0.83541499  0.60649125  1  -0.866848  0.037364  1.874912  0.025  -0.804612  0.046171  2.090071  0.03  -0.830749  0.040641  2.051765  0.025  -0.582478  -0.784741  0.051275  2.117072  0.034
O  O82  1  0.16615893  0.83541070  0.89349924  1  -0.866643  0.037361  1.875099  0.025  -0.804464  0.046172  2.090149  0.03  -0.830606  0.040642  2.051845  0.025  -0.58241  -0.784592  0.051277  2.117156  0.034
O  O83  1  0.33384243  0.16459208  0.39351149  1  -0.866845  0.037368  1.874921  0.025  -0.804683  0.046178  2.089936  0.03  -0.830825  0.040647  2.051624  0.025  -0.582486  -0.784803  0.051281  2.116941  0.034
O  O84  1  0.29435595  0.41517847  0.01800202  1  -0.813772  0.023653  1.842816  0.014  -0.765183  0.033366  2.036325  0.02  -0.786022  0.029668  2.005794  0.018  -0.553452  -0.74967  0.036744  2.058307  0.023
O  O85  1  0.20564435  0.58481733  0.51800799  1  -0.813921  0.023655  1.842797  0.014  -0.7653  0.033368  2.036219  0.02  -0.78614  0.029669  2.005675  0.018  -0.553448  -0.749788  0.036745  2.058204  0.023
O  O86  1  0.70564481  0.58482169  0.98199332  1  -0.813827  0.023647  1.842818  0.014  -0.765263  0.033367  2.036336  0.02  -0.786101  0.02967  2.0058  0.018  -0.553479  -0.749751  0.036744  2.058318  0.023
O  O87  1  0.79434874  0.41517648  0.48199475  1  -0.813713  0.023651  1.842853  0.014  -0.765102  0.033368  2.03639  0.02  -0.785943  0.029669  2.005861  0.018  -0.553398  -0.749586  0.036745  2.058361  0.023
