# generated using pymatgen
data_CuH14C19(NO)4
_symmetry_space_group_name_H-M   'P 1'
_cell_length_a   8.34699314
_cell_length_b   13.08660322
_cell_length_c   20.53154236
_cell_angle_alpha   90.00029296
_cell_angle_beta   90.00032611
_cell_angle_gamma   104.51533302
_symmetry_Int_Tables_number   1
_chemical_formula_structural   CuH14C19(NO)4
_chemical_formula_sum   'Cu4 H56 C76 N16 O16'
_cell_volume   2171.15127633
_cell_formula_units_Z   4
loop_
 _symmetry_equiv_pos_site_id
 _symmetry_equiv_pos_as_xyz
  1  'x, y, z'
loop_
 _atom_site_type_symbol
 _atom_site_label
 _atom_site_symmetry_multiplicity
 _atom_site_fract_x
 _atom_site_fract_y
 _atom_site_fract_z
 _atom_site_occupancy
 _atom_site_pbe_bader_charge
 _atom_site_pbe_bader_spin_density
 _atom_site_pbe_cm5_charge
 _atom_site_pbe_ddec_charge
 _atom_site_pbe_ddec_spin_density
 _atom_site_pbe_ddec_sum_bond_order
 _atom_site_pbe_magmom
Cu  Cu0  1  0.94869902  0.79491708  0.01198355  1  1.045798  -0.561088  0.731022  0.774523  -0.744502  2.243594  -0.559
Cu  Cu1  1  0.05130725  0.70507914  0.51198440  1  1.045784  0.561079  0.73105  0.774521  0.744497  2.243512  0.559
Cu  Cu2  1  0.05130264  0.20508218  0.98801671  1  1.045881  -0.561078  0.7311  0.77458  -0.744492  2.243554  -0.559
Cu  Cu3  1  0.94869376  0.29491855  0.48801684  1  1.045684  0.561084  0.730996  0.774496  0.744501  2.243633  0.559
H  H4  1  0.67643260  0.31945639  0.97132096  1  0.488458  -0.000821  0.347661  0.319772  -0.000483  0.877755  -0.001
H  H5  1  0.32354892  0.18055167  0.47131617  1  0.488203  0.000821  0.347627  0.319817  0.000483  0.877645  0.001
H  H6  1  0.32355183  0.68055334  0.02867492  1  0.488225  -0.000821  0.347653  0.319813  -0.000483  0.87763  -0.001
H  H7  1  0.67644525  0.81944687  0.52868263  1  0.48827  0.000822  0.347688  0.319922  0.000483  0.877565  0.001
H  H8  1  0.15413428  0.00971025  0.07662918  1  0.200275  -0.000192  0.143672  0.1258  -1e-05  1.012129  0.0
H  H9  1  0.84587023  0.49028193  0.57662449  1  0.200275  0.000191  0.143674  0.125788  9e-06  1.012178  0.0
H  H10  1  0.84587812  0.99028891  0.92337644  1  0.200367  -0.000191  0.14368  0.125829  -1e-05  1.012107  0.0
H  H11  1  0.15413607  0.50970541  0.42337285  1  0.200373  0.000192  0.14367  0.125763  1e-05  1.012176  0.0
H  H12  1  0.21138030  0.87626737  0.89348477  1  0.124332  -0.000683  0.126371  0.124299  -0.000271  0.993139  -0.001
H  H13  1  0.78864504  0.62373980  0.39348333  1  0.124353  0.000684  0.126355  0.124288  0.000271  0.993125  0.001
H  H14  1  0.78864176  0.12373487  0.10652036  1  0.124117  -0.000684  0.126358  0.124251  -0.000271  0.993078  -0.001
H  H15  1  0.21136402  0.37627445  0.60652229  1  0.124193  0.000683  0.126381  0.124288  0.00027  0.993139  0.001
H  H16  1  0.44424726  0.06942259  0.90504872  1  0.13537  -0.001037  0.135404  0.141747  -0.000539  0.966986  -0.001
H  H17  1  0.55575387  0.43059189  0.40504211  1  0.13546  0.001037  0.135406  0.141814  0.000539  0.966899  0.001
H  H18  1  0.55575886  0.93058455  0.09495495  1  0.135355  -0.001037  0.135434  0.141793  -0.000539  0.966966  -0.001
H  H19  1  0.44424836  0.56942321  0.59495474  1  0.135283  0.001037  0.135426  0.141831  0.000539  0.966948  0.001
H  H20  1  0.55087355  0.15954352  0.03670794  1  0.07716  2e-06  0.114818  0.106115  2e-06  1.012837  0.0
H  H21  1  0.44911179  0.34047324  0.53669591  1  0.077323  -2e-06  0.114827  0.106182  -2e-06  1.012913  0.0
H  H22  1  0.44912662  0.84047240  0.96329379  1  0.076974  2e-06  0.114802  0.106145  2e-06  1.012953  0.0
H  H23  1  0.55088359  0.65953400  0.46329753  1  0.077368  -2e-06  0.11479  0.106152  -2e-06  1.012954  0.0
H  H24  1  0.36419597  0.17097348  0.07621086  1  0.181568  0.000157  0.132497  0.148347  8.6e-05  0.990615  0.0
H  H25  1  0.63578213  0.32903873  0.57620946  1  0.181658  -0.000158  0.132469  0.148257  -8.6e-05  0.990745  0.0
H  H26  1  0.63580397  0.82903609  0.92378843  1  0.181117  0.000158  0.13248  0.148359  8.6e-05  0.990657  0.0
H  H27  1  0.36420782  0.67096698  0.42378885  1  0.181587  -0.000157  0.132456  0.148269  -8.6e-05  0.990718  0.0
H  H28  1  0.11422117  0.43087998  0.91504050  1  0.092492  -0.000163  0.105233  0.120085  -4.4e-05  1.02384  0.0
H  H29  1  0.88575507  0.06912249  0.41503714  1  0.092851  0.000163  0.105203  0.119917  4.4e-05  1.024126  0.0
H  H30  1  0.88575067  0.56912827  0.08497340  1  0.092821  -0.000163  0.10525  0.120004  -4.4e-05  1.023986  0.0
H  H31  1  0.11423985  0.93087208  0.58497092  1  0.092715  0.000163  0.10523  0.119955  4.4e-05  1.02401  0.0
H  H32  1  0.27543559  0.59815624  0.86204409  1  0.080643  -1.5e-05  0.095873  0.098513  -8e-06  1.034074  0.0
H  H33  1  0.72453954  0.90183973  0.36204515  1  0.08103  1.6e-05  0.095921  0.098547  8e-06  1.034016  0.0
H  H34  1  0.72453016  0.40184891  0.13796445  1  0.081171  -1.6e-05  0.095861  0.0985  -8e-06  1.034028  0.0
H  H35  1  0.27546167  0.09815558  0.63796144  1  0.081061  1.5e-05  0.095887  0.098539  8e-06  1.034029  0.0
H  H36  1  0.58102059  0.64135339  0.85656356  1  0.093362  1.5e-05  0.101393  0.106348  1.6e-05  1.006614  0.0
H  H37  1  0.41894973  0.85863287  0.35657424  1  0.088004  -1.5e-05  0.101317  0.106391  -1.6e-05  1.006501  0.0
H  H38  1  0.41893537  0.35863679  0.14342404  1  0.088005  1.5e-05  0.101286  0.106382  1.6e-05  1.006543  0.0
H  H39  1  0.58105202  0.14136084  0.64342992  1  0.088028  -1.5e-05  0.101329  0.106418  -1.6e-05  1.006455  0.0
H  H40  1  0.73804142  0.52169851  0.90550901  1  0.084058  -0.000457  0.104134  0.116711  -0.000221  1.045475  0.0
H  H41  1  0.26193623  0.97828824  0.40552304  1  0.083794  0.000457  0.104099  0.116558  0.000222  1.045644  0.0
H  H42  1  0.26193690  0.47829067  0.09446641  1  0.083935  -0.000457  0.104032  0.116484  -0.000222  1.045705  0.0
H  H43  1  0.73806053  0.02169918  0.59448502  1  0.083809  0.000457  0.104064  0.116564  0.000221  1.04561  0.0
H  H44  1  0.98552197  0.54728603  0.88445063  1  0.078234  -0.000516  0.102456  0.099905  -0.000452  1.024578  0.0
H  H45  1  0.01446483  0.95272189  0.38444869  1  0.078189  0.000517  0.102474  0.1  0.000452  1.024438  0.0
H  H46  1  0.01448559  0.45273615  0.11555645  1  0.078224  -0.000517  0.102461  0.100011  -0.000452  1.024548  0.0
H  H47  1  0.98553827  0.04729241  0.61554134  1  0.079353  0.000516  0.102522  0.100049  0.000452  1.024517  0.0
H  H48  1  0.01829459  0.43186967  0.79204308  1  0.093251  -1.6e-05  0.101335  0.104628  -1.1e-05  1.022732  0.0
H  H49  1  0.98167221  0.06811959  0.29203648  1  0.093753  1.6e-05  0.101214  0.104535  1.1e-05  1.022704  0.0
H  H50  1  0.98170599  0.56813277  0.20796838  1  0.093905  -1.6e-05  0.101267  0.104602  -1.1e-05  1.022723  0.0
H  H51  1  0.01835430  0.93188181  0.70794479  1  0.093257  1.5e-05  0.101236  0.104588  1e-05  1.022725  0.0
H  H52  1  0.01840439  0.49934884  0.67803701  1  0.106402  0.000345  0.100342  0.107233  0.000327  1.02619  0.0
H  H53  1  0.98156159  0.00063229  0.17803240  1  0.10667  -0.000346  0.100331  0.107257  -0.000327  1.026064  0.0
H  H54  1  0.98158988  0.50064416  0.32197104  1  0.106254  0.000346  0.100362  0.107301  0.000327  1.026136  0.0
H  H55  1  0.01847661  0.99935395  0.82195374  1  0.106471  -0.000346  0.10028  0.107182  -0.000327  1.0262  0.0
H  H56  1  0.90791369  0.78288034  0.75114598  1  0.10458  -1.7e-05  0.104319  0.111441  -3e-06  1.027973  0.0
H  H57  1  0.09210214  0.71712149  0.25115184  1  0.104443  1.7e-05  0.104328  0.111432  3e-06  1.02799  0.0
H  H58  1  0.09209351  0.21712362  0.24884795  1  0.104474  -1.7e-05  0.104313  0.111407  -3e-06  1.027918  0.0
H  H59  1  0.90790938  0.28286976  0.74885573  1  0.104765  1.7e-05  0.104298  0.111301  3e-06  1.027999  0.0
C  C60  1  0.20186565  0.99616955  0.02920093  1  0.97086  0.001495  0.145865  0.089566  0.000554  3.905937  0.0
C  C61  1  0.79814713  0.50382815  0.52919550  1  0.971083  -0.001495  0.1459  0.089508  -0.000554  3.905804  0.0
C  C62  1  0.79814600  0.00383358  0.97080322  1  0.970955  0.001496  0.145889  0.089516  0.000554  3.905974  0.0
C  C63  1  0.20186331  0.49616627  0.47080184  1  0.970968  -0.001495  0.145879  0.089637  -0.000554  3.9059  0.0
C  C64  1  0.23577479  0.93165829  0.93359796  1  0.379242  -0.001252  0.002933  -0.019088  -0.001494  3.990535  -0.001
C  C65  1  0.76424752  0.56834591  0.43359402  1  0.378616  0.001252  0.002956  -0.019076  0.001494  3.990387  0.001
C  C66  1  0.76424456  0.06834318  0.06640717  1  0.379081  -0.001253  0.002953  -0.018979  -0.001494  3.990299  -0.001
C  C67  1  0.23576012  0.43166202  0.56640868  1  0.379283  0.001253  0.002921  -0.019071  0.001494  3.990352  0.001
C  C68  1  0.35147782  0.02654689  0.93869210  1  0.322271  -0.00327  0.009687  -0.08953  -0.002265  3.891133  -0.002
C  C69  1  0.64853213  0.47346027  0.43868593  1  0.322204  0.00327  0.009694  -0.08963  0.002266  3.890851  0.002
C  C70  1  0.64853448  0.97345782  0.06131205  1  0.322319  -0.003269  0.009595  -0.089694  -0.002266  3.891102  -0.002
C  C71  1  0.35147193  0.52654769  0.56131287  1  0.322313  0.00327  0.009593  -0.089644  0.002266  3.890999  0.002
C  C72  1  0.42281455  0.16421497  0.02886425  1  0.310106  -0.001527  -0.03928  -0.184519  -0.000991  3.919797  -0.001
C  C73  1  0.57717134  0.33579590  0.52885884  1  0.30982  0.001526  -0.03927  -0.184526  0.00099  3.919809  0.001
C  C74  1  0.57718268  0.83579384  0.97113601  1  0.310812  -0.001526  -0.039247  -0.184533  -0.00099  3.919789  -0.001
C  C75  1  0.42282512  0.66420817  0.47113752  1  0.310019  0.001526  -0.039224  -0.184457  0.00099  3.920049  0.001
C  C76  1  0.41952550  0.25874257  0.98921659  1  1.009171  0.000244  0.233006  0.340567  -0.00072  3.983258  -0.001
C  C77  1  0.58045576  0.24126231  0.48921473  1  1.00936  -0.000243  0.23303  0.340599  0.00072  3.983245  0.001
C  C78  1  0.58045914  0.74126477  0.01078269  1  1.009456  0.000245  0.232959  0.340466  -0.00072  3.983184  -0.001
C  C79  1  0.41954199  0.75873619  0.51078504  1  1.009092  -0.000243  0.233073  0.340595  0.00072  3.983187  0.001
C  C80  1  0.33753633  0.38476029  0.94029948  1  0.422382  -0.000373  0.090635  0.150952  -0.000543  4.035069  0.0
C  C81  1  0.66244031  0.11523616  0.44030286  1  0.422269  0.000374  0.090491  0.150962  0.000543  4.035124  0.0
C  C82  1  0.66243886  0.61524160  0.05969883  1  0.422236  -0.000375  0.09049  0.150864  -0.000544  4.034987  0.0
C  C83  1  0.33755298  0.88475446  0.55970423  1  0.422534  0.000374  0.090464  0.150848  0.000543  4.034842  0.0
C  C84  1  0.24899892  0.45219993  0.91345611  1  0.018473  -0.000888  -0.093082  -0.161298  -0.00053  3.976926  -0.001
C  C85  1  0.75097762  0.04780010  0.41345664  1  0.018475  0.000888  -0.09298  -0.161094  0.00053  3.976908  0.001
C  C86  1  0.75097248  0.54780436  0.08654756  1  0.018473  -0.000888  -0.093179  -0.161237  -0.00053  3.976771  -0.001
C  C87  1  0.24901849  0.95219446  0.58654752  1  0.018328  0.000888  -0.09313  -0.161189  0.00053  3.976955  0.001
C  C88  1  0.34033790  0.54411409  0.88380669  1  -0.048946  0.000383  -0.101991  -0.099285  0.000227  4.040724  0.0
C  C89  1  0.65963794  0.95587885  0.38381119  1  -0.049236  -0.000382  -0.102043  -0.099339  -0.000227  4.040637  0.0
C  C90  1  0.65963164  0.45588864  0.11619650  1  -0.049231  0.000383  -0.101878  -0.099252  0.000227  4.040696  0.0
C  C91  1  0.34036012  0.04411173  0.61619687  1  -0.049218  -0.000383  -0.101918  -0.099314  -0.000227  4.040708  0.0
C  C92  1  0.51454368  0.56884358  0.88062068  1  -0.076541  -0.000389  -0.097019  -0.081818  -0.000249  4.013677  0.0
C  C93  1  0.48543472  0.93114048  0.38063090  1  -0.072208  0.000389  -0.096959  -0.081847  0.000249  4.013575  0.0
C  C94  1  0.48542628  0.43114567  0.11937033  1  -0.072634  -0.000389  -0.096913  -0.081826  -0.000249  4.013554  0.0
C  C95  1  0.51456475  0.06884771  0.61937813  1  -0.071834  0.000389  -0.096964  -0.081848  0.000249  4.013509  0.0
C  C96  1  0.60385129  0.50241248  0.90717425  1  0.038356  -0.00026  -0.093893  -0.160669  -0.000218  3.990393  0.0
C  C97  1  0.39612691  0.99757592  0.40718342  1  0.038177  0.000261  -0.093873  -0.160524  0.000218  3.990342  0.0
C  C98  1  0.39612746  0.49758066  0.09281286  1  0.038493  -0.000261  -0.093791  -0.160388  -0.000218  3.990305  0.0
C  C99  1  0.60386930  0.00241309  0.59282464  1  0.037879  0.00026  -0.09386  -0.160573  0.000218  3.990475  0.0
C  C100  1  0.51247552  0.41015796  0.93637656  1  0.280279  -0.003727  0.098303  0.15442  -0.002541  4.024974  -0.003
C  C101  1  0.48750057  0.08983356  0.43638273  1  0.281491  0.003726  0.098485  0.154475  0.002541  4.024877  0.003
C  C102  1  0.48750141  0.58984232  0.06361786  1  0.281359  -0.003726  0.098482  0.154413  -0.002541  4.025027  -0.003
C  C103  1  0.51249292  0.91015468  0.56362630  1  0.281398  0.003726  0.098505  0.154542  0.002541  4.025043  0.003
C  C104  1  0.92187376  0.73903074  0.88059555  1  1.541049  0.001939  0.194619  0.557617  0.000523  4.23435  0.004
C  C105  1  0.07812931  0.76097528  0.38059709  1  1.540401  -0.001939  0.194712  0.557677  -0.000522  4.234479  -0.004
C  C106  1  0.07812337  0.26098362  0.11939985  1  1.539825  0.001941  0.194864  0.557946  0.000524  4.233928  0.004
C  C107  1  0.92187356  0.23903269  0.61940414  1  1.541073  -0.001939  0.19458  0.557584  -0.000523  4.234471  -0.004
C  C108  1  0.94543413  0.67198286  0.82376370  1  -0.048662  -0.00803  -0.023974  -0.046093  -0.005839  3.995601  -0.006
C  C109  1  0.05456619  0.82802070  0.32376481  1  -0.047858  0.008032  -0.024011  -0.046097  0.00584  3.995771  0.006
C  C110  1  0.05456852  0.32802749  0.17623413  1  -0.048207  -0.008033  -0.023996  -0.045982  -0.00584  3.995508  -0.006
C  C111  1  0.94543558  0.17198173  0.67623399  1  -0.048855  0.008032  -0.023963  -0.046128  0.00584  3.995717  0.006
C  C112  1  0.97704272  0.57314511  0.83446191  1  -0.040569  -0.00022  -0.085467  -0.094748  -0.000304  3.99359  0.0
C  C113  1  0.02294820  0.92685505  0.33446245  1  -0.040599  0.000221  -0.08548  -0.094855  0.000305  3.99359  0.0
C  C114  1  0.02296113  0.42686522  0.16554127  1  -0.04007  -0.00022  -0.085496  -0.09496  -0.000304  3.993595  0.0
C  C115  1  0.97705998  0.07315129  0.66553002  1  -0.041899  0.000222  -0.085445  -0.094772  0.000305  3.993598  0.0
C  C116  1  0.99836695  0.50963290  0.78244699  1  -0.040489  -8.5e-05  -0.090563  -0.083503  -6.6e-05  4.003435  0.0
C  C117  1  0.00161540  0.99036030  0.28244378  1  -0.041243  8.5e-05  -0.090497  -0.083422  6.6e-05  4.003363  0.0
C  C118  1  0.00163786  0.49037108  0.21756106  1  -0.041477  -8.5e-05  -0.090579  -0.083504  -6.6e-05  4.003278  0.0
C  C119  1  0.99840351  0.00963721  0.71754284  1  -0.056379  8.4e-05  -0.090546  -0.083626  6.6e-05  4.003457  0.0
C  C120  1  0.99740294  0.54719604  0.71901601  1  -0.018219  0.000797  -0.08081  -0.07978  0.000668  3.936166  0.0
C  C121  1  0.00257844  0.95279203  0.21901435  1  -0.018098  -0.000797  -0.080776  -0.079868  -0.000668  3.936207  0.0
C  C122  1  0.00259893  0.45280084  0.28099010  1  -0.01792  0.000797  -0.080788  -0.079909  0.000668  3.93609  0.0
C  C123  1  0.99745119  0.04719667  0.78097471  1  -0.001922  -0.000794  -0.080665  -0.079429  -0.000667  3.935953  0.0
C  C124  1  0.96806360  0.64683738  0.70747325  1  -0.033221  0.007458  -0.021573  -0.030371  0.005497  3.966771  0.006
C  C125  1  0.03193668  0.85315952  0.20747360  1  -0.033517  -0.007459  -0.021497  -0.030116  -0.005498  3.966503  -0.006
C  C126  1  0.03193675  0.35315873  0.29252506  1  -0.033227  0.007459  -0.02143  -0.030059  0.005497  3.966601  0.006
C  C127  1  0.96808525  0.14683084  0.79252325  1  -0.033306  -0.007458  -0.02154  -0.030498  -0.005496  3.966922  -0.006
C  C128  1  0.93675640  0.70739479  0.75986655  1  -0.060143  0.00077  -0.078477  -0.10814  0.000542  3.926904  0.001
C  C129  1  0.06325144  0.79260670  0.25986785  1  -0.059919  -0.00077  -0.078479  -0.10817  -0.000542  3.927025  -0.001
C  C130  1  0.06324722  0.29260921  0.24012982  1  -0.060227  0.00077  -0.078456  -0.108166  0.000542  3.926981  0.001
C  C131  1  0.93675259  0.20738382  0.74013241  1  -0.060507  -0.00077  -0.078544  -0.107937  -0.000541  3.927123  -0.001
C  C132  1  0.97505560  0.68902690  0.63918830  1  1.510221  -0.000973  0.1905  0.558093  0.000469  4.222609  -0.003
C  C133  1  0.02494366  0.81096385  0.13918722  1  1.510654  0.000968  0.190408  0.557859  -0.00047  4.222637  0.003
C  C134  1  0.02494365  0.31096367  0.36081099  1  1.51232  -0.000962  0.190458  0.557992  0.00047  4.222715  -0.003
C  C135  1  0.97507196  0.18901705  0.86080866  1  1.510478  0.000973  0.190336  0.557613  -0.000471  4.223472  0.003
N  N136  1  0.14395155  0.91338659  0.99042550  1  -1.196931  -0.074264  -0.376694  -0.305746  -0.051555  3.646613  -0.065
N  N137  1  0.85606991  0.58661138  0.49042136  1  -1.196829  0.074256  -0.376779  -0.305751  0.051549  3.646625  0.065
N  N138  1  0.85606715  0.08661330  0.00958012  1  -1.196979  -0.074255  -0.376716  -0.305686  -0.051548  3.6467  -0.065
N  N139  1  0.14394097  0.41338701  0.50957938  1  -1.197027  0.074267  -0.376689  -0.3057  0.051557  3.646417  0.065
N  N140  1  0.32826261  0.06596535  0.99946688  1  -1.22038  -0.001733  -0.241578  0.04738  -0.001068  3.804972  -0.002
N  N141  1  0.67174042  0.43403899  0.49946023  1  -1.220323  0.001732  -0.24156  0.047507  0.001068  3.804629  0.002
N  N142  1  0.67174340  0.93403863  0.00053679  1  -1.220303  -0.001733  -0.241556  0.047379  -0.001068  3.804992  -0.002
N  N143  1  0.32826547  0.56596182  0.50053516  1  -1.220448  0.001732  -0.241544  0.047287  0.001068  3.805131  0.002
N  N144  1  0.28441435  0.29007520  0.97392703  1  -1.169834  -0.073949  -0.360413  -0.377701  -0.051242  3.509421  -0.064
N  N145  1  0.71556527  0.20992586  0.47392792  1  -1.169447  0.073952  -0.360403  -0.377736  0.051245  3.509439  0.064
N  N146  1  0.71557083  0.70993056  0.02607371  1  -1.169785  -0.073955  -0.360332  -0.377571  -0.051247  3.509121  -0.064
N  N147  1  0.28442900  0.79006713  0.52607624  1  -1.169471  0.073947  -0.360297  -0.37751  0.051242  3.509043  0.064
N  N148  1  0.55909090  0.32806863  0.96711857  1  -1.253701  -0.002511  -0.365584  -0.305064  -0.001529  3.574695  -0.002
N  N149  1  0.44088694  0.17192977  0.46712027  1  -1.253901  0.002511  -0.365623  -0.305192  0.001529  3.574397  0.002
N  N150  1  0.44089059  0.67193399  0.03287585  1  -1.253856  -0.00251  -0.365665  -0.305117  -0.001529  3.574498  -0.002
N  N151  1  0.55910494  0.82806324  0.53288389  1  -1.253858  0.00251  -0.365779  -0.305392  0.001529  3.574701  0.002
O  O152  1  0.98063298  0.71367365  0.93536659  1  -1.119105  -0.115037  -0.347245  -0.567617  -0.07611  2.333119  -0.103
O  O153  1  0.01937187  0.78632920  0.43536872  1  -1.118926  0.115035  -0.347295  -0.567625  0.076108  2.333101  0.103
O  O154  1  0.01935959  0.28633837  0.06462928  1  -1.118254  -0.115045  -0.347434  -0.567878  -0.076117  2.332914  -0.103
O  O155  1  0.98063306  0.21367795  0.56463301  1  -1.119105  0.115045  -0.347212  -0.567545  0.076115  2.333132  0.103
O  O156  1  0.85261811  0.81293113  0.87351554  1  -1.18857  -0.001572  -0.330146  -0.572604  -0.000781  2.146907  -0.002
O  O157  1  0.14739058  0.68707849  0.37351596  1  -1.188756  0.001574  -0.330187  -0.572649  0.000782  2.147024  0.002
O  O158  1  0.14738087  0.18708480  0.12648180  1  -1.188885  -0.001574  -0.330232  -0.572731  -0.000783  2.146702  -0.002
O  O159  1  0.85261077  0.31292870  0.62648625  1  -1.18864  0.001572  -0.330134  -0.572613  0.000782  2.146898  0.002
O  O160  1  0.90856436  0.76136578  0.62327704  1  -1.179396  0.001428  -0.349766  -0.590497  0.000602  2.087508  0.002
O  O161  1  0.09142700  0.73862038  0.12327866  1  -1.178262  -0.001428  -0.34968  -0.590312  -0.000602  2.087644  -0.002
O  O162  1  0.09143120  0.23862165  0.37671835  1  -1.178269  0.001428  -0.349759  -0.590432  0.000602  2.087535  0.002
O  O163  1  0.90858069  0.26135584  0.87671770  1  -1.180134  -0.001428  -0.349793  -0.590381  -0.000602  2.087918  -0.002
O  O164  1  0.05684692  0.64377103  0.59909429  1  -1.09369  0.126975  -0.334554  -0.546035  0.083727  2.343415  0.114
O  O165  1  0.94316135  0.85622264  0.09909193  1  -1.095234  -0.126945  -0.33454  -0.546078  -0.083711  2.343661  -0.114
O  O166  1  0.94315863  0.35622028  0.40090694  1  -1.096776  0.12693  -0.334555  -0.546117  0.083705  2.343721  0.114
O  O167  1  0.05685689  0.14376458  0.90090882  1  -1.093013  -0.126972  -0.334392  -0.545754  -0.083726  2.343684  -0.114
