# generated using pymatgen
data_CdH6C7SN2O3
_symmetry_space_group_name_H-M   'P 1'
_cell_length_a   5.96422126
_cell_length_b   11.37434459
_cell_length_c   14.86159684
_cell_angle_alpha   90.00027775
_cell_angle_beta   89.99969341
_cell_angle_gamma   93.70742001
_symmetry_Int_Tables_number   1
_chemical_formula_structural   CdH6C7SN2O3
_chemical_formula_sum   'Cd4 H24 C28 S4 N8 O12'
_cell_volume   1006.08756731
_cell_formula_units_Z   4
loop_
 _symmetry_equiv_pos_site_id
 _symmetry_equiv_pos_as_xyz
  1  'x, y, z'
loop_
 _atom_site_type_symbol
 _atom_site_label
 _atom_site_symmetry_multiplicity
 _atom_site_fract_x
 _atom_site_fract_y
 _atom_site_fract_z
 _atom_site_occupancy
 _atom_site_hle17_bader_spin_density
 _atom_site_hle17_ddec_charge
 _atom_site_hle17_ddec_spin_density
 _atom_site_hle17_ddec_sum_bond_order
 _atom_site_hle17_magmom
 _atom_site_hse06_10hf_bader_spin_density
 _atom_site_hse06_10hf_ddec_charge
 _atom_site_hse06_10hf_ddec_spin_density
 _atom_site_hse06_10hf_ddec_sum_bond_order
 _atom_site_hse06_10hf_magmom
 _atom_site_hse06_bader_spin_density
 _atom_site_hse06_ddec_charge
 _atom_site_hse06_ddec_spin_density
 _atom_site_hse06_ddec_sum_bond_order
 _atom_site_hse06_magmom
 _atom_site_pbe_bader_spin_density
 _atom_site_pbe_cm5_charge
 _atom_site_pbe_ddec_charge
 _atom_site_pbe_ddec_spin_density
 _atom_site_pbe_ddec_sum_bond_order
 _atom_site_pbe_magmom
Cd  Cd0  1  0.82320803  0.70519045  0.98362891  1  0  1.069151  0  1.812827  0  0  0.891351  0  2.270543  0  0  0.941588  0  2.22362  0  0  0.742343  0.855981  0  2.302492  0
Cd  Cd1  1  0.32322499  0.20518688  0.51636985  1  0  1.069195  0  1.812794  0  0  0.891409  0  2.270498  0  0  0.941647  0  2.223574  0  0  0.74236  0.85604  0  2.302448  0
Cd  Cd2  1  0.17676220  0.29481334  0.01637141  1  0  1.069206  0  1.812768  0  0  0.891399  0  2.270479  0  0  0.941638  0  2.223556  0  0  0.742346  0.85603  0  2.302427  0
Cd  Cd3  1  0.67676633  0.79481156  0.48362980  1  0  1.069218  0  1.812686  0  0  0.891427  0  2.270379  0  0  0.941666  0  2.223456  0  0  0.742357  0.85606  0  2.302329  0
H  H4  1  0.68261292  0.95551485  0.90117741  1  0  0.064253  0  0.966848  0  0  0.065848  0  1.04537  0  0  0.068241  0  1.043904  0  0  0.103731  0.064155  0  1.046317  0
H  H5  1  0.18259808  0.45550744  0.59882862  1  0  0.06422  0  0.966906  0  0  0.065776  0  1.045465  0  0  0.068171  0  1.043983  0  0  0.103715  0.064085  0  1.046416  0
H  H6  1  0.31740048  0.04449853  0.09882694  1  0  0.06425  0  0.966895  0  0  0.065817  0  1.045417  0  0  0.068208  0  1.043947  0  0  0.103718  0.064128  0  1.046368  0
H  H7  1  0.81739862  0.54449364  0.40117237  1  0  0.064247  0  0.966897  0  0  0.065808  0  1.045452  0  0  0.068198  0  1.043984  0  0  0.10372  0.064117  0  1.046401  0
H  H8  1  0.79099640  0.08844677  0.77119976  1  0  0.124462  0  0.93845  0  0  0.13183  0  1.001414  0  0  0.135572  0  0.999795  0  0  0.111162  0.12908  0  1.002853  0
H  H9  1  0.29099761  0.58844896  0.72879863  1  0  0.124476  0  0.938487  0  0  0.131852  0  1.001421  0  0  0.135592  0  0.999805  0  0  0.111147  0.129103  0  1.002861  0
H  H10  1  0.20901718  0.91155515  0.22880123  1  0  0.124445  0  0.938461  0  0  0.131805  0  1.001443  0  0  0.135547  0  0.999826  0  0  0.111142  0.129055  0  1.002879  0
H  H11  1  0.70901498  0.41155825  0.27119428  1  0  0.124487  0  0.938603  0  0  0.131828  0  1.001585  0  0  0.135568  0  0.999971  0  0  0.111128  0.129079  0  1.003022  0
H  H12  1  0.39208719  0.90039502  0.74263947  1  0  0.121831  0  0.933505  0  0  0.131855  0  0.990824  0  0  0.135171  0  0.990003  0  0  0.113637  0.12949  0  0.991549  0
H  H13  1  0.89208123  0.40039364  0.75736255  1  0  0.121843  0  0.933499  0  0  0.131886  0  0.990808  0  0  0.135201  0  0.989987  0  0  0.113678  0.129521  0  0.991532  0
H  H14  1  0.60791865  0.09959899  0.25737363  1  0  0.121849  0  0.933611  0  0  0.131877  0  0.990916  0  0  0.135192  0  0.990095  0  0  0.113658  0.129511  0  0.99164  0
H  H15  1  0.10791679  0.59960479  0.24263171  1  0  0.121753  0  0.933425  0  0  0.131768  0  0.990767  0  0  0.135084  0  0.989945  0  0  0.11362  0.129401  0  0.991488  0
H  H16  1  0.24890149  0.76566524  0.86677072  1  0  0.094478  0  0.952591  0  0  0.100868  0  1.01915  0  0  0.103771  0  1.016574  0  0  0.115211  0.098726  0  1.021078  0
H  H17  1  0.74889019  0.26566137  0.63323649  1  0  0.094557  0  0.952674  0  0  0.100926  0  1.019235  0  0  0.103833  0  1.016654  0  0  0.115243  0.098782  0  1.021162  0
H  H18  1  0.75109891  0.23433848  0.13324642  1  0  0.094673  0  0.952595  0  0  0.101028  0  1.019167  0  0  0.103939  0  1.016583  0  0  0.115279  0.098884  0  1.021095  0
H  H19  1  0.25109801  0.73433885  0.36676315  1  0  0.09443  0  0.952578  0  0  0.100883  0  1.019082  0  0  0.103783  0  1.01651  0  0  0.115217  0.09874  0  1.02101  0
H  H20  1  0.80769556  0.45681353  0.98948989  1  0  0.414586  0  0.873807  0  0  0.387595  0  0.944184  0  0  0.39599  0  0.932063  0  0  0.29592  0.381644  0  0.952466  0
H  H21  1  0.30769049  0.95680916  0.51050714  1  0  0.414551  0  0.873862  0  0  0.387559  0  0.944228  0  0  0.395955  0  0.932105  0  0  0.295931  0.381609  0  0.952519  0
H  H22  1  0.19229715  0.54319549  0.01050841  1  0  0.414559  0  0.873837  0  0  0.387574  0  0.944205  0  0  0.395971  0  0.932081  0  0  0.29591  0.381622  0  0.952475  0
H  H23  1  0.69230789  0.04319192  0.48949251  1  0  0.414534  0  0.873942  0  0  0.387545  0  0.944259  0  0  0.39594  0  0.932139  0  0  0.295914  0.381595  0  0.952587  0
H  H24  1  0.66020217  0.46876392  0.07558020  1  0  0.432612  0  0.865649  0  0  0.401389  0  0.929047  0  0  0.411979  0  0.913845  0  0  0.290624  0.393922  0  0.939742  0
H  H25  1  0.16020355  0.96876199  0.42441765  1  0  0.432573  0  0.865694  0  0  0.401357  0  0.929082  0  0  0.411948  0  0.913878  0  0  0.290602  0.393892  0  0.939772  0
H  H26  1  0.33980401  0.53123273  0.92442214  1  0  0.432595  0  0.865668  0  0  0.401374  0  0.929064  0  0  0.411965  0  0.913862  0  0  0.290604  0.393909  0  0.939756  0
H  H27  1  0.83980274  0.03123555  0.57557931  1  0  0.432553  0  0.865731  0  0  0.401338  0  0.929116  0  0  0.411929  0  0.913913  0  0  0.290593  0.393874  0  0.939807  0
C  C28  1  0.34393882  0.75695114  0.07143009  1  0  0.318461  0  3.979113  0  0  0.295388  0  4.280502  0  0  0.317509  0  4.295137  0  0  0.160817  0.280318  0  4.270347  0
C  C29  1  0.84395340  0.25695778  0.42856456  1  0  0.318571  0  3.979046  0  0  0.295517  0  4.280425  0  0  0.317637  0  4.295058  0  0  0.160917  0.280449  0  4.270275  0
C  C30  1  0.65601817  0.24304121  0.92856417  1  0  0.318399  0  3.979032  0  0  0.295343  0  4.280423  0  0  0.317466  0  4.295057  0  0  0.160853  0.280275  0  4.270267  0
C  C31  1  0.15605082  0.74304945  0.57143441  1  0  0.318528  0  3.979362  0  0  0.295467  0  4.280733  0  0  0.317581  0  4.295361  0  0  0.160975  0.280404  0  4.270583  0
C  C32  1  0.83726282  0.94530663  0.86347670  1  0  0.122246  0  3.727016  0  0  0.095212  0  3.976688  0  0  0.101328  0  3.995887  0  0  0.041898  0.091253  0  3.963512  0
C  C33  1  0.33725501  0.44530560  0.63652224  1  0  0.122482  0  3.727038  0  0  0.095502  0  3.976652  0  0  0.101629  0  3.995844  0  0  0.042029  0.091536  0  3.963482  0
C  C34  1  0.16275290  0.05469881  0.13652429  1  0  0.12234  0  3.726895  0  0  0.095372  0  3.976517  0  0  0.101495  0  3.99571  0  0  0.042041  0.091401  0  3.963353  0
C  C35  1  0.66274707  0.55469811  0.36347674  1  0  0.122322  0  3.726918  0  0  0.09532  0  3.976558  0  0  0.101444  0  3.995751  0  0  0.042014  0.091353  0  3.963391  0
C  C36  1  0.89953438  0.02021223  0.79245700  1  0  -0.116061  0  3.678903  0  0  -0.135806  0  3.920045  0  0  -0.141142  0  3.940138  0  0  -0.076835  -0.132382  0  3.906682  0
C  C37  1  0.39953766  0.52021517  0.70754361  1  0  -0.11621  0  3.678951  0  0  -0.135964  0  3.920081  0  0  -0.141299  0  3.940169  0  0  -0.07685  -0.13254  0  3.90672  0
C  C38  1  0.10047394  0.97978794  0.20754534  1  0  -0.116091  0  3.678728  0  0  -0.135856  0  3.919881  0  0  -0.141191  0  3.939971  0  0  -0.076883  -0.132429  0  3.906515  0
C  C39  1  0.60047401  0.47978499  0.29245334  1  0  -0.116173  0  3.678752  0  0  -0.135878  0  3.919873  0  0  -0.141216  0  3.939961  0  0  -0.076839  -0.132454  0  3.906509  0
C  C40  1  0.10295272  0.00500312  0.74855069  1  0  0.003203  0  3.723686  0  0  0.022562  0  3.954683  0  0  0.020684  0  3.974284  0  0  0.004153  0.023837  0  3.941468  0
C  C41  1  0.60295213  0.50500527  0.75144982  1  0  0.003255  0  3.7237  0  0  0.022607  0  3.954719  0  0  0.020728  0  3.974315  0  0  0.004092  0.023881  0  3.941506  0
C  C42  1  0.89706219  0.99499616  0.25145703  1  0  0.003076  0  3.724168  0  0  0.022433  0  3.955164  0  0  0.020552  0  3.974768  0  0  0.004044  0.023711  0  3.941943  0
C  C43  1  0.39705844  0.49499931  0.24854713  1  0  0.003242  0  3.72379  0  0  0.022562  0  3.954817  0  0  0.020689  0  3.974408  0  0  0.004054  0.023839  0  3.941595  0
C  C44  1  0.23377295  0.91395569  0.77635744  1  0  -0.116906  0  3.698089  0  0  -0.13971  0  3.947814  0  0  -0.145171  0  3.968364  0  0  -0.076251  -0.136198  0  3.934105  0
C  C45  1  0.73377760  0.41395496  0.72364026  1  0  -0.116927  0  3.698129  0  0  -0.13977  0  3.947876  0  0  -0.145234  0  3.968438  0  0  -0.076319  -0.136259  0  3.934164  0
C  C46  1  0.76623346  0.08604273  0.22365095  1  0  -0.116938  0  3.698638  0  0  -0.139748  0  3.948341  0  0  -0.145208  0  3.968898  0  0  -0.076311  -0.136237  0  3.934626  0
C  C47  1  0.26623407  0.58604520  0.27635602  1  0  -0.11693  0  3.698397  0  0  -0.139719  0  3.94815  0  0  -0.145181  0  3.968699  0  0  -0.07629  -0.136207  0  3.934435  0
C  C48  1  0.15554230  0.84030926  0.84561778  1  0  0.128304  0  3.690501  0  0  0.097754  0  3.944387  0  0  0.104133  0  3.962394  0  0  0.044232  0.093593  0  3.932177  0
C  C49  1  0.65554402  0.34030460  0.65438789  1  0  0.128241  0  3.690704  0  0  0.097728  0  3.944566  0  0  0.104101  0  3.962574  0  0  0.044202  0.093568  0  3.932353  0
C  C50  1  0.84445116  0.15969271  0.15439600  1  0  0.128112  0  3.690724  0  0  0.09759  0  3.944598  0  0  0.103963  0  3.962601  0  0  0.044169  0.093431  0  3.932385  0
C  C51  1  0.34445655  0.65968766  0.34560974  1  0  0.128331  0  3.690759  0  0  0.097743  0  3.944625  0  0  0.104123  0  3.962636  0  0  0.044221  0.093582  0  3.932411  0
C  C52  1  0.18106156  0.08293185  0.67172186  1  0  0.623399  0  3.922112  0  0  0.574592  0  4.209585  0  0  0.608132  0  4.203053  0  0  0.197066  0.551923  0  4.212986  0
C  C53  1  0.68106022  0.58293622  0.82827608  1  0  0.62332  0  3.922322  0  0  0.57451  0  4.209783  0  0  0.608052  0  4.203251  0  0  0.197092  0.55184  0  4.213184  0
C  C54  1  0.81895265  0.91706214  0.32827712  1  0  0.623595  0  3.922289  0  0  0.574807  0  4.209699  0  0  0.608348  0  4.203164  0  0  0.197237  0.552135  0  4.2131  0
C  C55  1  0.31894630  0.41706308  0.17172020  1  0  0.623551  0  3.922277  0  0  0.574737  0  4.209738  0  0  0.608276  0  4.203207  0  0  0.197182  0.552067  0  4.213136  0
S  S56  1  0.58736362  0.82306231  0.09576180  1  0  -0.313109  0  2.160411  0  0  -0.275704  0  2.4828  0  0  -0.294968  0  2.476945  0  0  -0.116807  -0.262451  0  2.486545  0
S  S57  1  0.08740175  0.32305571  0.40422355  1  0  -0.313127  0  2.160097  0  0  -0.275731  0  2.482447  0  0  -0.294996  0  2.47659  0  0  -0.116838  -0.262474  0  2.486194  0
S  S58  1  0.41259332  0.17694239  0.90422708  1  0  -0.312976  0  2.16034  0  0  -0.275591  0  2.482727  0  0  -0.294854  0  2.476871  0  0  -0.116779  -0.262336  0  2.48647  0
S  S59  1  0.91259604  0.67694096  0.59577273  1  0  -0.313261  0  2.159889  0  0  -0.275867  0  2.482251  0  0  -0.295134  0  2.476389  0  0  -0.116886  -0.262606  0  2.485999  0
N  N60  1  0.16557193  0.70926403  0.05628848  1  0  -0.54555  0  2.882013  0  0  -0.485783  0  3.153894  0  0  -0.506803  0  3.158299  0  0  -0.384315  -0.471541  0  3.150885  0
N  N61  1  0.66560400  0.20927777  0.44370839  1  0  -0.545712  0  2.882261  0  0  -0.485934  0  3.154086  0  0  -0.50695  0  3.158491  0  0  -0.384438  -0.471693  0  3.151083  0
N  N62  1  0.83439084  0.29072126  0.94371049  1  0  -0.545677  0  2.881959  0  0  -0.485889  0  3.153768  0  0  -0.50691  0  3.158173  0  0  -0.384414  -0.471644  0  3.150757  0
N  N63  1  0.33437657  0.79071541  0.55628991  1  0  -0.545535  0  2.882787  0  0  -0.485752  0  3.154605  0  0  -0.506763  0  3.159007  0  0  -0.384441  -0.471515  0  3.1516  0
N  N64  1  0.96143924  0.85657563  0.88895146  1  0  -0.341179  0  3.292435  0  0  -0.262888  0  3.552132  0  0  -0.282712  0  3.572386  0  0  -0.331819  -0.249223  0  3.537927  0
N  N65  1  0.46142494  0.35657358  0.61104890  1  0  -0.341307  0  3.292528  0  0  -0.263034  0  3.55222  0  0  -0.282859  0  3.572469  0  0  -0.331856  -0.249368  0  3.538017  0
N  N66  1  0.03856775  0.14342719  0.11105491  1  0  -0.341145  0  3.292397  0  0  -0.262869  0  3.552073  0  0  -0.282693  0  3.572325  0  0  -0.331791  -0.249205  0  3.537872  0
N  N67  1  0.53856113  0.64342311  0.38894805  1  0  -0.341128  0  3.292582  0  0  -0.262855  0  3.5523  0  0  -0.282677  0  3.572546  0  0  -0.331814  -0.249192  0  3.538099  0
O  O68  1  0.03069669  0.13215884  0.62531390  1  0  -0.660832  0  1.992523  0  0  -0.59131  0  2.220333  0  0  -0.620233  0  2.210557  0  0  -0.326297  -0.570889  0  2.226187  0
O  O69  1  0.53069037  0.63215556  0.87468655  1  0  -0.660809  0  1.992601  0  0  -0.591297  0  2.220443  0  0  -0.620215  0  2.21065  0  0  -0.326311  -0.570876  0  2.226297  0
O  O70  1  0.96931741  0.86783427  0.37468709  1  0  -0.660862  0  1.992531  0  0  -0.591372  0  2.220335  0  0  -0.620307  0  2.210587  0  0  -0.326337  -0.570951  0  2.22619  0
O  O71  1  0.46931772  0.36784285  0.12531376  1  0  -0.660912  0  1.992703  0  0  -0.591393  0  2.220529  0  0  -0.620315  0  2.210752  0  0  -0.326351  -0.570975  0  2.226384  0
O  O72  1  0.38842116  0.09394913  0.65450614  1  0  -0.592579  0  1.964274  0  0  -0.538754  0  2.2023  0  0  -0.565566  0  2.194948  0  0  -0.313723  -0.519968  0  2.20666  0
O  O73  1  0.88841885  0.59396066  0.84548870  1  0  -0.592484  0  1.964224  0  0  -0.538635  0  2.202237  0  0  -0.565442  0  2.194874  0  0  -0.313693  -0.519851  0  2.206599  0
O  O74  1  0.61159213  0.90603781  0.34549417  1  0  -0.592671  0  1.964255  0  0  -0.538823  0  2.202247  0  0  -0.565634  0  2.194895  0  0  -0.313782  -0.520038  0  2.206609  0
O  O75  1  0.11159138  0.40604128  0.15450623  1  0  -0.592633  0  1.964321  0  0  -0.538765  0  2.202314  0  0  -0.565581  0  2.194974  0  0  -0.313718  -0.519982  0  2.206673  0
O  O76  1  0.76783430  0.51386329  0.03529849  1  0  -0.830759  0  1.921015  0  0  -0.766308  0  2.124742  0  0  -0.787529  0  2.093559  0  0  -0.594727  -0.751286  0  2.146023  0
O  O77  1  0.26783201  0.01386155  0.46470081  1  0  -0.830698  0  1.921124  0  0  -0.766244  0  2.124838  0  0  -0.787465  0  2.093656  0  0  -0.594705  -0.751227  0  2.146128  0
O  O78  1  0.23217604  0.48613952  0.96470586  1  0  -0.830727  0  1.921073  0  0  -0.766259  0  2.124802  0  0  -0.787483  0  2.093614  0  0  -0.594687  -0.751245  0  2.146079  0
O  O79  1  0.73217844  0.98614215  0.53529479  1  0  -0.830659  0  1.92123  0  0  -0.766205  0  2.124901  0  0  -0.787424  0  2.093715  0  0  -0.594693  -0.751192  0  2.146232  0
