# generated using pymatgen
data_ZnH20C28(NO4)2
_symmetry_space_group_name_H-M   'P 1'
_cell_length_a   9.06170306
_cell_length_b   10.70037355
_cell_length_c   12.46102086
_cell_angle_alpha   96.08910771
_cell_angle_beta   108.76260803
_cell_angle_gamma   92.23438247
_symmetry_Int_Tables_number   1
_chemical_formula_structural   ZnH20C28(NO4)2
_chemical_formula_sum   'Zn2 H40 C56 N4 O16'
_cell_volume   1134.16837994
_cell_formula_units_Z   2
loop_
 _symmetry_equiv_pos_site_id
 _symmetry_equiv_pos_as_xyz
  1  'x, y, z'
loop_
 _atom_site_type_symbol
 _atom_site_label
 _atom_site_symmetry_multiplicity
 _atom_site_fract_x
 _atom_site_fract_y
 _atom_site_fract_z
 _atom_site_occupancy
 _atom_site_hle17_bader_spin_density
 _atom_site_hle17_ddec_charge
 _atom_site_hle17_ddec_spin_density
 _atom_site_hle17_ddec_sum_bond_order
 _atom_site_hle17_magmom
 _atom_site_hse06_10hf_bader_spin_density
 _atom_site_hse06_10hf_ddec_charge
 _atom_site_hse06_10hf_ddec_spin_density
 _atom_site_hse06_10hf_ddec_sum_bond_order
 _atom_site_hse06_10hf_magmom
 _atom_site_hse06_bader_spin_density
 _atom_site_hse06_ddec_charge
 _atom_site_hse06_ddec_spin_density
 _atom_site_hse06_ddec_sum_bond_order
 _atom_site_hse06_magmom
 _atom_site_pbe_bader_spin_density
 _atom_site_pbe_cm5_charge
 _atom_site_pbe_ddec_charge
 _atom_site_pbe_ddec_spin_density
 _atom_site_pbe_ddec_sum_bond_order
 _atom_site_pbe_magmom
Zn  Zn0  1  0.08180983  0.84525891  0.90680356  1  0  1.049065  0  1.771668  0  0  0.861449  0  2.221752  0  0  0.913459  0  2.166487  0  0  0.684392  0.824904  0  2.259938  0
Zn  Zn1  1  0.91819529  0.15474358  0.09319540  1  0  1.049065  0  1.771706  0  0  0.861444  0  2.221809  0  0  0.913462  0  2.166519  0  0  0.684395  0.824888  0  2.259993  0
H  H2  1  0.50678287  0.87398571  0.69426626  1  0  0.396345  0  0.899464  0  0  0.364318  0  0.978031  0  0  0.37754  0  0.964342  0  0  0.305056  0.354828  0  0.988254  0
H  H3  1  0.49321467  0.12601017  0.30573755  1  0  0.396271  0  0.899559  0  0  0.364344  0  0.977957  0  0  0.377565  0  0.964268  0  0  0.305031  0.354849  0  0.988197  0
H  H4  1  0.49744297  0.74358371  0.53695658  1  0  0.395503  0  0.906825  0  0  0.364584  0  0.983424  0  0  0.37765  0  0.966693  0  0  0.302526  0.355084  0  0.993677  0
H  H5  1  0.50255680  0.25641120  0.46304764  1  0  0.395463  0  0.906814  0  0  0.364547  0  0.983418  0  0  0.377618  0  0.966722  0  0  0.302479  0.35505  0  0.99367  0
H  H6  1  0.02431629  0.26966027  0.80487550  1  0  0.095897  0  0.97411  0  0  0.10468  0  1.040646  0  0  0.108083  0  1.038851  0  0  0.104245  0.102308  0  1.041865  0
H  H7  1  0.97567918  0.73033949  0.19512022  1  0  0.095878  0  0.974087  0  0  0.104637  0  1.040656  0  0  0.108041  0  1.03886  0  0  0.104221  0.102261  0  1.041876  0
H  H8  1  0.90797736  0.17934386  0.44082540  1  0  0.113803  0  0.984299  0  0  0.118962  0  1.052897  0  0  0.123157  0  1.050397  0  0  0.103221  0.115863  0  1.05494  0
H  H9  1  0.09201605  0.82064740  0.55917141  1  0  0.11373  0  0.984488  0  0  0.118925  0  1.05303  0  0  0.12312  0  1.050535  0  0  0.103225  0.11583  0  1.055071  0
H  H10  1  0.72291289  0.00249769  0.44555002  1  0  0.098075  0  0.956235  0  0  0.106059  0  1.022393  0  0  0.10953  0  1.020196  0  0  0.105594  0.103688  0  1.023768  0
H  H11  1  0.27706965  0.99750026  0.55444663  1  0  0.098052  0  0.956241  0  0  0.106143  0  1.022273  0  0  0.109616  0  1.020074  0  0  0.105644  0.103766  0  1.023653  0
H  H12  1  0.32866512  0.44814120  0.49121967  1  0  0.097636  0  0.97121  0  0  0.106536  0  1.036465  0  0  0.109786  0  1.033971  0  0  0.105009  0.10429  0  1.038342  0
H  H13  1  0.67133467  0.55185470  0.50878064  1  0  0.097685  0  0.971169  0  0  0.106568  0  1.036425  0  0  0.109814  0  1.033932  0  0  0.105003  0.104331  0  1.038311  0
H  H14  1  0.15935392  0.26073801  0.49000884  1  0  0.109944  0  0.960453  0  0  0.116645  0  1.028151  0  0  0.120608  0  1.025243  0  0  0.104648  0.113908  0  1.030157  0
H  H15  1  0.84064338  0.73925701  0.50998761  1  0  0.109929  0  0.960437  0  0  0.116629  0  1.028151  0  0  0.12061  0  1.025219  0  0  0.104644  0.11389  0  1.030165  0
H  H16  1  0.01173784  0.46627108  0.74969601  1  0  0.101826  0  0.955719  0  0  0.111625  0  1.018501  0  0  0.114443  0  1.018543  0  0  0.104441  0.109694  0  1.018391  0
H  H17  1  0.98825125  0.53372404  0.25029621  1  0  0.101908  0  0.955708  0  0  0.111687  0  1.018495  0  0  0.114508  0  1.018533  0  0  0.10448  0.109757  0  1.018385  0
H  H18  1  0.79510082  0.70656318  0.70286578  1  0  0.080131  0  0.947777  0  0  0.089251  0  1.01199  0  0  0.091167  0  1.010691  0  0  0.113309  0.087856  0  1.012917  0
H  H19  1  0.20490722  0.29343460  0.29713094  1  0  0.080164  0  0.947748  0  0  0.089275  0  1.011988  0  0  0.091188  0  1.01069  0  0  0.113319  0.087882  0  1.012908  0
H  H20  1  0.61406786  0.51163048  0.66047025  1  0  0.10324  0  0.978115  0  0  0.110997  0  1.046362  0  0  0.113934  0  1.045523  0  0  0.100967  0.10896  0  1.047189  0
H  H21  1  0.38594228  0.48836540  0.33952595  1  0  0.103328  0  0.978052  0  0  0.11108  0  1.046303  0  0  0.114012  0  1.045461  0  0  0.101024  0.10905  0  1.047122  0
H  H22  1  0.79639733  0.46671009  0.01778824  1  0  0.120623  0  0.973251  0  0  0.127998  0  1.037074  0  0  0.131968  0  1.03539  0  0  0.106011  0.124964  0  1.038765  0
H  H23  1  0.20360347  0.53329525  0.98221164  1  0  0.120651  0  0.973304  0  0  0.12803  0  1.037102  0  0  0.131998  0  1.035417  0  0  0.106036  0.124995  0  1.038804  0
H  H24  1  0.97556931  0.65878186  0.04300886  1  0  0.069236  0  0.986599  0  0  0.076812  0  1.05452  0  0  0.079116  0  1.052407  0  0  0.109372  0.075134  0  1.056019  0
H  H25  1  0.02442810  0.34122446  0.95699036  1  0  0.069237  0  0.98665  0  0  0.07681  0  1.054561  0  0  0.07912  0  1.052435  0  0  0.109353  0.07513  0  1.056058  0
H  H26  1  0.51289533  0.33399016  0.72405142  1  0  0.077819  0  0.93804  0  0  0.095979  0  0.996332  0  0  0.096793  0  0.996749  0  0  0.091327  0.095381  0  0.996114  0
H  H27  1  0.48710173  0.66601235  0.27595055  1  0  0.077795  0  0.93799  0  0  0.095969  0  0.996291  0  0  0.096784  0  0.996708  0  0  0.091346  0.095374  0  0.996076  0
H  H28  1  0.66503988  0.27414737  0.83081292  1  0  0.10306  0  0.953791  0  0  0.117507  0  1.015938  0  0  0.118948  0  1.015806  0  0  0.098351  0.116418  0  1.0162  0
H  H29  1  0.33495947  0.72585514  0.16918796  1  0  0.103041  0  0.953883  0  0  0.1175  0  1.016028  0  0  0.118941  0  1.015896  0  0  0.098366  0.116418  0  1.016287  0
H  H30  1  0.39412847  0.41433475  0.86826892  1  0  0.079925  0  0.932669  0  0  0.09744  0  0.994936  0  0  0.097599  0  0.996285  0  0  0.093853  0.097234  0  0.994242  0
H  H31  1  0.60587486  0.58567145  0.13173643  1  0  0.079896  0  0.932674  0  0  0.097385  0  0.994951  0  0  0.097534  0  0.996304  0  0  0.093834  0.097183  0  0.994256  0
H  H32  1  0.55928262  0.38295450  0.98145833  1  0  0.090066  0  0.95836  0  0  0.103806  0  1.024538  0  0  0.106002  0  1.023061  0  0  0.097146  0.102188  0  1.025667  0
H  H33  1  0.44072321  0.61705360  0.01854536  1  0  0.090115  0  0.95834  0  0  0.103839  0  1.024517  0  0  0.106031  0  1.023029  0  0  0.09714  0.102226  0  1.025645  0
H  H34  1  0.17580392  0.96849794  0.72718314  1  0  0.083856  0  0.956299  0  0  0.095332  0  1.016359  0  0  0.09713  0  1.015438  0  0  0.115451  0.09398  0  1.017089  0
H  H35  1  0.82420631  0.03150825  0.27281975  1  0  0.083939  0  0.956065  0  0  0.095338  0  1.016213  0  0  0.097129  0  1.015289  0  0  0.11544  0.093984  0  1.016942  0
H  H36  1  0.32187657  0.16492059  0.71153064  1  0  0.103835  0  0.954893  0  0  0.115638  0  1.015417  0  0  0.118134  0  1.015476  0  0  0.104305  0.11385  0  1.015574  0
H  H37  1  0.67813533  0.83508931  0.28847701  1  0  0.103804  0  0.954853  0  0  0.115598  0  1.015389  0  0  0.118093  0  1.015448  0  0  0.104286  0.113807  0  1.015554  0
H  H38  1  0.48042298  0.23603156  0.07975716  1  0  0.121094  0  0.948666  0  0  0.128382  0  1.012312  0  0  0.131996  0  1.01132  0  0  0.106757  0.126086  0  1.012638  0
H  H39  1  0.51957934  0.76397557  0.92025046  1  0  0.121022  0  0.948731  0  0  0.128404  0  1.012264  0  0  0.132008  0  1.011292  0  0  0.10678  0.126107  0  1.012592  0
H  H40  1  0.32920743  0.03775109  0.07980535  1  0  0.085878  0  0.961606  0  0  0.094518  0  1.025474  0  0  0.096919  0  1.023166  0  0  0.115354  0.092772  0  1.027061  0
H  H41  1  0.67079325  0.96225232  0.92019833  1  0  0.085903  0  0.961671  0  0  0.094557  0  1.025522  0  0  0.096916  0  1.023265  0  0  0.115328  0.092809  0  1.027114  0
C  C42  1  0.87206797  0.07369500  0.84590294  1  0  0.683285  0  3.87647  0  0  0.621767  0  4.184286  0  0  0.658281  0  4.172584  0  0  0.223409  0.597042  0  4.190973  0
C  C43  1  0.12792995  0.92630567  0.15409422  1  0  0.683236  0  3.876663  0  0  0.621667  0  4.184542  0  0  0.658178  0  4.172851  0  0  0.223324  0.596942  0  4.19123  0
C  C44  1  0.85913375  0.11043801  0.72995961  1  0  -0.037804  0  3.7059  0  0  -0.024518  0  3.941463  0  0  -0.027393  0  3.960502  0  0  -0.001526  -0.022734  0  3.928544  0
C  C45  1  0.14085945  0.88956173  0.27003881  1  0  -0.037894  0  3.705968  0  0  -0.024571  0  3.941532  0  0  -0.027445  0  3.960565  0  0  -0.001584  -0.022792  0  3.928613  0
C  C46  1  0.95496083  0.21315720  0.72545014  1  0  -0.12019  0  3.710189  0  0  -0.151122  0  3.958872  0  0  -0.153271  0  3.978189  0  0  -0.080228  -0.149506  0  3.945715  0
C  C47  1  0.04503231  0.78684259  0.27454506  1  0  -0.120174  0  3.710275  0  0  -0.151097  0  3.958963  0  0  -0.153247  0  3.97828  0  0  -0.080197  -0.149471  0  3.945802  0
C  C48  1  0.97328335  0.23986531  0.62235984  1  0  0.068405  0  3.772097  0  0  0.08281  0  4.004684  0  0  0.08367  0  4.027207  0  0  0.001584  0.08269  0  3.989237  0
C  C49  1  0.02670943  0.76013068  0.37763730  1  0  0.068501  0  3.772006  0  0  0.082904  0  4.004612  0  0  0.083763  0  4.02714  0  0  0.001699  0.082779  0  3.989167  0
C  C50  1  0.89447916  0.15978926  0.52160302  1  0  -0.110845  0  3.701767  0  0  -0.132903  0  3.955569  0  0  -0.136379  0  3.975049  0  0  -0.088442  -0.130512  0  3.941968  0
C  C51  1  0.10551155  0.84020960  0.47839154  1  0  -0.110818  0  3.701963  0  0  -0.132912  0  3.955817  0  0  -0.136391  0  3.9753  0  0  -0.088477  -0.130531  0  3.942222  0
C  C52  1  0.79232129  0.06072594  0.52418014  1  0  -0.049872  0  3.72691  0  0  -0.077215  0  3.98351  0  0  -0.076236  0  4.002906  0  0  -0.079545  -0.077425  0  3.969519  0
C  C53  1  0.20766574  0.93927005  0.47581973  1  0  -0.049935  0  3.727127  0  0  -0.077354  0  3.983762  0  0  -0.076377  0  4.003157  0  0  -0.079664  -0.077562  0  3.969764  0
C  C54  1  0.77154441  0.03622770  0.62682319  1  0  -0.087943  0  3.741713  0  0  -0.073985  0  3.975614  0  0  -0.08168  0  3.997415  0  0  -0.013184  -0.06859  0  3.960817  0
C  C55  1  0.22844428  0.96377301  0.37317592  1  0  -0.087945  0  3.741561  0  0  -0.074031  0  3.975529  0  0  -0.081726  0  3.997326  0  0  -0.013218  -0.06863  0  3.960718  0
C  C56  1  0.65080259  0.93657661  0.62072088  1  0  0.675177  0  3.790158  0  0  0.619109  0  4.094241  0  0  0.65403  0  4.083662  0  0  0.242812  0.594349  0  4.10199  0
C  C57  1  0.34919092  0.06342496  0.37928261  1  0  0.675246  0  3.790179  0  0  0.619199  0  4.094253  0  0  0.654119  0  4.083675  0  0  0.242855  0.594447  0  4.101987  0
C  C58  1  0.36736856  0.67277694  0.61771014  1  0  0.654362  0  3.82614  0  0  0.59983  0  4.130453  0  0  0.633794  0  4.122463  0  0  0.235931  0.575542  0  4.136898  0
C  C59  1  0.63262837  0.32721427  0.38228905  1  0  0.654364  0  3.826529  0  0  0.599787  0  4.130951  0  0  0.633734  0  4.122961  0  0  0.235969  0.575512  0  4.137398  0
C  C60  1  0.26418543  0.56345467  0.61869364  1  0  -0.10979  0  3.762657  0  0  -0.097124  0  4.000274  0  0  -0.106853  0  4.023717  0  0  -0.018465  -0.08971  0  3.983874  0
C  C61  1  0.73581168  0.43653844  0.38130418  1  0  -0.109837  0  3.762823  0  0  -0.097239  0  4.000548  0  0  -0.106902  0  4.023908  0  0  -0.018591  -0.089859  0  3.984205  0
C  C62  1  0.25707300  0.45161006  0.54653305  1  0  -0.044279  0  3.721086  0  0  -0.070866  0  3.976306  0  0  -0.068576  0  3.994871  0  0  -0.078981  -0.07249  0  3.963592  0
C  C63  1  0.74292702  0.54838772  0.45346830  1  0  -0.044494  0  3.721144  0  0  -0.07103  0  3.976373  0  0  -0.068758  0  3.994923  0  0  -0.079029  -0.072661  0  3.9637  0
C  C64  1  0.16285755  0.34644548  0.54644775  1  0  -0.104364  0  3.705061  0  0  -0.130081  0  3.964468  0  0  -0.133032  0  3.982029  0  0  -0.085222  -0.128214  0  3.952742  0
C  C65  1  0.83713830  0.65354670  0.45354969  1  0  -0.104253  0  3.705125  0  0  -0.129957  0  3.96449  0  0  -0.132924  0  3.982045  0  0  -0.085165  -0.128088  0  3.952774  0
C  C66  1  0.07473686  0.35002401  0.62103433  1  0  0.074783  0  3.772814  0  0  0.088709  0  4.005759  0  0  0.090835  0  4.028222  0  0  0.004009  0.087034  0  3.990676  0
C  C67  1  0.92525603  0.64997291  0.37896374  1  0  0.074786  0  3.772812  0  0  0.088704  0  4.005758  0  0  0.090831  0  4.028225  0  0  0.003992  0.087038  0  3.990669  0
C  C68  1  0.08332223  0.46121889  0.69399633  1  0  -0.132568  0  3.686359  0  0  -0.160251  0  3.933024  0  0  -0.164235  0  3.952226  0  0  -0.083446  -0.15681  0  3.919407  0
C  C69  1  0.91666914  0.53877524  0.30599871  1  0  -0.132637  0  3.686501  0  0  -0.160299  0  3.933148  0  0  -0.164287  0  3.952355  0  0  -0.083473  -0.156858  0  3.919526  0
C  C70  1  0.17503604  0.56856340  0.69285746  1  0  -0.011865  0  3.699579  0  0  -0.000607  0  3.93724  0  0  -0.000716  0  3.954694  0  0  0.003918  -0.000522  0  3.924829  0
C  C71  1  0.82495894  0.43143164  0.30713928  1  0  -0.011809  0  3.699672  0  0  -0.000501  0  3.937325  0  0  -0.000629  0  3.954766  0  0  0.003983  -0.000407  0  3.924927  0
C  C72  1  0.15894908  0.68488446  0.76606834  1  0  0.638785  0  3.942659  0  0  0.581561  0  4.25171  0  0  0.616308  0  4.242287  0  0  0.198234  0.557931  0  4.257104  0
C  C73  1  0.84105271  0.31510860  0.23393133  1  0  0.638559  0  3.942608  0  0  0.581296  0  4.251721  0  0  0.61604  0  4.242305  0  0  0.198145  0.557664  0  4.257112  0
C  C74  1  0.79076960  0.65119536  0.77045288  1  0  0.131716  0  3.70353  0  0  0.100497  0  3.957438  0  0  0.107915  0  3.976246  0  0  0.039642  0.095661  0  3.94461  0
C  C75  1  0.20923631  0.34880432  0.22954357  1  0  0.131785  0  3.703662  0  0  0.100608  0  3.957491  0  0  0.108029  0  3.976298  0  0  0.039715  0.09577  0  3.944658  0
C  C76  1  0.68966137  0.54280023  0.74766320  1  0  -0.195449  0  3.721444  0  0  -0.212441  0  3.970379  0  0  -0.221874  0  3.993386  0  0  -0.094958  -0.206349  0  3.954913  0
C  C77  1  0.31034422  0.45719664  0.25233208  1  0  -0.195621  0  3.721758  0  0  -0.212608  0  3.970712  0  0  -0.222032  0  3.99371  0  0  -0.095015  -0.206517  0  3.955247  0
C  C78  1  0.68742428  0.47226432  0.83572365  1  0  0.168949  0  3.693234  0  0  0.185552  0  3.927595  0  0  0.191156  0  3.949989  0  0  0.016319  0.181761  0  3.912077  0
C  C79  1  0.31257950  0.52773628  0.16427642  1  0  0.168959  0  3.693181  0  0  0.185549  0  3.927589  0  0  0.191153  0  3.949984  0  0  0.016301  0.181758  0  3.912081  0
C  C80  1  0.79010115  0.51758203  0.94517439  1  0  -0.183071  0  3.694319  0  0  -0.196912  0  3.938615  0  0  -0.205746  0  3.960115  0  0  -0.088728  -0.190922  0  3.924304  0
C  C81  1  0.20989928  0.48242052  0.05482192  1  0  -0.183121  0  3.694305  0  0  -0.196948  0  3.938581  0  0  -0.205779  0  3.960082  0  0  -0.088763  -0.190971  0  3.924284  0
C  C82  1  0.88956537  0.62495826  0.96026758  1  0  0.118614  0  3.737828  0  0  0.087584  0  3.991782  0  0  0.094493  0  4.011092  0  0  0.037671  0.082905  0  3.9788  0
C  C83  1  0.11043529  0.37504616  0.03973058  1  0  0.118639  0  3.738023  0  0  0.087626  0  3.991951  0  0  0.094531  0  4.011269  0  0  0.037734  0.082951  0  3.978967  0
C  C84  1  0.58636106  0.35095684  0.81430532  1  0  -0.155913  0  3.663172  0  0  -0.197163  0  3.909109  0  0  -0.198902  0  3.920543  0  0  -0.158709  -0.195744  0  3.900969  0
C  C85  1  0.41363746  0.64904850  0.18569646  1  0  -0.155826  0  3.663083  0  0  -0.19715  0  3.909102  0  0  -0.198895  0  3.920527  0  0  -0.158746  -0.195734  0  3.900975  0
C  C86  1  0.48634937  0.34851921  0.89354297  1  0  -0.151774  0  3.667859  0  0  -0.192263  0  3.911826  0  0  -0.193644  0  3.923044  0  0  -0.155403  -0.190995  0  3.903936  0
C  C87  1  0.51365405  0.65148795  0.10646170  1  0  -0.151908  0  3.667724  0  0  -0.192297  0  3.911657  0  0  -0.193646  0  3.922831  0  0  -0.155459  -0.191045  0  3.903788  0
C  C88  1  0.24522330  0.03108531  0.80295925  1  0  0.129475  0  3.710052  0  0  0.098494  0  3.959649  0  0  0.105482  0  3.979814  0  0  0.040966  0.094446  0  3.945467  0
C  C89  1  0.75478449  0.96891997  0.19704219  1  0  0.129425  0  3.709979  0  0  0.098517  0  3.959562  0  0  0.105515  0  3.979719  0  0  0.041018  0.094473  0  3.945379  0
C  C90  1  0.32692452  0.14091133  0.79546593  1  0  -0.180648  0  3.71212  0  0  -0.196739  0  3.959806  0  0  -0.206043  0  3.983109  0  0  -0.089893  -0.190597  0  3.943779  0
C  C91  1  0.67308090  0.85909299  0.20453810  1  0  -0.180537  0  3.712008  0  0  -0.196592  0  3.959659  0  0  -0.205903  0  3.982981  0  0  -0.089863  -0.190455  0  3.943637  0
C  C92  1  0.40956903  0.22148296  0.89490757  1  0  0.164367  0  3.689863  0  0  0.180017  0  3.926457  0  0  0.185578  0  3.948712  0  0  0.017096  0.176466  0  3.911429  0
C  C93  1  0.59043776  0.77852323  0.10509695  1  0  0.164366  0  3.689715  0  0  0.17994  0  3.92639  0  0  0.185493  0  3.948644  0  0  0.017083  0.176394  0  3.911361  0
C  C94  1  0.41273205  0.18081823  0.99890216  1  0  -0.165481  0  3.676209  0  0  -0.18382  0  3.926191  0  0  -0.192558  0  3.947628  0  0  -0.084301  -0.178533  0  3.912203  0
C  C95  1  0.58727009  0.81918800  0.00110132  1  0  -0.165366  0  3.675998  0  0  -0.183776  0  3.926009  0  0  -0.192513  0  3.947431  0  0  -0.084245  -0.178488  0  3.912019  0
C  C96  1  0.32957852  0.06913883  0.99970836  1  0  0.142379  0  3.690547  0  0  0.108937  0  3.944812  0  0  0.117156  0  3.96255  0  0  0.044258  0.103583  0  3.933098  0
C  C97  1  0.67042460  0.93086651  0.00029124  1  0  0.142421  0  3.690413  0  0  0.108962  0  3.944666  0  0  0.117211  0  3.962411  0  0  0.04433  0.10361  0  3.932957  0
N  N98  1  0.89212639  0.69189481  0.87521998  1  0  -0.322108  0  3.237497  0  0  -0.246326  0  3.496954  0  0  -0.264852  0  3.514692  0  0  -0.318342  -0.233681  0  3.484883  0
N  N99  1  0.10787530  0.30810868  0.12477671  1  0  -0.322157  0  3.23766  0  0  -0.246405  0  3.497156  0  0  -0.264933  0  3.514898  0  0  -0.3184  -0.233754  0  3.485076  0
N  N100  1  0.24319160  0.99590107  0.90329968  1  0  -0.34222  0  3.273129  0  0  -0.261651  0  3.540563  0  0  -0.282342  0  3.558113  0  0  -0.323946  -0.24802  0  3.528793  0
N  N101  1  0.75681369  0.00410233  0.09670262  1  0  -0.342375  0  3.273343  0  0  -0.261786  0  3.540722  0  0  -0.282473  0  3.558255  0  0  -0.324059  -0.248151  0  3.528943  0
O  O102  1  0.89946147  0.96139307  0.86242271  1  0  -0.64295  0  2.130399  0  0  -0.587423  0  2.421799  0  0  -0.614932  0  2.407044  0  0  -0.315281  -0.567622  0  2.430714  0
O  O103  1  0.10054326  0.03860563  0.13757739  1  0  -0.642883  0  2.130553  0  0  -0.587329  0  2.421946  0  0  -0.61484  0  2.407199  0  0  -0.315245  -0.567527  0  2.430856  0
O  O104  1  0.85911802  0.16056431  0.92019301  1  0  -0.618161  0  2.066239  0  0  -0.539267  0  2.324092  0  0  -0.567037  0  2.309104  0  0  -0.300813  -0.519919  0  2.333893  0
O  O105  1  0.14088428  0.83943348  0.07980645  1  0  -0.618121  0  2.066352  0  0  -0.53918  0  2.324155  0  0  -0.566948  0  2.309169  0  0  -0.300739  -0.519842  0  2.333964  0
O  O106  1  0.58496488  0.95127555  0.70064513  1  0  -0.532117  0  2.118442  0  0  -0.480149  0  2.341902  0  0  -0.502537  0  2.328383  0  0  -0.313163  -0.464875  0  2.351535  0
O  O107  1  0.41503033  0.04872034  0.29935817  1  0  -0.532062  0  2.118404  0  0  -0.480188  0  2.341799  0  0  -0.502562  0  2.328258  0  0  -0.313136  -0.46492  0  2.351431  0
O  O108  1  0.61184213  0.84765539  0.54042345  1  0  -0.574514  0  1.998123  0  0  -0.521939  0  2.217813  0  0  -0.54462  0  2.207401  0  0  -0.286999  -0.50664  0  2.225184  0
O  O109  1  0.38814974  0.15234246  0.45957609  1  0  -0.574548  0  1.998343  0  0  -0.521956  0  2.218007  0  0  -0.54464  0  2.207599  0  0  -0.287006  -0.506665  0  2.225374  0
O  O110  1  0.42360120  0.66404862  0.53180755  1  0  -0.550427  0  2.114325  0  0  -0.498311  0  2.339157  0  0  -0.520936  0  2.323911  0  0  -0.323968  -0.482711  0  2.348811  0
O  O111  1  0.57640308  0.33594533  0.46819598  1  0  -0.550359  0  2.114234  0  0  -0.498239  0  2.339113  0  0  -0.52085  0  2.323872  0  0  -0.323864  -0.482642  0  2.348762  0
O  O112  1  0.39942120  0.76525149  0.69402131  1  0  -0.5577  0  2.027197  0  0  -0.502757  0  2.246366  0  0  -0.525419  0  2.238697  0  0  -0.275343  -0.487816  0  2.252572  0
O  O113  1  0.60058077  0.23474246  0.30598250  1  0  -0.557612  0  2.027411  0  0  -0.502682  0  2.246554  0  0  -0.525353  0  2.238898  0  0  -0.275342  -0.487727  0  2.252734  0
O  O114  1  0.07152425  0.76657833  0.71823476  1  0  -0.624711  0  1.968103  0  0  -0.567703  0  2.209622  0  0  -0.595419  0  2.200899  0  0  -0.308823  -0.547908  0  2.214766  0
O  O115  1  0.92848569  0.23342502  0.28176857  1  0  -0.624583  0  1.968037  0  0  -0.567566  0  2.209585  0  0  -0.59528  0  2.200862  0  0  -0.308763  -0.547772  0  2.214727  0
O  O116  1  0.21827392  0.68896089  0.87416559  1  0  -0.620366  0  1.98885  0  0  -0.559861  0  2.240199  0  0  -0.587439  0  2.229491  0  0  -0.309469  -0.539943  0  2.246556  0
O  O117  1  0.78172453  0.31103412  0.12583112  1  0  -0.620312  0  1.988797  0  0  -0.559766  0  2.24013  0  0  -0.587358  0  2.229454  0  0  -0.309488  -0.539863  0  2.246519  0
