# generated using pymatgen
data_CdBH21C19N9O4
_symmetry_space_group_name_H-M   'P 1'
_cell_length_a   8.46123705
_cell_length_b   8.86253672
_cell_length_c   16.90400000
_cell_angle_alpha   82.25873836
_cell_angle_beta   89.58714115
_cell_angle_gamma   78.42213350
_symmetry_Int_Tables_number   1
_chemical_formula_structural   CdBH21C19N9O4
_chemical_formula_sum   'Cd2 B2 H42 C38 N18 O8'
_cell_volume   1230.23157844
_cell_formula_units_Z   2
loop_
 _symmetry_equiv_pos_site_id
 _symmetry_equiv_pos_as_xyz
  1  'x, y, z'
loop_
 _atom_site_type_symbol
 _atom_site_label
 _atom_site_symmetry_multiplicity
 _atom_site_fract_x
 _atom_site_fract_y
 _atom_site_fract_z
 _atom_site_occupancy
 _atom_site_hle17_bader_spin_density
 _atom_site_hle17_ddec_charge
 _atom_site_hle17_ddec_spin_density
 _atom_site_hle17_ddec_sum_bond_order
 _atom_site_hle17_magmom
 _atom_site_hse06_10hf_bader_spin_density
 _atom_site_hse06_10hf_ddec_charge
 _atom_site_hse06_10hf_ddec_spin_density
 _atom_site_hse06_10hf_ddec_sum_bond_order
 _atom_site_hse06_10hf_magmom
 _atom_site_hse06_bader_spin_density
 _atom_site_hse06_ddec_charge
 _atom_site_hse06_ddec_spin_density
 _atom_site_hse06_ddec_sum_bond_order
 _atom_site_hse06_magmom
 _atom_site_pbe_bader_charge
 _atom_site_pbe_bader_spin_density
 _atom_site_pbe_cm5_charge
 _atom_site_pbe_ddec_charge
 _atom_site_pbe_ddec_spin_density
 _atom_site_pbe_ddec_sum_bond_order
 _atom_site_pbe_magmom
Cd  Cd0  1  0.75408216  0.32385818  0.21124043  1  0  1.056416  0  1.814293  0  0  0.853069  0  2.270013  0  0  0.905346  0  2.225865  0  1.269089  0  0.781533  0.816182  0  2.299975  0
Cd  Cd1  1  0.24591552  0.67614275  0.78875945  1  0  1.056392  0  1.814324  0  0  0.853045  0  2.270046  0  0  0.905321  0  2.225898  0  1.269118  0  0.781527  0.816159  0  2.300006  0
B  B2  1  0.17257533  0.76879739  0.12360635  1  0  0.711696  0  3.021764  0  0  0.544275  0  3.333972  0  0  0.567578  0  3.332014  0  2.210633  0  0.107277  0.528139  0  3.335744  0
B  B3  1  0.82742472  0.23120354  0.87639352  1  0  0.711672  0  3.021864  0  0  0.544281  0  3.334025  0  0  0.567582  0  3.332069  0  2.2106  0  0.107265  0.528156  0  3.335778  0
H  H4  1  0.04801972  0.51890179  0.21625631  1  0  0.090906  0  0.961579  0  0  0.097046  0  1.032006  0  0  0.099569  0  1.028786  0  0.171452  0  0.133204  0.095131  0  1.034391  0
H  H5  1  0.95197890  0.48110030  0.78374349  1  0  0.09091  0  0.961552  0  0  0.097065  0  1.031971  0  0  0.09958  0  1.02875  0  0.171435  0  0.133207  0.09515  0  1.034355  0
H  H6  1  0.19852981  0.70417503  0.29755587  1  0  0.11403  0  0.938362  0  0  0.12694  0  0.992006  0  0  0.12967  0  0.990989  0  0.142569  0  0.12771  0.124955  0  0.992861  0
H  H7  1  0.80146930  0.29582473  0.70244409  1  0  0.114025  0  0.93838  0  0  0.126934  0  0.992028  0  0  0.129664  0  0.991009  0  0.142578  0  0.127729  0.124949  0  0.992881  0
H  H8  1  0.14947058  0.61139251  0.98654801  1  0  0.086073  0  0.959646  0  0  0.093612  0  1.026645  0  0  0.095939  0  1.024445  0  0.123669  0  0.130887  0.091869  0  1.028289  0
H  H9  1  0.85052780  0.38861075  0.01345171  1  0  0.086084  0  0.959602  0  0  0.093605  0  1.026622  0  0  0.095929  0  1.024427  0  0.123657  0  0.130889  0.091878  0  1.028247  0
H  H10  1  0.36812863  0.94846581  0.19869464  1  0  0.10662  0  0.960647  0  0  0.118314  0  1.019438  0  0  0.120913  0  1.018553  0  0.104603  0  0.1201  0.116414  0  1.020211  0
H  H11  1  0.63187260  0.05153513  0.80130642  1  0  0.106623  0  0.96064  0  0  0.118323  0  1.019419  0  0  0.120922  0  1.018535  0  0.104591  0  0.120112  0.116421  0  1.020196  0
H  H12  1  0.89587034  0.85109455  0.01303469  1  0  0.107025  0  0.960808  0  0  0.114218  0  1.025322  0  0  0.117085  0  1.024154  0  0.121253  0  0.117029  0.112166  0  1.026228  0
H  H13  1  0.10412971  0.14890638  0.98696519  1  0  0.106996  0  0.960823  0  0  0.114191  0  1.025344  0  0  0.117058  0  1.024175  0  0.121266  0  0.117004  0.112138  0  1.02625  0
H  H14  1  0.45358865  0.46333831  0.35190548  1  0  0.120926  0  0.975017  0  0  0.125861  0  1.040283  0  0  0.129271  0  1.037625  0  0.161949  0  0.117261  0.123329  0  1.042392  0
H  H15  1  0.54640858  0.53665914  0.64809465  1  0  0.120893  0  0.975091  0  0  0.125834  0  1.040347  0  0  0.129243  0  1.037693  0  0.161948  0  0.117246  0.123303  0  1.042456  0
H  H16  1  0.45465720  0.53545586  0.10086976  1  0  0.080853  0  0.964082  0  0  0.088023  0  1.033171  0  0  0.09031  0  1.030606  0  0.129106  0  0.128116  0.086331  0  1.034994  0
H  H17  1  0.54534142  0.46454623  0.89913004  1  0  0.080785  0  0.964062  0  0  0.087954  0  1.033166  0  0  0.09024  0  1.030602  0  0.129104  0  0.128083  0.086262  0  1.034989  0
H  H18  1  0.39927972  0.94798566  0.04766435  1  0  0.097693  0  0.981529  0  0  0.109123  0  1.044546  0  0  0.111386  0  1.043965  0  0.10113  0  0.117057  0.107489  0  1.045079  0
H  H19  1  0.60072057  0.05201411  0.95233502  1  0  0.097698  0  0.981487  0  0  0.109141  0  1.044485  0  0  0.111404  0  1.043903  0  0.101127  0  0.117056  0.107506  0  1.045018  0
H  H20  1  0.19288752  0.22932247  0.23582814  1  0  0.106961  0  0.94602  0  0  0.117671  0  1.003589  0  0  0.120022  0  1.002507  0  0.094421  0  0.116832  0.115967  0  1.004462  0
H  H21  1  0.80710992  0.77067962  0.76417403  1  0  0.106924  0  0.946126  0  0  0.117683  0  1.003627  0  0  0.120037  0  1.002536  0  0.094402  0  0.116859  0.115976  0  1.004508  0
H  H22  1  0.87771109  0.99745254  0.13170113  1  0  0.08257  0  0.969413  0  0  0.08806  0  1.043102  0  0  0.090557  0  1.040028  0  0.166613  0  0.128304  0.086224  0  1.045326  0
H  H23  1  0.12228802  0.00254723  0.86829883  1  0  0.082558  0  0.969426  0  0  0.08805  0  1.043111  0  0  0.090548  0  1.040036  0  0.166611  0  0.128299  0.086213  0  1.045336  0
H  H24  1  0.49425887  0.86785672  0.89750141  1  0  0.094258  0  0.973366  0  0  0.101095  0  1.040195  0  0  0.103637  0  1.039193  0  0.117156  0  0.109973  0.099243  0  1.041041  0
H  H25  1  0.50573999  0.13214421  0.10249847  1  0  0.094206  0  0.973418  0  0  0.101076  0  1.040212  0  0  0.103619  0  1.039208  0  0.117161  0  0.109979  0.099224  0  1.041059  0
H  H26  1  0.67165956  0.66443318  0.04471020  1  0  0.086728  0  0.986401  0  0  0.093281  0  1.055128  0  0  0.095188  0  1.05517  0  0.064047  0  0.104794  0.091877  0  1.055213  0
H  H27  1  0.32834049  0.33556775  0.95528968  1  0  0.086759  0  0.986411  0  0  0.093307  0  1.055137  0  0  0.095213  0  1.055181  0  0.06413  0  0.104802  0.091903  0  1.055223  0
H  H28  1  0.67267900  0.38278735  0.48318048  1  0  0.373672  0  0.919134  0  0  0.34664  0  0.995159  0  0  0.359072  0  0.981657  0  0.655571  0  0.289883  0.337882  0  1.00449  0
H  H29  1  0.32732129  0.61721242  0.51681948  1  0  0.373676  0  0.919099  0  0  0.346637  0  0.995139  0  0  0.359069  0  0.981638  0  0.655538  0  0.28987  0.337878  0  1.004474  0
H  H30  1  0.86506611  0.55722413  0.62666136  1  0  0.106352  0  0.974163  0  0  0.111889  0  1.045727  0  0  0.115802  0  1.043091  0  0.083155  0  0.097094  0.109029  0  1.047712  0
H  H31  1  0.13493561  0.44277448  0.37333749  1  0  0.106326  0  0.974149  0  0  0.111872  0  1.045704  0  0  0.115783  0  1.043071  0  0.083135  0  0.097081  0.109012  0  1.047689  0
H  H32  1  0.54436882  0.11731542  0.35195465  1  0  0.046854  0  0.916792  0  0  0.055772  0  0.983611  0  0  0.058115  0  0.977634  0  0.097082  0  0.123016  0.053892  0  0.988015  0
H  H33  1  0.45563029  0.88268435  0.64804591  1  0  0.046844  0  0.916711  0  0  0.055757  0  0.983548  0  0  0.0581  0  0.97757  0  0.09681  0  0.123005  0.053877  0  0.987952  0
H  H34  1  0.82030779  0.71460111  0.32474910  1  0  0.100531  0  0.929292  0  0  0.121695  0  0.991437  0  0  0.12123  0  0.992722  0  0.07151  0  0.1037  0.121893  0  0.990642  0
H  H35  1  0.17969226  0.28539982  0.67524960  1  0  0.100491  0  0.929292  0  0  0.121675  0  0.991425  0  0  0.121208  0  0.992709  0  0.071495  0  0.103687  0.121872  0  0.990629  0
H  H36  1  0.63349486  0.66969389  0.29816895  1  0  0.10104  0  0.967033  0  0  0.119544  0  1.033954  0  0  0.119271  0  1.036  0  0.07516  0  0.103415  0.119593  0  1.032689  0
H  H37  1  0.36650377  0.33030821  0.70183026  1  0  0.101031  0  0.967013  0  0  0.119538  0  1.033941  0  0  0.119264  0  1.035989  0  0.075165  0  0.103428  0.119588  0  1.032676  0
H  H38  1  0.71535437  0.81315355  0.23505664  1  0  0.107396  0  0.950057  0  0  0.12288  0  1.018798  0  0  0.1246  0  1.017662  0  0.091918  0  0.103716  0.121561  0  1.019687  0
H  H39  1  0.28464282  0.18684971  0.76494249  1  0  0.107436  0  0.95  0  0  0.122916  0  1.01875  0  0  0.124634  0  1.017612  0  0.091948  0  0.103731  0.121598  0  1.019638  0
H  H40  1  0.47254351  0.93863265  0.43886931  1  0  0.097209  0  0.939725  0  0  0.117211  0  1.003169  0  0  0.117717  0  1.002897  0  0.055682  0  0.109404  0.116718  0  1.003483  0
H  H41  1  0.52745987  0.06136363  0.56113207  1  0  0.097151  0  0.939801  0  0  0.11718  0  1.003213  0  0  0.117686  0  1.00294  0  0.056022  0  0.109393  0.116688  0  1.003528  0
H  H42  1  0.46209921  0.75642747  0.40749034  1  0  0.114931  0  0.949327  0  0  0.131881  0  1.014704  0  0  0.133189  0  1.014326  0  0.101598  0  0.108952  0.130846  0  1.015067  0
H  H43  1  0.53790368  0.24357113  0.59251087  1  0  0.114916  0  0.949329  0  0  0.131866  0  1.014708  0  0  0.133173  0  1.014329  0  0.101746  0  0.108939  0.130831  0  1.015071  0
H  H44  1  0.63780313  0.77580779  0.45963017  1  0  0.106109  0  0.925642  0  0  0.126319  0  0.98491  0  0  0.126547  0  0.985631  0  0.077769  0  0.105284  0.126039  0  0.9845  0
H  H45  1  0.36220001  0.22418965  0.54036994  1  0  0.106128  0  0.925601  0  0  0.126307  0  0.984899  0  0  0.126533  0  0.985622  0  0.077769  0  0.1053  0.12603  0  0.984491  0
C  C46  1  0.97675809  0.58210463  0.16479721  1  0  0.210538  0  3.664908  0  0  0.15299  0  3.927964  0  0  0.167507  0  3.939988  0  0.938049  0  0.143365  0.143636  0  3.919437  0
C  C47  1  0.02324078  0.41789630  0.83520267  1  0  0.210508  0  3.664879  0  0  0.152947  0  3.927958  0  0  0.167473  0  3.939971  0  0.938096  0  0.143326  0.143591  0  3.919433  0
C  C48  1  0.28873324  0.63326424  0.26502584  1  0  -0.027349  0  3.687669  0  0  -0.06704  0  3.950659  0  0  -0.065546  0  3.968943  0  0.2667  0  0.003221  -0.068027  0  3.938393  0
C  C49  1  0.71126612  0.36673436  0.73497420  1  0  -0.027268  0  3.687662  0  0  -0.066955  0  3.950659  0  0  -0.065458  0  3.968939  0  0.266697  0  0.003239  -0.067943  0  3.938393  0
C  C50  1  0.23246118  0.69053557  0.98241175  1  0  0.191749  0  3.70134  0  0  0.131595  0  3.973123  0  0  0.145577  0  3.985203  0  0.956874  0  0.136203  0.122573  0  3.96462  0
C  C51  1  0.76753602  0.30946768  0.01758798  1  0  0.191722  0  3.701234  0  0  0.131588  0  3.973026  0  0  0.145567  0  3.985106  0  0.957151  0  0.136203  0.122553  0  3.964519  0
C  C52  1  0.24192876  0.00229727  0.18826357  1  0  -0.049901  0  3.721491  0  0  -0.087659  0  3.981217  0  0  -0.086872  0  4.001141  0  0.319583  0  -0.007303  -0.088112  0  3.967773  0
C  C53  1  0.75807319  0.99770017  0.81173773  1  0  -0.049878  0  3.721541  0  0  -0.08764  0  3.981284  0  0  -0.086853  0  4.001209  0  0.319653  0  -0.007296  -0.08809  0  3.967837  0
C  C54  1  0.89375893  0.75537650  0.05997063  1  0  -0.042437  0  3.721346  0  0  -0.077605  0  3.979669  0  0  -0.076175  0  3.998786  0  0.210277  0  -0.004436  -0.078531  0  3.966854  0
C  C55  1  0.10623969  0.24462560  0.94002976  1  0  -0.042353  0  3.721317  0  0  -0.07752  0  3.979633  0  0  -0.07609  0  3.998751  0  0.210315  0  -0.004403  -0.078448  0  3.966822  0
C  C56  1  0.41461008  0.51305631  0.29143305  1  0  -0.008458  0  3.749646  0  0  -0.039749  0  4.016537  0  0  -0.037816  0  4.035618  0  0.412093  0  -0.005859  -0.041043  0  4.003732  0
C  C57  1  0.58538785  0.48694346  0.70856692  1  0  -0.008505  0  3.749726  0  0  -0.0398  0  4.016611  0  0  -0.037869  0  4.035694  0  0.412097  0  -0.005885  -0.041094  0  4.003805  0
C  C58  1  0.42022810  0.54807922  0.16183045  1  0  0.201338  0  3.694888  0  0  0.142037  0  3.959123  0  0  0.156596  0  3.971589  0  0.969769  0  0.137181  0.132641  0  3.950265  0
C  C59  1  0.57977195  0.45192171  0.83816942  1  0  0.201451  0  3.694854  0  0  0.142154  0  3.9591  0  0  0.156714  0  3.971567  0  0.969739  0  0.137245  0.132756  0  3.950242  0
C  C60  1  0.36278720  0.86669530  0.01267369  1  0  -0.038531  0  3.716819  0  0  -0.077996  0  3.976519  0  0  -0.076216  0  3.995448  0  0.30882  0  -0.003304  -0.079133  0  3.963744  0
C  C61  1  0.63721736  0.13330098  0.98732709  1  0  -0.038512  0  3.716708  0  0  -0.07798  0  3.976415  0  0  -0.076202  0  3.995343  0  0.308919  0  -0.003293  -0.079117  0  3.963641  0
C  C62  1  0.15373339  0.14093104  0.20669345  1  0  -0.002024  0  3.76148  0  0  -0.032369  0  4.021505  0  0  -0.030425  0  4.042438  0  0.388499  0  -0.007605  -0.033641  0  4.007339  0
C  C63  1  0.84626739  0.85906641  0.79330844  1  0  -0.001991  0  3.761419  0  0  -0.032373  0  4.02144  0  0  -0.030429  0  4.042374  0  0.38853  0  -0.007665  -0.033647  0  4.007273  0
C  C64  1  0.98748929  0.02507466  0.15318091  1  0  0.20906  0  3.673962  0  0  0.150069  0  3.938807  0  0  0.165006  0  3.950308  0  0.929059  0  0.139137  0.140386  0  3.930672  0
C  C65  1  0.01250933  0.97492743  0.84681948  1  0  0.209085  0  3.673994  0  0  0.150082  0  3.938845  0  0  0.16502  0  3.950346  0  0.929703  0  0.139109  0.1404  0  3.930711  0
C  C66  1  0.40997206  0.82525142  0.93914187  1  0  -0.011251  0  3.766582  0  0  -0.039079  0  4.029751  0  0  -0.03721  0  4.048683  0  0.356284  0  -0.009705  -0.040309  0  4.016966  0
C  C67  1  0.59002823  0.17474835  0.06085750  1  0  -0.011118  0  3.766435  0  0  -0.038976  0  4.029607  0  0  -0.037109  0  4.04854  0  0.356181  0  -0.009669  -0.040207  0  4.016822  0
C  C68  1  0.78378725  0.66081522  0.07622598  1  0  -0.020146  0  3.789236  0  0  -0.049414  0  4.0533  0  0  -0.047942  0  4.074126  0  0.480208  0  -0.016227  -0.050359  0  4.039227  0
C  C69  1  0.21621398  0.33918572  0.92377389  1  0  -0.020202  0  3.789361  0  0  -0.049465  0  4.053427  0  0  -0.047992  0  4.074255  0  0.480099  0  -0.016224  -0.05041  0  4.039355  0
C  C70  1  0.84072247  0.36889096  0.38251814  1  0  0.649434  0  3.92622  0  0  0.600879  0  4.218627  0  0  0.636349  0  4.209271  0  1.541409  0  0.195387  0.576803  0  4.224109  0
C  C71  1  0.15927806  0.63110765  0.61748131  1  0  0.649404  0  3.926165  0  0  0.600842  0  4.218562  0  0  0.636314  0  4.209209  0  1.541147  0  0.195398  0.576769  0  4.224045  0
C  C72  1  0.92450688  0.43273787  0.44394280  1  0  -0.180366  0  3.797191  0  0  -0.165062  0  4.040009  0  0  -0.173694  0  4.060977  0  -0.04513  0  -0.039936  -0.159384  0  4.025905  0
C  C73  1  0.07549674  0.56725725  0.55605807  1  0  -0.180274  0  3.79703  0  0  -0.164922  0  4.03982  0  0  -0.173564  0  4.060799  0  -0.04491  0  -0.039959  -0.159254  0  4.02573  0
C  C74  1  0.92336586  0.53152283  0.57106193  1  0  -0.187168  0  3.76083  0  0  -0.220263  0  4.022893  0  0  -0.221516  0  4.039531  0  -0.007572  0  -0.114144  -0.219262  0  4.011747  0
C  C75  1  0.07663492  0.46847461  0.42893878  1  0  -0.1871  0  3.760911  0  0  -0.220173  0  4.022988  0  0  -0.221429  0  4.039624  0  -0.007704  0  -0.114158  -0.219175  0  4.011838  0
C  C76  1  0.84646648  0.46413700  0.51629043  1  0  0.288566  0  3.853195  0  0  0.274934  0  4.12026  0  0  0.285074  0  4.137466  0  0.505233  0  0.065776  0.267841  0  4.108516  0
C  C77  1  0.15353714  0.53585811  0.48370985  1  0  0.28849  0  3.853122  0  0  0.274804  0  4.120241  0  0  0.284947  0  4.137449  0  0.505501  0  0.065767  0.267715  0  4.108499  0
C  C78  1  0.60619417  0.03499734  0.31258470  1  0  0.387851  0  3.828804  0  0  0.314222  0  4.113684  0  0  0.342974  0  4.113322  0  1.378049  0  0.172247  0.294966  0  4.113343  0
C  C79  1  0.39380115  0.96500360  0.68741519  1  0  0.387894  0  3.828655  0  0  0.314263  0  4.113537  0  0  0.343016  0  4.113177  0  1.378268  0  0.172301  0.295008  0  4.113196  0
C  C80  1  0.70069081  0.76353553  0.29687912  1  0  -0.168178  0  3.637446  0  0  -0.268688  0  3.885557  0  0  -0.264871  0  3.895994  0  0.231347  0  -0.139548  -0.271015  0  3.878523  0
C  C81  1  0.29930923  0.23646540  0.70311957  1  0  -0.168175  0  3.637368  0  0  -0.268694  0  3.885488  0  0  -0.264873  0  3.895923  0  0.231326  0  -0.139554  -0.271022  0  3.878454  0
C  C82  1  0.54266949  0.83621926  0.41584717  1  0  -0.176584  0  3.663269  0  0  -0.275415  0  3.908779  0  0  -0.27205  0  3.919736  0  0.246799  0  -0.129517  -0.27737  0  3.901286  0
C  C83  1  0.45733365  0.16377818  0.58415354  1  0  -0.176554  0  3.663279  0  0  -0.275371  0  3.908783  0  0  -0.272005  0  3.919743  0  0.246336  0  -0.129514  -0.277329  0  3.901287  0
N  N84  1  0.49634706  0.46137819  0.22597452  1  0  -0.394069  0  3.261232  0  0  -0.315719  0  3.540125  0  0  -0.336585  0  3.557141  0  -1.220109  0  -0.363222  -0.301423  0  3.528029  0
N  N85  1  0.50365111  0.53862042  0.77402553  1  0  -0.394056  0  3.261272  0  0  -0.315703  0  3.540162  0  0  -0.33657  0  3.557178  0  -1.220086  0  -0.363233  -0.301408  0  3.528066  0
N  N86  1  0.13461686  0.92834725  0.15421429  1  0  -0.327922  0  3.497934  0  0  -0.226013  0  3.731212  0  0  -0.244084  0  3.751457  0  -1.466438  0  -0.234546  -0.213872  0  3.717274  0
N  N87  1  0.86538319  0.07165368  0.84578618  1  0  -0.327959  0  3.498029  0  0  -0.226046  0  3.7313  0  0  -0.244118  0  3.751546  0  -1.46651  0  -0.23455  -0.21391  0  3.71736  0
N  N88  1  0.01727444  0.70439244  0.11684961  1  0  -0.331639  0  3.504651  0  0  -0.229329  0  3.734733  0  0  -0.247938  0  3.756197  0  -1.447606  0  -0.233326  -0.216805  0  3.7199  0
N  N89  1  0.98272585  0.29560733  0.88314976  1  0  -0.331655  0  3.504644  0  0  -0.229351  0  3.734726  0  0  -0.247961  0  3.75619  0  -1.447654  0  -0.233318  -0.216828  0  3.719892  0
N  N90  1  0.99459036  0.15370088  0.18416443  1  0  -0.38133  0  3.229097  0  0  -0.30604  0  3.501939  0  0  -0.326645  0  3.520059  0  -1.207161  0  -0.35694  -0.291952  0  3.4892  0
N  N91  1  0.00541230  0.84629888  0.81583730  1  0  -0.381315  0  3.228895  0  0  -0.30602  0  3.501743  0  0  -0.326628  0  3.519865  0  -1.207833  0  -0.356876  -0.291932  0  3.489005  0
N  N92  1  0.24840781  0.78091503  0.03984042  1  0  -0.331941  0  3.510719  0  0  -0.231744  0  3.746252  0  0  -0.24998  0  3.767303  0  -1.462166  0  -0.234897  -0.219464  0  3.73171  0
N  N93  1  0.75159224  0.21908590  0.96015945  1  0  -0.33197  0  3.510606  0  0  -0.23179  0  3.746154  0  0  -0.250021  0  3.767195  0  -1.462402  0  -0.234912  -0.219514  0  3.731621  0
N  N94  1  0.83731471  0.55239125  0.14202644  1  0  -0.390007  0  3.203066  0  0  -0.319348  0  3.479944  0  0  -0.339001  0  3.497641  0  -1.233739  0  -0.356041  -0.305895  0  3.467476  0
N  N95  1  0.16268534  0.44760968  0.85797284  1  0  -0.389988  0  3.203167  0  0  -0.319328  0  3.480039  0  0  -0.33898  0  3.497734  0  -1.233751  0  -0.356019  -0.305873  0  3.467568  0
N  N96  1  0.32739018  0.71453019  0.92088240  1  0  -0.390419  0  3.204962  0  0  -0.32019  0  3.48071  0  0  -0.339344  0  3.497752  0  -1.198116  0  -0.357272  -0.307059  0  3.468699  0
N  N97  1  0.67260726  0.28547190  0.07911681  1  0  -0.390479  0  3.204858  0  0  -0.320249  0  3.480603  0  0  -0.339402  0  3.497646  0  -1.198126  0  -0.357317  -0.307118  0  3.468597  0
N  N98  1  0.29336330  0.65531037  0.18221641  1  0  -0.332418  0  3.521477  0  0  -0.230319  0  3.754006  0  0  -0.248562  0  3.775223  0  -1.507399  0  -0.23402  -0.218031  0  3.739344  0
N  N99  1  0.70663581  0.34468940  0.81778355  1  0  -0.332459  0  3.521567  0  0  -0.230379  0  3.754116  0  0  -0.248625  0  3.775339  0  -1.507366  0  -0.234025  -0.218092  0  3.739452  0
N  N100  1  0.61268108  0.88478049  0.34005918  1  0  -0.091087  0  3.506456  0  0  0.014316  0  3.738575  0  0  -0.006091  0  3.76385  0  -1.209768  0  -0.281328  0.027997  0  3.72096  0
N  N101  1  0.38731921  0.11521928  0.65994077  1  0  -0.091064  0  3.506374  0  0  0.014329  0  3.738497  0  0  -0.006079  0  3.763773  0  -1.209771  0  -0.281341  0.028012  0  3.720883  0
O  O102  1  0.70681653  0.32777609  0.40038825  1  0  -0.634894  0  1.930762  0  0  -0.582373  0  2.145093  0  0  -0.60614  0  2.133016  0  -1.178485  0  -0.331064  -0.565805  0  2.152757  0
O  O103  1  0.29318258  0.67222367  0.59961112  1  0  -0.634865  0  1.93077  0  0  -0.582346  0  2.145112  0  0  -0.606107  0  2.133026  0  -1.178461  0  -0.331038  -0.565777  0  2.152776  0
O  O104  1  0.69846336  0.43129627  0.53228477  1  0  -0.533799  0  2.101966  0  0  -0.486907  0  2.316421  0  0  -0.506443  0  2.307783  0  -1.190263  0  -0.364822  -0.472881  0  2.321811  0
O  O105  1  0.30153953  0.56870234  0.46771467  1  0  -0.533779  0  2.101931  0  0  -0.486865  0  2.316407  0  0  -0.506403  0  2.307769  0  -1.190284  0  -0.364783  -0.472838  0  2.321793  0
O  O106  1  0.90550785  0.36323033  0.31419275  1  0  -0.638028  0  2.028565  0  0  -0.570286  0  2.282391  0  0  -0.598353  0  2.270628  0  -1.17387  0  -0.337363  -0.550598  0  2.289612  0
O  O107  1  0.09449126  0.63676944  0.68580662  1  0  -0.638041  0  2.028471  0  0  -0.570307  0  2.282303  0  0  -0.598375  0  2.270542  0  -1.173854  0  -0.337407  -0.550618  0  2.289524  0
O  O108  1  0.66500143  0.08063234  0.24763654  1  0  -0.545459  0  2.092505  0  0  -0.486906  0  2.356012  0  0  -0.51164  0  2.348279  0  -1.178407  0  -0.314618  -0.469688  0  2.360587  0
O  O109  1  0.33499365  0.91936976  0.75236386  1  0  -0.545497  0  2.092489  0  0  -0.486946  0  2.356005  0  0  -0.511678  0  2.348268  0  -1.178355  0  -0.314653  -0.469727  0  2.36058  0
