# generated using pymatgen
data_ZnH23C24N5O6
_symmetry_space_group_name_H-M   'P 1'
_cell_length_a   10.05458351
_cell_length_b   11.90442346
_cell_length_c   12.00211995
_cell_angle_alpha   119.51680109
_cell_angle_beta   95.57574703
_cell_angle_gamma   103.50878828
_symmetry_Int_Tables_number   1
_chemical_formula_structural   ZnH23C24N5O6
_chemical_formula_sum   'Zn2 H46 C48 N10 O12'
_cell_volume   1176.67972283
_cell_formula_units_Z   2
loop_
 _symmetry_equiv_pos_site_id
 _symmetry_equiv_pos_as_xyz
  1  'x, y, z'
loop_
 _atom_site_type_symbol
 _atom_site_label
 _atom_site_symmetry_multiplicity
 _atom_site_fract_x
 _atom_site_fract_y
 _atom_site_fract_z
 _atom_site_occupancy
 _atom_site_hle17_bader_spin_density
 _atom_site_hle17_ddec_charge
 _atom_site_hle17_ddec_spin_density
 _atom_site_hle17_ddec_sum_bond_order
 _atom_site_hle17_magmom
 _atom_site_hse06_10hf_bader_spin_density
 _atom_site_hse06_10hf_ddec_charge
 _atom_site_hse06_10hf_ddec_spin_density
 _atom_site_hse06_10hf_ddec_sum_bond_order
 _atom_site_hse06_10hf_magmom
 _atom_site_hse06_bader_spin_density
 _atom_site_hse06_ddec_charge
 _atom_site_hse06_ddec_spin_density
 _atom_site_hse06_ddec_sum_bond_order
 _atom_site_hse06_magmom
 _atom_site_pbe_bader_spin_density
 _atom_site_pbe_cm5_charge
 _atom_site_pbe_ddec_charge
 _atom_site_pbe_ddec_spin_density
 _atom_site_pbe_ddec_sum_bond_order
 _atom_site_pbe_magmom
Zn  Zn0  1  0.40233828  0.29812147  0.51999056  1  0  1.002072  0  1.844449  0  0  0.810212  0  2.313398  0  0  0.857426  0  2.258991  0  0  0.700206  0.777348  0  2.350798  0
Zn  Zn1  1  0.59766277  0.70187590  0.48000740  1  0  1.002046  0  1.84454  0  0  0.810219  0  2.313509  0  0  0.857432  0  2.259109  0  0  0.700195  0.777357  0  2.350912  0
H  H2  1  0.99085390  0.50380378  0.29196541  1  0  0.10669  0  0.961353  0  0  0.113429  0  1.029171  0  0  0.117512  0  1.025371  0  0  0.108403  0.110471  0  1.031929  0
H  H3  1  0.00915492  0.49620175  0.70803795  1  0  0.106681  0  0.961438  0  0  0.11347  0  1.029175  0  0  0.117546  0  1.025407  0  0  0.108444  0.110513  0  1.031938  0
H  H4  1  0.09645043  0.31968081  0.24278374  1  0  0.106626  0  0.939275  0  0  0.116104  0  0.997824  0  0  0.120017  0  0.995452  0  0  0.105906  0.113241  0  0.999785  0
H  H5  1  0.90355669  0.68032269  0.75721933  1  0  0.106627  0  0.939301  0  0  0.116096  0  0.997885  0  0  0.12001  0  0.995512  0  0  0.105918  0.113237  0  0.999846  0
H  H6  1  0.99278783  0.14570565  0.29960211  1  0  0.101645  0  0.98339  0  0  0.106305  0  1.051892  0  0  0.108542  0  1.052254  0  0  0.104883  0.104691  0  1.051718  0
H  H7  1  0.00721763  0.85429893  0.70040383  1  0  0.101572  0  0.98344  0  0  0.106315  0  1.051812  0  0  0.108548  0  1.052182  0  0  0.104903  0.104698  0  1.051639  0
H  H8  1  0.31260234  0.13263969  0.22340358  1  0  0.087561  0  0.935377  0  0  0.094849  0  1.001477  0  0  0.098583  0  0.996954  0  0  0.120645  0.091991  0  1.004894  0
H  H9  1  0.68739660  0.86735164  0.77659633  1  0  0.087527  0  0.935313  0  0  0.094752  0  1.001488  0  0  0.098487  0  0.996968  0  0  0.120624  0.09191  0  1.004896  0
H  H10  1  0.12533977  0.91503817  0.04467228  1  0  0.112432  0  0.943333  0  0  0.125041  0  1.000262  0  0  0.128005  0  0.999945  0  0  0.110679  0.122803  0  1.000832  0
H  H11  1  0.87465623  0.08495624  0.95532882  1  0  0.112403  0  0.943409  0  0  0.125004  0  1.000347  0  0  0.127967  0  1.000032  0  0  0.110679  0.122756  0  1.000926  0
H  H12  1  0.98475542  0.86588630  0.35092613  1  0  0.124091  0  0.928738  0  0  0.13604  0  0.984503  0  0  0.138847  0  0.984041  0  0  0.115913  0.133923  0  0.985108  0
H  H13  1  0.01524530  0.13411322  0.64907865  1  0  0.124117  0  0.928745  0  0  0.136016  0  0.984571  0  0  0.138859  0  0.984065  0  0  0.11588  0.133896  0  0.985185  0
H  H14  1  0.17473364  0.08662104  0.51718766  1  0  0.081197  0  0.960026  0  0  0.08298  0  1.037167  0  0  0.086141  0  1.033621  0  0  0.115543  0.080697  0  1.039706  0
H  H15  1  0.82526775  0.91337741  0.48281417  1  0  0.081203  0  0.960068  0  0  0.082984  0  1.037147  0  0  0.086144  0  1.033591  0  0  0.115555  0.080701  0  1.039681  0
H  H16  1  0.84289388  0.71715692  0.12644307  1  0  0.052679  0  0.937656  0  0  0.066322  0  1.007368  0  0  0.067269  0  1.006913  0  0  0.093219  0.065618  0  1.007859  0
H  H17  1  0.15710473  0.28283333  0.87355296  1  0  0.052716  0  0.937616  0  0  0.066328  0  1.007365  0  0  0.067276  0  1.006913  0  0  0.093221  0.065624  0  1.007859  0
H  H18  1  0.88195256  0.74501709  0.99843462  1  0  0.072059  0  0.91362  0  0  0.09145  0  0.96949  0  0  0.092346  0  0.968518  0  0  0.108118  0.090846  0  0.970035  0
H  H19  1  0.11804653  0.25498340  0.00156714  1  0  0.072068  0  0.913631  0  0  0.091446  0  0.969508  0  0  0.092344  0  0.968534  0  0  0.108113  0.090841  0  0.970048  0
H  H20  1  0.96648938  0.58778758  0.17973487  1  0  0.050901  0  0.937903  0  0  0.065723  0  1.010007  0  0  0.066816  0  1.008207  0  0  0.091241  0.064683  0  1.011541  0
H  H21  1  0.03351504  0.41221073  0.82025967  1  0  0.050899  0  0.93786  0  0  0.065683  0  1.010042  0  0  0.066778  0  1.008237  0  0  0.091217  0.064645  0  1.011579  0
H  H22  1  0.13288353  0.70506111  0.21120403  1  0  0.066809  0  0.951974  0  0  0.084483  0  1.013733  0  0  0.083972  0  1.015825  0  0  0.100854  0.085101  0  1.01192  0
H  H23  1  0.86711789  0.29493723  0.78879109  1  0  0.066827  0  0.951898  0  0  0.084505  0  1.013645  0  0  0.083994  0  1.015731  0  0  0.100872  0.085127  0  1.011834  0
H  H24  1  0.84440937  0.51671546  0.84405568  1  0  0.079364  0  0.928768  0  0  0.099808  0  0.985318  0  0  0.100077  0  0.985586  0  0  0.107394  0.099723  0  0.984981  0
H  H25  1  0.15559440  0.48328389  0.15594012  1  0  0.079398  0  0.928729  0  0  0.09984  0  0.985276  0  0  0.100103  0  0.985542  0  0  0.107407  0.099752  0  0.984937  0
H  H26  1  0.79579943  0.47381998  0.96066911  1  0  0.034713  0  0.932053  0  0  0.050289  0  1.003304  0  0  0.050772  0  1.003447  0  0  0.084997  0.050079  0  1.003158  0
H  H27  1  0.20420533  0.52617934  0.03932594  1  0  0.034753  0  0.932172  0  0  0.050355  0  1.003351  0  0  0.05083  0  1.003495  0  0  0.085031  0.050144  0  1.003207  0
H  H28  1  0.34387619  0.39863423  0.78569159  1  0  0.083226  0  0.953991  0  0  0.090513  0  1.020441  0  0  0.093469  0  1.017359  0  0  0.117129  0.088249  0  1.022779  0
H  H29  1  0.65611149  0.60135915  0.21430578  1  0  0.083343  0  0.953984  0  0  0.090603  0  1.020458  0  0  0.09356  0  1.017374  0  0  0.117147  0.088338  0  1.022795  0
H  H30  1  0.42364824  0.39004617  0.98561831  1  0  0.103028  0  0.961077  0  0  0.113881  0  1.020763  0  0  0.11661  0  1.020938  0  0  0.106518  0.111814  0  1.02108  0
H  H31  1  0.57634581  0.60995129  0.01438240  1  0  0.103096  0  0.961038  0  0  0.113926  0  1.020746  0  0  0.116654  0  1.020922  0  0  0.106544  0.11186  0  1.021068  0
H  H32  1  0.62643508  0.10315589  0.75441415  1  0  0.114134  0  0.953208  0  0  0.121494  0  1.017511  0  0  0.124232  0  1.017958  0  0  0.109903  0.119433  0  1.01751  0
H  H33  1  0.37357073  0.89684968  0.24559063  1  0  0.114095  0  0.95338  0  0  0.121528  0  1.017592  0  0  0.124267  0  1.018037  0  0  0.109932  0.119463  0  1.01759  0
H  H34  1  0.54349399  0.12668366  0.56585606  1  0  0.081203  0  0.956447  0  0  0.08882  0  1.02276  0  0  0.091356  0  1.020097  0  0  0.118685  0.086892  0  1.024846  0
H  H35  1  0.45651153  0.87332394  0.43414882  1  0  0.081157  0  0.95643  0  0  0.088809  0  1.022784  0  0  0.091345  0  1.020121  0  0  0.118676  0.086884  0  1.024869  0
H  H36  1  0.70827292  0.29116024  0.03588682  1  0  0.084531  0  0.912275  0  0  0.097699  0  0.980849  0  0  0.099052  0  0.979696  0  0  0.109391  0.096076  0  0.982745  0
H  H37  1  0.29172219  0.70884342  0.96412109  1  0  0.084547  0  0.912295  0  0  0.09769  0  0.980908  0  0  0.099041  0  0.979756  0  0  0.109407  0.09607  0  0.982799  0
H  H38  1  0.55213870  0.31096068  0.09059798  1  0  0.054649  0  0.912728  0  0  0.069399  0  0.976839  0  0  0.071118  0  0.974859  0  0  0.093465  0.068099  0  0.978299  0
H  H39  1  0.44785170  0.68903781  0.90940289  1  0  0.054569  0  0.912792  0  0  0.069359  0  0.976875  0  0  0.071078  0  0.974896  0  0  0.093455  0.06806  0  0.978342  0
H  H40  1  0.59086226  0.16361573  0.17829122  1  0  0.058521  0  0.934757  0  0  0.069794  0  1.0097  0  0  0.07097  0  1.008773  0  0  0.091225  0.068918  0  1.0104  0
H  H41  1  0.40913783  0.83638474  0.82170979  1  0  0.058529  0  0.93471  0  0  0.069812  0  1.00966  0  0  0.070988  0  1.008732  0  0  0.091241  0.068937  0  1.010363  0
H  H42  1  0.74095057  0.15352370  0.11080974  1  0  0.050111  0  0.965635  0  0  0.067637  0  1.033095  0  0  0.066538  0  1.03582  0  0  0.095195  0.068434  0  1.031199  0
H  H43  1  0.25904615  0.84647265  0.88918651  1  0  0.050114  0  0.965633  0  0  0.067638  0  1.033127  0  0  0.06654  0  1.035851  0  0  0.095187  0.068436  0  1.031231  0
H  H44  1  0.35281482  0.03956101  0.85856257  1  0  0.066577  0  0.957335  0  0  0.081678  0  1.02046  0  0  0.081876  0  1.02147  0  0  0.098137  0.081596  0  1.0197  0
H  H45  1  0.64718325  0.96043634  0.14143345  1  0  0.066615  0  0.957334  0  0  0.081676  0  1.020476  0  0  0.081871  0  1.021489  0  0  0.098132  0.08159  0  1.019716  0
H  H46  1  0.35997952  0.09878806  0.02830776  1  0  0.032141  0  0.928552  0  0  0.048503  0  0.996519  0  0  0.049722  0  0.994499  0  0  0.085305  0.047644  0  0.997839  0
H  H47  1  0.64001256  0.90120932  0.97168773  1  0  0.032123  0  0.928521  0  0  0.048497  0  0.996458  0  0  0.049711  0  0.994443  0  0  0.08528  0.047637  0  0.997785  0
C  C48  1  0.67245709  0.36368123  0.49593398  1  0  0.667486  0  3.951047  0  0  0.610158  0  4.262275  0  0  0.645313  0  4.252072  0  0  0.19927  0.58602  0  4.268426  0
C  C49  1  0.32753087  0.63630053  0.50403623  1  0  0.667702  0  3.951631  0  0  0.61037  0  4.262899  0  0  0.645521  0  4.252691  0  0  0.199293  0.586229  0  4.269053  0
C  C50  1  0.78821245  0.35127734  0.42233760  1  0  -0.049855  0  3.620248  0  0  -0.042439  0  3.853929  0  0  -0.041678  0  3.871059  0  0  0.017672  -0.043016  0  3.842661  0
C  C51  1  0.21178937  0.64872506  0.57765864  1  0  -0.05043  0  3.621914  0  0  -0.042648  0  3.853933  0  0  -0.041885  0  3.871063  0  0  0.017664  -0.043219  0  3.842661  0
C  C52  1  0.83953377  0.44113242  0.37999088  1  0  -0.077911  0  3.69014  0  0  -0.059391  0  3.920149  0  0  -0.06923  0  3.944243  0  0  -0.008681  -0.053218  0  3.904235  0
C  C53  1  0.16046737  0.55887108  0.62000999  1  0  -0.077879  0  3.689997  0  0  -0.059322  0  3.920156  0  0  -0.069161  0  3.944251  0  0  -0.008689  -0.05315  0  3.904245  0
C  C54  1  0.94972550  0.42818792  0.31670928  1  0  -0.027806  0  3.689327  0  0  -0.063409  0  3.953468  0  0  -0.059828  0  3.970429  0  0  -0.067576  -0.065609  0  3.94222  0
C  C55  1  0.05028393  0.57181350  0.68329051  1  0  -0.027857  0  3.689403  0  0  -0.063511  0  3.953684  0  0  -0.05994  0  3.970623  0  0  -0.067615  -0.065713  0  3.942449  0
C  C56  1  0.00713502  0.32376773  0.28739215  1  0  -0.065909  0  3.7496  0  0  -0.083475  0  4.015445  0  0  -0.087052  0  4.032948  0  0  -0.088  -0.081499  0  4.004017  0
C  C57  1  0.99286741  0.67623376  0.71261039  1  0  -0.065822  0  3.74945  0  0  -0.083365  0  4.015386  0  0  -0.086939  0  4.032886  0  0  -0.08796  -0.081391  0  4.003964  0
C  C58  1  0.95284570  0.22970912  0.32119560  1  0  -0.0824  0  3.73329  0  0  -0.108932  0  3.993347  0  0  -0.106081  0  4.010559  0  0  -0.077613  -0.110663  0  3.981781  0
C  C59  1  0.04715773  0.77029236  0.67880618  1  0  -0.082945  0  3.735492  0  0  -0.108955  0  3.99344  0  0  -0.106107  0  4.010659  0  0  -0.077672  -0.11068  0  3.981869  0
C  C60  1  0.84692304  0.24609633  0.38943876  1  0  0.056495  0  3.674958  0  0  0.036026  0  3.923599  0  0  0.032241  0  3.943934  0  0  0.082005  0.03831  0  3.910223  0
C  C61  1  0.15307610  0.75390720  0.61056278  1  0  0.048422  0  3.670657  0  0  0.03604  0  3.923666  0  0  0.03225  0  3.944004  0  0  0.082005  0.038324  0  3.910288  0
C  C62  1  0.78000101  0.55311479  0.39926124  1  0  0.629626  0  3.935424  0  0  0.581905  0  4.228577  0  0  0.61534  0  4.22359  0  0  0.197724  0.559252  0  4.231075  0
C  C63  1  0.22000479  0.44688761  0.60073620  1  0  0.629797  0  3.935335  0  0  0.582055  0  4.22853  0  0  0.61549  0  4.223541  0  0  0.197783  0.559405  0  4.23103  0
C  C64  1  0.23513729  0.07167426  0.24663010  1  0  0.129121  0  3.707333  0  0  0.096415  0  3.96095  0  0  0.103993  0  3.977551  0  0  0.049584  0.091529  0  3.94989  0
C  C65  1  0.76486439  0.92832217  0.75337247  1  0  0.129212  0  3.707298  0  0  0.096578  0  3.960945  0  0  0.104148  0  3.977555  0  0  0.049617  0.091676  0  3.949887  0
C  C66  1  0.13150310  0.95092910  0.14853037  1  0  -0.164409  0  3.701295  0  0  -0.184077  0  3.95044  0  0  -0.191698  0  3.970769  0  0  -0.079705  -0.179157  0  3.937045  0
C  C67  1  0.86849290  0.04906531  0.85147074  1  0  -0.164326  0  3.701351  0  0  -0.183974  0  3.950476  0  0  -0.191593  0  3.9708  0  0  -0.079657  -0.179045  0  3.937086  0
C  C68  1  0.03777434  0.87470609  0.18435479  1  0  0.138202  0  3.717425  0  0  0.152671  0  3.954499  0  0  0.158164  0  3.974763  0  0  0.017777  0.148892  0  3.940625  0
C  C69  1  0.96222270  0.12529138  0.81564786  1  0  0.138128  0  3.717325  0  0  0.152587  0  3.954428  0  0  0.158087  0  3.974688  0  0  0.017745  0.148812  0  3.940554  0
C  C70  1  0.05317923  0.92394860  0.31895319  1  0  -0.145984  0  3.683351  0  0  -0.166348  0  3.934665  0  0  -0.173545  0  3.954493  0  0  -0.075325  -0.161642  0  3.921437  0
C  C71  1  0.94681980  0.07604887  0.68104963  1  0  -0.146055  0  3.683632  0  0  -0.16638  0  3.934999  0  0  -0.173607  0  3.954813  0  0  -0.075291  -0.161672  0  3.921774  0
C  C72  1  0.15850668  0.04581918  0.41162309  1  0  0.138965  0  3.699219  0  0  0.100615  0  3.962739  0  0  0.108445  0  3.979323  0  0  0.048271  0.09551  0  3.951535  0
C  C73  1  0.84149475  0.95418232  0.58837936  1  0  0.13898  0  3.699359  0  0  0.100654  0  3.962903  0  0  0.108492  0  3.979487  0  0  0.048254  0.095554  0  3.95169  0
C  C74  1  0.92913063  0.73981877  0.08183334  1  0  -0.04894  0  3.718478  0  0  -0.108773  0  3.975179  0  0  -0.105395  0  3.985161  0  0  -0.060918  -0.110722  0  3.967798  0
C  C75  1  0.07086841  0.26017865  0.91816696  1  0  -0.048962  0  3.718421  0  0  -0.108758  0  3.975092  0  0  -0.105385  0  3.985087  0  0  -0.060929  -0.110709  0  3.967708  0
C  C76  1  0.05018281  0.61103198  0.13300341  1  0  -0.025085  0  3.678883  0  0  -0.081575  0  3.939669  0  0  -0.078332  0  3.951596  0  0  -0.075007  -0.083714  0  3.931132  0
C  C77  1  0.94982026  0.38896531  0.86699053  1  0  -0.024983  0  3.678615  0  0  -0.081539  0  3.939554  0  0  -0.078275  0  3.951461  0  0  -0.075011  -0.083682  0  3.93103  0
C  C78  1  0.88644171  0.50333557  0.92326259  1  0  -0.018069  0  3.688895  0  0  -0.075396  0  3.953807  0  0  -0.072185  0  3.965943  0  0  -0.070502  -0.077462  0  3.944887  0
C  C79  1  0.11356341  0.49666476  0.07673214  1  0  -0.01818  0  3.689148  0  0  -0.075529  0  3.95402  0  0  -0.072295  0  3.966131  0  0  -0.070584  -0.077601  0  3.945104  0
C  C80  1  0.40949889  0.33723336  0.78490806  1  0  0.134195  0  3.711063  0  0  0.102769  0  3.959791  0  0  0.110902  0  3.976493  0  0  0.048971  0.097624  0  3.948677  0
C  C81  1  0.59050011  0.66276100  0.21509078  1  0  0.13409  0  3.711043  0  0  0.102698  0  3.959725  0  0  0.110834  0  3.976423  0  0  0.04895  0.097554  0  3.948607  0
C  C82  1  0.45365530  0.33099712  0.89450497  1  0  -0.184301  0  3.741882  0  0  -0.201127  0  3.986834  0  0  -0.210351  0  4.009222  0  0  -0.086833  -0.195434  0  3.972568  0
C  C83  1  0.54633915  0.66900436  0.10549435  1  0  -0.184336  0  3.742104  0  0  -0.201138  0  3.987048  0  0  -0.210361  0  4.00944  0  0  -0.086804  -0.19545  0  3.972789  0
C  C84  1  0.53637388  0.24948898  0.88744978  1  0  0.142594  0  3.719876  0  0  0.156091  0  3.957173  0  0  0.161893  0  3.977904  0  0  0.01943  0.152167  0  3.943375  0
C  C85  1  0.46362820  0.75051151  0.11255308  1  0  0.142556  0  3.719963  0  0  0.156005  0  3.957333  0  0  0.1618  0  3.978078  0  0  0.019361  0.152079  0  3.943531  0
C  C86  1  0.56631309  0.17167632  0.76589117  1  0  -0.136842  0  3.652799  0  0  -0.155374  0  3.902643  0  0  -0.162809  0  3.922394  0  0  -0.073788  -0.150937  0  3.88976  0
C  C87  1  0.43368877  0.82833231  0.23411388  1  0  -0.136752  0  3.652733  0  0  -0.155331  0  3.902578  0  0  -0.162763  0  3.922331  0  0  -0.073798  -0.150891  0  3.889689  0
C  C88  1  0.51852905  0.18267056  0.66049128  1  0  0.150726  0  3.676202  0  0  0.1137  0  3.931946  0  0  0.121875  0  3.948567  0  0  0.053536  0.108485  0  3.920686  0
C  C89  1  0.48147577  0.81733500  0.33951256  1  0  0.150825  0  3.676148  0  0  0.113771  0  3.931959  0  0  0.121942  0  3.948581  0  0  0.053586  0.10855  0  3.920701  0
C  C90  1  0.59193012  0.24576864  0.00611283  1  0  -0.051871  0  3.712717  0  0  -0.110909  0  3.969552  0  0  -0.107713  0  3.979214  0  0  -0.058675  -0.112702  0  3.962652  0
C  C91  1  0.40806332  0.75423290  0.99388976  1  0  -0.051801  0  3.712577  0  0  -0.110854  0  3.969497  0  0  -0.107653  0  3.979153  0  0  -0.058668  -0.112646  0  3.962604  0
C  C92  1  0.62653362  0.10466851  0.08837595  1  0  -0.028661  0  3.698138  0  0  -0.086911  0  3.96188  0  0  -0.084369  0  3.975862  0  0  -0.075595  -0.088491  0  3.951813  0
C  C93  1  0.37346344  0.89532888  0.91162166  1  0  -0.028655  0  3.698022  0  0  -0.086912  0  3.961869  0  0  -0.084365  0  3.975847  0  0  -0.075591  -0.088493  0  3.951812  0
C  C94  1  0.40465614  0.04079924  0.94422806  1  0  -0.018984  0  3.692037  0  0  -0.073187  0  3.952741  0  0  -0.069827  0  3.964264  0  0  -0.073491  -0.075245  0  3.944208  0
C  C95  1  0.59533996  0.95920123  0.05577176  1  0  -0.019041  0  3.692055  0  0  -0.073196  0  3.952643  0  0  -0.069829  0  3.964168  0  0  -0.073468  -0.075249  0  3.944108  0
N  N96  1  0.44321047  0.26573853  0.67007691  1  0  -0.336914  0  3.326732  0  0  -0.250473  0  3.604383  0  0  -0.270093  0  3.618119  0  0  -0.331126  -0.237461  0  3.594896  0
N  N97  1  0.55678896  0.73426299  0.32992620  1  0  -0.337028  0  3.326823  0  0  -0.250599  0  3.604465  0  0  -0.270219  0  3.618201  0  0  -0.331192  -0.237588  0  3.594977  0
N  N98  1  0.55712105  0.10671223  0.97687217  1  0  -0.228012  0  3.232872  0  0  -0.152123  0  3.494738  0  0  -0.167246  0  3.515042  0  0  -0.343535  -0.14108  0  3.479876  0
N  N99  1  0.44287505  0.89328824  0.02312765  1  0  -0.227958  0  3.232691  0  0  -0.152089  0  3.494558  0  0  -0.167216  0  3.514857  0  0  -0.343532  -0.14105  0  3.479695  0
N  N100  1  0.24772378  0.11867503  0.37617533  1  0  -0.337937  0  3.31068  0  0  -0.251041  0  3.583502  0  0  -0.270529  0  3.598512  0  0  -0.332676  -0.237956  0  3.573458  0
N  N101  1  0.75227556  0.88132038  0.62382570  1  0  -0.337959  0  3.310531  0  0  -0.251121  0  3.583426  0  0  -0.270606  0  3.59843  0  0  -0.332717  -0.238035  0  3.573388  0
N  N102  1  0.99256501  0.63104607  0.02938250  1  0  -0.237264  0  3.201084  0  0  -0.163697  0  3.469704  0  0  -0.178854  0  3.489162  0  0  -0.344581  -0.152466  0  3.456192  0
N  N103  1  0.00743776  0.36895327  0.97061238  1  0  -0.237343  0  3.201067  0  0  -0.163725  0  3.469652  0  0  -0.178904  0  3.489122  0  0  -0.344559  -0.152492  0  3.45614  0
N  N104  1  0.79843350  0.14567599  0.42549588  1  0  0.487145  0  3.921829  0  0  0.542853  0  4.174826  0  0  0.565108  0  4.180832  0  0  0.0592  0.52766  0  4.171204  0
N  N105  1  0.20156399  0.85432856  0.57450600  1  0  0.516535  0  3.875605  0  0  0.542921  0  4.174897  0  0  0.565176  0  4.180908  0  0  0.059274  0.527727  0  4.171274  0
O  O106  1  0.54964126  0.27502115  0.42133288  1  0  -0.65359  0  2.020403  0  0  -0.585149  0  2.297753  0  0  -0.614915  0  2.281963  0  0  -0.341157  -0.563965  0  2.307886  0
O  O107  1  0.45036077  0.72497307  0.57865867  1  0  -0.653905  0  2.020248  0  0  -0.585403  0  2.297548  0  0  -0.615177  0  2.281763  0  0  -0.341259  -0.564216  0  2.307687  0
O  O108  1  0.70024550  0.44921282  0.61618111  1  0  -0.593946  0  1.896117  0  0  -0.553931  0  2.115677  0  0  -0.578968  0  2.107921  0  0  -0.316873  -0.53542  0  2.12006  0
O  O109  1  0.29974772  0.55079692  0.38382618  1  0  -0.593892  0  1.897105  0  0  -0.553822  0  2.116757  0  0  -0.578843  0  2.108992  0  0  -0.316823  -0.535325  0  2.121144  0
O  O110  1  0.66011684  0.54409764  0.43122887  1  0  -0.619739  0  2.057489  0  0  -0.539834  0  2.321187  0  0  -0.568375  0  2.305606  0  0  -0.322002  -0.519993  0  2.331362  0
O  O111  1  0.33988562  0.45590376  0.56876779  1  0  -0.619786  0  2.05754  0  0  -0.539869  0  2.321239  0  0  -0.568407  0  2.305657  0  0  -0.32197  -0.520028  0  2.331412  0
O  O112  1  0.84498982  0.64398766  0.38134386  1  0  -0.624126  0  1.912274  0  0  -0.588125  0  2.144858  0  0  -0.610772  0  2.137336  0  0  -0.333224  -0.571973  0  2.149331  0
O  O113  1  0.15501833  0.35601894  0.61866244  1  0  -0.624215  0  1.912231  0  0  -0.588237  0  2.144881  0  0  -0.610884  0  2.137365  0  0  -0.33329  -0.572075  0  2.149343  0
O  O114  1  0.76112736  0.18264863  0.53027172  1  0  -0.347629  0  1.808669  0  0  -0.334916  0  2.006909  0  0  -0.347012  0  2.004062  0  0  -0.113953  -0.327185  0  2.009191  0
O  O115  1  0.23887218  0.81735897  0.46973096  1  0  -0.357751  0  1.794473  0  0  -0.334999  0  2.007059  0  0  -0.347091  0  2.004207  0  0  -0.114018  -0.327267  0  2.009338  0
O  O116  1  0.79848733  0.02713099  0.34907084  1  0  -0.375367  0  1.775386  0  0  -0.36502  0  1.972029  0  0  -0.377668  0  1.970309  0  0  -0.135534  -0.356789  0  1.973557  0
O  O117  1  0.20150881  0.97287256  0.65093127  1  0  -0.385369  0  1.761122  0  0  -0.364979  0  1.972024  0  0  -0.377625  0  1.970302  0  0  -0.135517  -0.356738  0  1.973538  0
