# generated using pymatgen
data_Mn3H22C22(N2O7)2
_symmetry_space_group_name_H-M   'P 1'
_cell_length_a   14.11895363
_cell_length_b   15.15497639
_cell_length_c   15.15620010
_cell_angle_alpha   110.81171793
_cell_angle_beta   108.09887382
_cell_angle_gamma   108.10621450
_symmetry_Int_Tables_number   1
_chemical_formula_structural   Mn3H22C22(N2O7)2
_chemical_formula_sum   'Mn9 H66 C66 N12 O42'
_cell_volume   2537.15596578
_cell_formula_units_Z   3
loop_
 _symmetry_equiv_pos_site_id
 _symmetry_equiv_pos_as_xyz
  1  'x, y, z'
loop_
 _atom_site_type_symbol
 _atom_site_label
 _atom_site_symmetry_multiplicity
 _atom_site_fract_x
 _atom_site_fract_y
 _atom_site_fract_z
 _atom_site_occupancy
 _atom_site_pbe_bader_charge
 _atom_site_pbe_bader_spin_density
 _atom_site_pbe_cm5_charge
 _atom_site_pbe_ddec_charge
 _atom_site_pbe_ddec_spin_density
 _atom_site_pbe_ddec_sum_bond_order
 _atom_site_pbe_magmom
Mn  Mn0  1  0.20645129  0.72334426  0.47760590  1  1.496001  4.557317  0.603443  0.949136  4.687292  2.331477  4.476
Mn  Mn1  1  0.72855194  0.52220636  0.24576376  1  1.49649  4.557839  0.602954  0.948366  4.691967  2.330036  4.477
Mn  Mn2  1  0.48262276  0.75404071  0.27650718  1  1.497079  4.557359  0.602967  0.948014  4.689415  2.330917  4.477
Mn  Mn3  1  0.79358246  0.27659249  0.52238869  1  1.496094  4.557341  0.603363  0.949055  4.68764  2.331152  4.477
Mn  Mn4  1  0.27149641  0.47780815  0.75417108  1  1.497222  4.557599  0.602983  0.9484  4.691778  2.330085  4.477
Mn  Mn5  1  0.51731141  0.24590403  0.72345985  1  1.496837  4.557321  0.603007  0.94788  4.68969  2.331553  4.477
Mn  Mn6  1  0.00005549  0.99998946  0.50009309  1  1.542282  4.50036  0.609185  1.047969  4.621892  2.390624  4.438
Mn  Mn7  1  0.50002272  0.50005495  0.50006651  1  1.540468  4.499996  0.60987  1.048982  4.621324  2.388821  4.437
Mn  Mn8  1  0.99998974  0.50004398  0.99992835  1  1.542059  4.500324  0.609491  1.048291  4.621841  2.387817  4.438
H  H9  1  0.22222462  0.73149298  0.29711638  1  0.65237  0.001797  0.294576  0.382662  0.00041  0.954007  0.002
H  H10  1  0.92514638  0.70268780  0.43424981  1  0.638145  0.00187  0.29458  0.382983  0.000409  0.953778  0.002
H  H11  1  0.49071877  0.56550502  0.26836514  1  0.635602  0.001832  0.293667  0.381686  0.000412  0.9556  0.002
H  H12  1  0.77776594  0.26849906  0.70287244  1  0.652207  0.0018  0.294566  0.382722  0.00041  0.953894  0.002
H  H13  1  0.07487317  0.29731147  0.56575778  1  0.638416  0.001873  0.294592  0.382955  0.000412  0.953796  0.002
H  H14  1  0.50929238  0.43447741  0.73163866  1  0.635935  0.001832  0.293676  0.381565  0.000412  0.955732  0.002
H  H15  1  0.09556096  0.66786391  0.26464200  1  0.611728  0.002028  0.30205  0.385604  0.00049  0.936494  0.002
H  H16  1  0.83100917  0.73521079  0.40325356  1  0.624864  0.00197  0.302206  0.386126  0.000485  0.936055  0.002
H  H17  1  0.42765183  0.59651395  0.33195778  1  0.619742  0.001989  0.301795  0.385382  0.000489  0.937245  0.002
H  H18  1  0.90443379  0.33214096  0.73535524  1  0.611665  0.002029  0.301955  0.385434  0.000492  0.936653  0.002
H  H19  1  0.16900819  0.26478848  0.59676463  1  0.624904  0.001976  0.30229  0.386359  0.000488  0.936002  0.002
H  H20  1  0.57235239  0.40346207  0.66804373  1  0.619732  0.001985  0.301766  0.385313  0.000486  0.937396  0.002
H  H21  1  0.05162801  0.50124770  0.37864696  1  0.612544  0.002955  0.294331  0.367691  0.00173  0.973787  0.003
H  H22  1  0.67301563  0.62140692  0.12279220  1  0.621635  0.002897  0.294059  0.36684  0.001734  0.974766  0.003
H  H23  1  0.55016498  0.87719017  0.49852282  1  0.595902  0.003049  0.294335  0.366452  0.001724  0.975508  0.003
H  H24  1  0.94841005  0.49876039  0.62135918  1  0.612561  0.00296  0.294325  0.367567  0.001734  0.973932  0.003
H  H25  1  0.32699159  0.37857071  0.87720348  1  0.621734  0.002897  0.294062  0.366879  0.001735  0.974692  0.003
H  H26  1  0.44982148  0.12279226  0.50145480  1  0.595603  0.003048  0.294312  0.36646  0.001722  0.975528  0.003
H  H27  1  0.99418307  0.55329426  0.31735620  1  0.66018  0.002084  0.295048  0.384746  0.001025  0.962794  0.002
H  H28  1  0.67672917  0.68257817  0.23609369  1  0.654115  0.002112  0.295028  0.383781  0.001023  0.964165  0.002
H  H29  1  0.44079401  0.76370684  0.44652014  1  0.646639  0.002147  0.295203  0.383921  0.001023  0.964049  0.002
H  H30  1  0.00582277  0.44670580  0.68265898  1  0.660082  0.002082  0.295091  0.384689  0.001023  0.962877  0.002
H  H31  1  0.32326259  0.31741628  0.76389567  1  0.654409  0.002106  0.295014  0.383645  0.001019  0.964336  0.002
H  H32  1  0.55919989  0.23627239  0.55347759  1  0.646728  0.002145  0.295223  0.383959  0.001022  0.964023  0.002
H  H33  1  0.00852150  0.01184358  0.67235685  1  0.622224  0.000866  0.320957  0.398826  0.000576  0.902394  0.001
H  H34  1  0.33604044  0.32775370  0.33953751  1  0.622354  0.000835  0.321697  0.400963  0.000563  0.900771  0.001
H  H35  1  0.99645494  0.66037533  0.98802361  1  0.619058  0.000855  0.321273  0.400014  0.000574  0.900473  0.001
H  H36  1  0.99146624  0.98815809  0.32759897  1  0.621743  0.000868  0.320842  0.398818  0.000569  0.902278  0.001
H  H37  1  0.66401620  0.67234337  0.66053540  1  0.621615  0.000838  0.321822  0.400985  0.000565  0.900875  0.001
H  H38  1  0.00354571  0.33970009  0.01193189  1  0.619087  0.000852  0.321042  0.399971  0.000568  0.900711  0.001
H  H39  1  0.03640373  0.12989658  0.70512526  1  0.617641  0.001356  0.332995  0.411504  0.000638  0.866072  0.001
H  H40  1  0.33102547  0.29482898  0.42468725  1  0.614844  0.001316  0.333022  0.412012  0.000632  0.866097  0.001
H  H41  1  0.90598421  0.57507916  0.87006071  1  0.615085  0.00133  0.333187  0.411926  0.000634  0.865444  0.001
H  H42  1  0.96360969  0.87012594  0.29491594  1  0.617534  0.001347  0.332785  0.411328  0.000631  0.866279  0.001
H  H43  1  0.66897172  0.70518070  0.57531834  1  0.614727  0.001317  0.333116  0.412016  0.000633  0.866012  0.001
H  H44  1  0.09399234  0.42498663  0.12990427  1  0.615358  0.001328  0.333171  0.411891  0.000631  0.86559  0.001
H  H45  1  0.58568769  0.08707752  0.61465977  1  0.106043  0.000943  0.106583  0.106539  0.000539  1.039411  0.0
H  H46  1  0.97039241  0.38493453  0.47226426  1  0.098426  0.000971  0.106643  0.106928  0.000552  1.040879  0.0
H  H47  1  0.49827686  0.52800299  0.91292241  1  0.108554  0.000994  0.106598  0.106825  0.000554  1.041094  0.0
H  H48  1  0.41428763  0.91289449  0.38531754  1  0.105512  0.000945  0.106562  0.106498  0.000539  1.03944  0.0
H  H49  1  0.02961671  0.61505431  0.52773994  1  0.098407  0.000972  0.106639  0.106895  0.000554  1.040958  0.0
H  H50  1  0.50171947  0.47198265  0.08707236  1  0.108802  0.000994  0.106591  0.106825  0.000556  1.041137  0.0
H  H51  1  0.76187487  0.07135717  0.65480048  1  0.110426  0.000286  0.103841  0.111548  -0.000265  1.008676  0.0
H  H52  1  0.10661748  0.34489680  0.41664922  1  0.111645  0.000288  0.103555  0.112091  -0.000268  1.00783  0.0
H  H53  1  0.69013555  0.58370269  0.92848203  1  0.089456  0.000294  0.103323  0.1115  -0.000266  1.008484  0.0
H  H54  1  0.23810640  0.92863567  0.34518664  1  0.110382  0.000285  0.10382  0.111532  -0.000265  1.008965  0.0
H  H55  1  0.89339029  0.65509686  0.58334971  1  0.112012  0.000288  0.103487  0.11195  -0.000267  1.007865  0.0
H  H56  1  0.30985623  0.41629176  0.07151130  1  0.089351  0.000294  0.103322  0.111514  -0.000266  1.008535  0.0
H  H57  1  0.78591286  0.94451926  0.71742188  1  0.049658  0.00058  0.096623  0.091597  0.000347  1.009021  0.0
H  H58  1  0.06838968  0.28260273  0.22731363  1  0.060684  0.000572  0.096726  0.092074  0.000345  1.010013  0.0
H  H59  1  0.84134671  0.77309996  0.05558010  1  0.063764  0.000572  0.096807  0.091581  0.000347  1.009016  0.0
H  H60  1  0.21409222  0.05549283  0.28258484  1  0.049603  0.000578  0.096612  0.091578  0.000346  1.008987  0.0
H  H61  1  0.93162154  0.71740375  0.77269086  1  0.060867  0.000573  0.096652  0.091998  0.000346  1.009886  0.0
H  H62  1  0.15863458  0.22689289  0.94440900  1  0.06355  0.000572  0.096827  0.091563  0.000347  1.008915  0.0
H  H63  1  0.63198385  0.83515968  0.74174967  1  0.051843  0.000319  0.098068  0.091121  2e-05  1.009273  0.0
H  H64  1  0.89031356  0.25846024  0.09350636  1  0.050218  0.000319  0.097827  0.091269  1.9e-05  1.008835  0.0
H  H65  1  0.79706668  0.90683675  0.16523598  1  0.091557  0.000318  0.097998  0.091386  2e-05  1.009034  0.0
H  H66  1  0.36802681  0.16484119  0.25825595  1  0.051866  0.000319  0.098066  0.091131  2e-05  1.009284  0.0
H  H67  1  0.10970473  0.74155747  0.90649955  1  0.050155  0.00032  0.097846  0.091302  1.9e-05  1.008895  0.0
H  H68  1  0.20291068  0.09314968  0.83475564  1  0.091121  0.000319  0.097972  0.091446  2.1e-05  1.009068  0.0
H  H69  1  0.45634051  0.85155110  0.70113964  1  0.099698  0.000382  0.106678  0.10808  2.2e-05  1.011571  0.0
H  H70  1  0.75513023  0.29894639  0.15028723  1  0.069584  0.0004  0.106459  0.108654  2.2e-05  1.010596  0.0
H  H71  1  0.60507584  0.84995626  0.14894898  1  0.075527  0.000386  0.10645  0.108518  1.2e-05  1.010766  0.0
H  H72  1  0.54366134  0.14842171  0.29885542  1  0.099614  0.000381  0.106671  0.108123  2.1e-05  1.011576  0.0
H  H73  1  0.24488243  0.70105849  0.84971974  1  0.069466  0.0004  0.106501  0.108704  2.2e-05  1.010514  0.0
H  H74  1  0.39491064  0.15003499  0.85104894  1  0.075825  0.000386  0.106395  0.108494  1.3e-05  1.010843  0.0
C  C75  1  0.26543848  0.13991122  0.63746968  1  1.541042  0.019123  0.229184  0.58247  0.018081  4.184884  0.016
C  C76  1  0.62800044  0.36272314  0.50259239  1  1.541403  0.01917  0.228587  0.581211  0.01815  4.186448  0.016
C  C77  1  0.12548932  0.49758910  0.86013628  1  1.544159  0.019074  0.228349  0.580192  0.018073  4.184904  0.016
C  C78  1  0.73454813  0.86010888  0.36250758  1  1.541702  0.019083  0.229342  0.582851  0.018042  4.185867  0.016
C  C79  1  0.37201096  0.63727452  0.49743473  1  1.541318  0.019232  0.228642  0.581321  0.018212  4.186466  0.016
C  C80  1  0.87450880  0.50239573  0.13985014  1  1.545443  0.019056  0.228316  0.580163  0.018057  4.185475  0.016
C  C81  1  0.29172074  0.05078176  0.62392161  1  0.391239  0.015148  0.073022  -0.022816  0.01115  4.019483  0.009
C  C82  1  0.66774565  0.37612337  0.42696151  1  0.435296  0.015137  0.072963  -0.021372  0.011186  4.022505  0.009
C  C83  1  0.24087846  0.57327167  0.94928755  1  0.369643  0.015207  0.074014  -0.02063  0.011129  4.0223  0.009
C  C84  1  0.70826077  0.94921910  0.37605920  1  0.478955  0.014996  0.072963  -0.022815  0.011098  4.020214  0.009
C  C85  1  0.33227129  0.62387350  0.57306229  1  0.435267  0.015191  0.072915  -0.021648  0.011229  4.022655  0.009
C  C86  1  0.75911028  0.42671958  0.05071497  1  0.368692  0.015231  0.074044  -0.020511  0.011149  4.022071  0.009
C  C87  1  0.22826116  0.94046878  0.58344393  1  0.443299  0.014204  0.077439  -0.005046  0.010929  4.025549  0.008
C  C88  1  0.64461269  0.41642562  0.35701801  1  0.402066  0.01433  0.07822  -0.003766  0.011001  4.027615  0.008
C  C89  1  0.28763654  0.64325222  0.05952977  1  0.423793  0.014387  0.077358  -0.004993  0.011042  4.02859  0.008
C  C90  1  0.77173076  0.05952167  0.41652821  1  0.355052  0.01431  0.077504  -0.00484  0.010942  4.02536  0.008
C  C91  1  0.35541198  0.58357926  0.64300954  1  0.400202  0.014402  0.078407  -0.003548  0.011062  4.027241  0.008
C  C92  1  0.71234351  0.35675746  0.94047291  1  0.424333  0.014356  0.077552  -0.004845  0.011012  4.028722  0.008
C  C93  1  0.10812431  0.86923469  0.54260935  1  1.544522  0.031662  0.223109  0.576054  0.03123  4.208303  0.025
C  C94  1  0.56518419  0.45708326  0.32656182  1  1.534778  0.031691  0.221794  0.573849  0.031279  4.208415  0.025
C  C95  1  0.23862399  0.67360334  0.13063392  1  1.565157  0.03166  0.222914  0.574906  0.031296  4.210189  0.025
C  C96  1  0.89187777  0.13073732  0.45736306  1  1.544684  0.031574  0.22293  0.575774  0.031137  4.2085  0.025
C  C97  1  0.43485080  0.54293766  0.67348827  1  1.534294  0.031828  0.222142  0.574015  0.031404  4.208525  0.026
C  C98  1  0.76134752  0.32640714  0.86936660  1  1.56494  0.031661  0.222947  0.575289  0.031287  4.210587  0.025
C  C99  1  0.40488813  0.97999752  0.63155728  1  0.952017  0.022429  0.216662  0.313651  0.017733  4.005726  0.018
C  C100  1  0.77302377  0.36826866  0.34828588  1  0.982946  0.022467  0.216403  0.313931  0.017833  4.005006  0.018
C  C101  1  0.42486145  0.65188447  0.02021973  1  0.993771  0.022285  0.216327  0.312983  0.017788  4.006916  0.018
C  C102  1  0.59510194  0.01999934  0.36845027  1  0.952267  0.022417  0.216605  0.313526  0.017724  4.005764  0.018
C  C103  1  0.22697416  0.63171858  0.65172114  1  0.983504  0.022555  0.216523  0.314105  0.017908  4.004546  0.018
C  C104  1  0.57512069  0.34810998  0.97978074  1  0.99363  0.022303  0.216362  0.312947  0.017801  4.006651  0.018
C  C105  1  0.50889852  0.97023070  0.65502899  1  0.009596  0.000468  -0.003891  0.016475  -0.00023  4.004949  -0.001
C  C106  1  0.85352385  0.34476898  0.31506675  1  -0.03665  0.000482  -0.00369  0.017722  -0.00025  4.006506  -0.001
C  C107  1  0.53861074  0.68517414  0.02998614  1  0.007341  0.000457  -0.003919  0.016894  -0.000248  4.002131  -0.001
C  C108  1  0.49107864  0.02974932  0.34496424  1  0.009531  0.000468  -0.003947  0.016462  -0.00023  4.00517  -0.001
C  C109  1  0.14647923  0.65522708  0.68494555  1  -0.036709  0.000479  -0.003658  0.017709  -0.000255  4.00643  -0.001
C  C110  1  0.46136662  0.31481229  0.97000614  1  0.006299  0.000458  -0.003918  0.017117  -0.000249  4.001887  -0.001
C  C111  1  0.59617855  0.03211843  0.64268160  1  -0.073656  0.004045  -0.086299  -0.125736  0.003315  3.958015  0.002
C  C112  1  0.95302965  0.35699005  0.38930709  1  -0.085635  0.004082  -0.086571  -0.128061  0.003356  3.962941  0.002
C  C113  1  0.56387013  0.61096678  0.96795265  1  -0.09708  0.00406  -0.085761  -0.125521  0.003356  3.959039  0.002
C  C114  1  0.40379862  0.96786319  0.35730495  1  -0.073464  0.00404  -0.086316  -0.125825  0.003313  3.958103  0.002
C  C115  1  0.04697221  0.64300521  0.61068940  1  -0.085797  0.004096  -0.086567  -0.127929  0.003368  3.962584  0.002
C  C116  1  0.43611852  0.38902286  0.03204268  1  -0.096482  0.004061  -0.085726  -0.125551  0.003357  3.958752  0.002
C  C117  1  0.69529841  0.02287569  0.66507901  1  -0.055462  0.000625  -0.090096  -0.079567  5.5e-05  3.990141  0.0
C  C118  1  0.02983543  0.33464964  0.35782569  1  -0.037053  0.000613  -0.089907  -0.079319  4.8e-05  3.989222  0.0
C  C119  1  0.67217035  0.64249097  0.97709725  1  0.022786  0.000607  -0.090495  -0.080485  5.1e-05  3.990766  0.0
C  C120  1  0.30467624  0.97710834  0.33490702  1  -0.05559  0.000625  -0.090173  -0.079715  5.5e-05  3.990132  0.0
C  C121  1  0.97017717  0.66535364  0.64218069  1  -0.037144  0.000613  -0.089797  -0.079204  4.7e-05  3.989593  0.0
C  C122  1  0.32781120  0.35749787  0.02289841  1  0.022884  0.000607  -0.090342  -0.080391  5.2e-05  3.990564  0.0
C  C123  1  0.70847606  0.95162042  0.70034408  1  -0.094445  0.003227  -0.097207  -0.098134  0.002459  4.036553  0.002
C  C124  1  0.00792836  0.29953509  0.25134225  1  -0.049806  0.00325  -0.097412  -0.098776  0.002485  4.03648  0.002
C  C125  1  0.75680957  0.74898759  0.04847595  1  -0.112524  0.003267  -0.097627  -0.098135  0.002483  4.035867  0.002
C  C126  1  0.29151960  0.04837884  0.29965009  1  -0.095061  0.003223  -0.097157  -0.097971  0.002455  4.036576  0.002
C  C127  1  0.99208233  0.70046738  0.74865868  1  -0.049777  0.003264  -0.097383  -0.098703  0.002496  4.036513  0.002
C  C128  1  0.24317929  0.25100846  0.95151910  1  -0.112313  0.003265  -0.097723  -0.098138  0.002482  4.035709  0.002
C  C129  1  0.62233701  0.89020472  0.71323093  1  -0.053257  0.000254  -0.097964  -0.093718  -0.000129  4.050256  0.0
C  C130  1  0.90901471  0.28677853  0.17701690  1  -0.084626  0.000251  -0.097977  -0.094508  -0.000136  4.04921  0.0
C  C131  1  0.73221847  0.82329034  0.11005538  1  -0.168987  0.000267  -0.097931  -0.094868  -0.000134  4.049659  0.0
C  C132  1  0.37765346  0.10978412  0.28676200  1  -0.052794  0.000254  -0.097922  -0.093711  -0.000128  4.050567  0.0
C  C133  1  0.09100094  0.71322634  0.82299158  1  -0.085272  0.000249  -0.097818  -0.09445  -0.000139  4.049191  0.0
C  C134  1  0.26776180  0.17669449  0.88993320  1  -0.169187  0.000268  -0.098001  -0.095198  -0.000134  4.049583  0.0
C  C135  1  0.52320550  0.89916690  0.69068512  1  -0.053019  0.003219  -0.086322  -0.111772  0.002372  3.96528  0.002
C  C136  1  0.83235762  0.30929546  0.20839022  1  -0.022854  0.003237  -0.085977  -0.112176  0.002396  3.962114  0.002
C  C137  1  0.62416353  0.79186479  0.10116386  1  0.006607  0.003211  -0.085894  -0.111421  0.002376  3.9621  0.002
C  C138  1  0.47678530  0.10082114  0.30930498  1  -0.052612  0.003216  -0.086326  -0.111733  0.002369  3.96505  0.002
C  C139  1  0.16764966  0.69070460  0.79161416  1  -0.022465  0.003249  -0.086065  -0.112286  0.002406  3.962586  0.002
C  C140  1  0.37581788  0.20812084  0.89882401  1  0.007004  0.003211  -0.085779  -0.111329  0.002376  3.961955  0.002
N  N141  1  0.30034280  0.89678092  0.58765546  1  -1.225384  0.058981  -0.346441  -0.396772  0.039986  3.429719  0.015
N  N142  1  0.71233633  0.41210559  0.30896749  1  -1.220572  0.058969  -0.346039  -0.396797  0.039951  3.430879  0.015
N  N143  1  0.40346075  0.69124802  0.10332303  1  -1.244161  0.059146  -0.345787  -0.396202  0.039945  3.433291  0.015
N  N144  1  0.69965161  0.10321434  0.41233891  1  -1.225285  0.059014  -0.346585  -0.396873  0.039993  3.429754  0.015
N  N145  1  0.28767468  0.58789288  0.69105190  1  -1.220763  0.059051  -0.346302  -0.396929  0.039979  3.431029  0.014
N  N146  1  0.59652145  0.30876006  0.89667177  1  -1.244259  0.059141  -0.345904  -0.396372  0.039972  3.433238  0.015
N  N147  1  0.40297855  0.07397725  0.65417887  1  -1.226267  0.060443  -0.343787  -0.391259  0.042527  3.453348  0.021
N  N148  1  0.74864490  0.34579096  0.41978404  1  -1.236808  0.060522  -0.34368  -0.392099  0.042537  3.452049  0.021
N  N149  1  0.32898263  0.58039276  0.92619113  1  -1.2277  0.060444  -0.344465  -0.392644  0.042498  3.454311  0.021
N  N150  1  0.59700604  0.92601319  0.34581757  1  -1.2258  0.060428  -0.343673  -0.391339  0.042532  3.453412  0.021
N  N151  1  0.25135090  0.65418906  0.58021848  1  -1.236041  0.060528  -0.343711  -0.392057  0.042557  3.45224  0.021
N  N152  1  0.67100232  0.41958486  0.07381601  1  -1.226926  0.06038  -0.344782  -0.392778  0.042517  3.454611  0.021
O  O153  1  0.16502574  0.12744622  0.59977470  1  -1.2046  0.067398  -0.311469  -0.580478  0.04799  2.375012  0.032
O  O154  1  0.56528712  0.40041694  0.52775942  1  -1.208989  0.067395  -0.311558  -0.580261  0.047969  2.375503  0.032
O  O155  1  0.03751731  0.47232124  0.87256072  1  -1.203343  0.067347  -0.311184  -0.579719  0.047984  2.374587  0.032
O  O156  1  0.83496413  0.87260114  0.40022510  1  -1.205062  0.06725  -0.311543  -0.580753  0.047897  2.374835  0.032
O  O157  1  0.43475982  0.59961600  0.47229310  1  -1.208854  0.067503  -0.311567  -0.580159  0.04804  2.375964  0.032
O  O158  1  0.96246127  0.52769486  0.12740027  1  -1.203437  0.067187  -0.311013  -0.579702  0.047882  2.373674  0.032
O  O159  1  0.35117915  0.23412755  0.69048659  1  -1.196609  0.06769  -0.3001  -0.538492  0.047495  2.327993  0.034
O  O160  1  0.66078027  0.30984615  0.54392783  1  -1.188783  0.067829  -0.299624  -0.53843  0.047553  2.326639  0.034
O  O161  1  0.11702094  0.45629817  0.76596443  1  -1.191228  0.067637  -0.299777  -0.537575  0.047386  2.324665  0.034
O  O162  1  0.64883346  0.76589096  0.30949291  1  -1.196764  0.067648  -0.300246  -0.53866  0.04747  2.32782  0.034
O  O163  1  0.33921946  0.69013869  0.45608413  1  -1.188651  0.067936  -0.299732  -0.538443  0.047616  2.327024  0.034
O  O164  1  0.88298638  0.54364980  0.23402795  1  -1.192289  0.067689  -0.299924  -0.537794  0.047416  2.325542  0.034
O  O165  1  0.04372022  0.90877282  0.56131267  1  -1.215939  0.069225  -0.337167  -0.604067  0.046226  2.350066  0.027
O  O166  1  0.48209640  0.43838868  0.34742356  1  -1.216437  0.069097  -0.337357  -0.604425  0.046119  2.347416  0.027
O  O167  1  0.13467000  0.65279280  0.09102107  1  -1.214628  0.069152  -0.337587  -0.604271  0.046076  2.347914  0.027
O  O168  1  0.95627456  0.09119198  0.43866169  1  -1.216182  0.068898  -0.337081  -0.60411  0.046003  2.348436  0.027
O  O169  1  0.51795902  0.56165950  0.65266123  1  -1.21561  0.069204  -0.337505  -0.60441  0.046179  2.348247  0.027
O  O170  1  0.86531529  0.34726178  0.90898065  1  -1.21439  0.069073  -0.337553  -0.604432  0.046025  2.347711  0.027
O  O171  1  0.07272074  0.76837292  0.48984548  1  -1.176134  0.074319  -0.285944  -0.523862  0.052965  2.290705  0.041
O  O172  1  0.58245268  0.50977275  0.27838787  1  -1.177905  0.074482  -0.285009  -0.522315  0.05298  2.290958  0.042
O  O173  1  0.30402371  0.72163147  0.23150578  1  -1.182998  0.074632  -0.285274  -0.522361  0.053023  2.291475  0.042
O  O174  1  0.92729257  0.23161111  0.51013312  1  -1.176422  0.074321  -0.28602  -0.523878  0.052942  2.29099  0.041
O  O175  1  0.41755025  0.49022731  0.72164100  1  -1.177135  0.074646  -0.285111  -0.522295  0.053086  2.291606  0.042
O  O176  1  0.69593015  0.27834053  0.76849773  1  -1.182452  0.074588  -0.28537  -0.522705  0.053019  2.291965  0.042
O  O177  1  0.16712812  0.72962117  0.32570991  1  -1.261849  0.05544  -0.570413  -0.738745  0.039372  2.080919  0.026
O  O178  1  0.84145810  0.67414961  0.40395463  1  -1.26531  0.055527  -0.570014  -0.738991  0.039362  2.08081  0.026
O  O179  1  0.43736588  0.59582320  0.27018309  1  -1.252895  0.055531  -0.568808  -0.736783  0.0393  2.081619  0.026
O  O180  1  0.83287577  0.27035565  0.67429509  1  -1.261594  0.055428  -0.570223  -0.73853  0.039371  2.080797  0.026
O  O181  1  0.15855886  0.32584885  0.59606183  1  -1.265488  0.055578  -0.570129  -0.739196  0.039407  2.081033  0.026
O  O182  1  0.56263559  0.40415923  0.72982125  1  -1.253272  0.055506  -0.568837  -0.736587  0.039285  2.082056  0.026
O  O183  1  0.06744084  0.56256225  0.36728868  1  -1.292871  0.059639  -0.579526  -0.770441  0.0429  2.205513  0.028
O  O184  1  0.69995988  0.63257092  0.19538874  1  -1.29626  0.059565  -0.579173  -0.768768  0.04287  2.206972  0.028
O  O185  1  0.50488394  0.80439845  0.43736567  1  -1.262868  0.059382  -0.580039  -0.768808  0.042901  2.207029  0.028
O  O186  1  0.93258063  0.43742178  0.63268367  1  -1.292857  0.059574  -0.579593  -0.770292  0.042855  2.205437  0.028
O  O187  1  0.30005064  0.36742674  0.80461175  1  -1.296715  0.059498  -0.579157  -0.768665  0.042803  2.206911  0.028
O  O188  1  0.49509876  0.19558237  0.56261557  1  -1.262658  0.059383  -0.58008  -0.768894  0.042913  2.206824  0.028
O  O189  1  0.97678260  0.05601051  0.65471235  1  -1.209533  0.051132  -0.542125  -0.720008  0.03757  1.9809  0.025
O  O190  1  0.32184840  0.34528474  0.40129314  1  -1.206815  0.050879  -0.543443  -0.723338  0.0375  1.978453  0.025
O  O191  1  0.92045564  0.59863599  0.94399324  1  -1.203801  0.051121  -0.542991  -0.722094  0.037532  1.977594  0.025
O  O192  1  0.02322102  0.94402402  0.34529604  1  -1.208838  0.050953  -0.542046  -0.720092  0.037489  1.980604  0.025
O  O193  1  0.67817033  0.65476183  0.59875486  1  -1.206013  0.050952  -0.543568  -0.72327  0.037528  1.97873  0.025
O  O194  1  0.07954146  0.40144263  0.05597757  1  -1.20416  0.051004  -0.543012  -0.722272  0.037485  1.97768  0.025
