# generated using pymatgen
data_YH24C21(NO2)4
_symmetry_space_group_name_H-M   'P 1'
_cell_length_a   9.91073929
_cell_length_b   10.53983454
_cell_length_c   12.57668896
_cell_angle_alpha   70.09742294
_cell_angle_beta   73.79321542
_cell_angle_gamma   62.44475600
_symmetry_Int_Tables_number   1
_chemical_formula_structural   YH24C21(NO2)4
_chemical_formula_sum   'Y2 H48 C42 N8 O16'
_cell_volume   1083.42394371
_cell_formula_units_Z   2
loop_
 _symmetry_equiv_pos_site_id
 _symmetry_equiv_pos_as_xyz
  1  'x, y, z'
loop_
 _atom_site_type_symbol
 _atom_site_label
 _atom_site_symmetry_multiplicity
 _atom_site_fract_x
 _atom_site_fract_y
 _atom_site_fract_z
 _atom_site_occupancy
 _atom_site_hle17_bader_spin_density
 _atom_site_hle17_ddec_charge
 _atom_site_hle17_ddec_spin_density
 _atom_site_hle17_ddec_sum_bond_order
 _atom_site_hle17_magmom
 _atom_site_hse06_10hf_bader_spin_density
 _atom_site_hse06_10hf_ddec_charge
 _atom_site_hse06_10hf_ddec_spin_density
 _atom_site_hse06_10hf_ddec_sum_bond_order
 _atom_site_hse06_10hf_magmom
 _atom_site_hse06_bader_spin_density
 _atom_site_hse06_ddec_charge
 _atom_site_hse06_ddec_spin_density
 _atom_site_hse06_ddec_sum_bond_order
 _atom_site_hse06_magmom
 _atom_site_pbe_bader_spin_density
 _atom_site_pbe_cm5_charge
 _atom_site_pbe_ddec_charge
 _atom_site_pbe_ddec_spin_density
 _atom_site_pbe_ddec_sum_bond_order
 _atom_site_pbe_magmom
Y  Y0  1  0.95038762  0.22305524  0.31137475  1  0  2.022576  0  1.951974  0  0  1.82394  0  2.466391  0  0  1.899568  0  2.39546  0  0  1.295559  1.769215  0  2.515501  0
Y  Y1  1  0.04961351  0.77694407  0.68862514  1  0  2.022645  0  1.951876  0  0  1.823972  0  2.466348  0  0  1.899653  0  2.395328  0  0  1.295571  1.769254  0  2.51544  0
H  H2  1  0.77542550  0.35581805  0.93706089  1  0  0.09766  0  0.972256  0  0  0.104979  0  1.039011  0  0  0.108576  0  1.036833  0  0  0.104581  0.102376  0  1.040764  0
H  H3  1  0.22457515  0.64418239  0.06294196  1  0  0.097656  0  0.972288  0  0  0.104956  0  1.039062  0  0  0.108567  0  1.036867  0  0  0.104589  0.102352  0  1.040816  0
H  H4  1  0.41584651  0.52598558  0.19995640  1  0  0.095494  0  0.964384  0  0  0.100777  0  1.03629  0  0  0.10525  0  1.032815  0  0  0.1013  0.097634  0  1.038781  0
H  H5  1  0.58415319  0.47401708  0.80004761  1  0  0.095559  0  0.96438  0  0  0.100808  0  1.036297  0  0  0.105279  0  1.032828  0  0  0.101335  0.09767  0  1.038789  0
H  H6  1  0.62125397  0.12078068  0.31822555  1  0  0.102176  0  0.950758  0  0  0.111863  0  1.01122  0  0  0.115278  0  1.009164  0  0  0.109134  0.109333  0  1.012824  0
H  H7  1  0.37875032  0.87921862  0.68177206  1  0  0.102119  0  0.950787  0  0  0.111811  0  1.011246  0  0  0.115229  0  1.009186  0  0  0.109083  0.109282  0  1.012852  0
H  H8  1  0.64853417  0.85611997  0.66379629  1  0  0.110647  0  0.958619  0  0  0.117851  0  1.021575  0  0  0.121556  0  1.019588  0  0  0.109773  0.115154  0  1.023082  0
H  H9  1  0.35146801  0.14387934  0.33620257  1  0  0.110659  0  0.958607  0  0  0.117871  0  1.021554  0  0  0.121575  0  1.019568  0  0  0.109785  0.115174  0  1.023065  0
H  H10  1  0.32705485  0.86776407  0.07314686  1  0  0.098853  0  0.948392  0  0  0.107646  0  1.011591  0  0  0.110996  0  1.009847  0  0  0.104473  0.105057  0  1.013333  0
H  H11  1  0.67294429  0.13223746  0.92685362  1  0  0.098849  0  0.948405  0  0  0.107641  0  1.011604  0  0  0.110991  0  1.009861  0  0  0.104463  0.105049  0  1.013344  0
H  H12  1  0.44199446  0.21400856  0.07356476  1  0  0.106326  0  0.94499  0  0  0.114413  0  1.006537  0  0  0.117421  0  1.005804  0  0  0.106234  0.112045  0  1.007604  0
H  H13  1  0.55800268  0.78599517  0.92643552  1  0  0.106287  0  0.94501  0  0  0.114378  0  1.006554  0  0  0.117385  0  1.005823  0  0  0.106234  0.112012  0  1.007625  0
H  H14  1  0.41283500  0.32396664  0.74963356  1  0  0.064373  0  0.949206  0  0  0.078058  0  1.01452  0  0  0.078796  0  1.01458  0  0  0.100469  0.077422  0  1.014628  0
H  H15  1  0.58716450  0.67603156  0.25036621  1  0  0.064338  0  0.949222  0  0  0.078022  0  1.014543  0  0  0.078757  0  1.014608  0  0  0.100458  0.077385  0  1.014651  0
H  H16  1  0.48199229  0.14632476  0.72370888  1  0  0.051557  0  0.940633  0  0  0.066632  0  1.004412  0  0  0.066171  0  1.006446  0  0  0.095826  0.066575  0  1.003469  0
H  H17  1  0.51800674  0.85367454  0.27629068  1  0  0.051556  0  0.940622  0  0  0.066632  0  1.004399  0  0  0.066173  0  1.006431  0  0  0.095821  0.066576  0  1.003451  0
H  H18  1  0.36149935  0.26669771  0.55695364  1  0  0.055102  0  0.946725  0  0  0.069927  0  1.011972  0  0  0.069388  0  1.014335  0  0  0.097664  0.070307  0  1.010246  0
H  H19  1  0.63849816  0.73330271  0.44304672  1  0  0.05517  0  0.946636  0  0  0.069925  0  1.011963  0  0  0.069384  0  1.014321  0  0  0.097666  0.070304  0  1.010241  0
H  H20  1  0.31945075  0.44345831  0.57383066  1  0  0.070617  0  0.957243  0  0  0.082186  0  1.023385  0  0  0.083172  0  1.023113  0  0  0.105994  0.081282  0  1.023851  0
H  H21  1  0.68054991  0.55654211  0.42616902  1  0  0.070612  0  0.957282  0  0  0.08219  0  1.023412  0  0  0.083175  0  1.023138  0  0  0.10601  0.081287  0  1.023879  0
H  H22  1  0.79241472  0.88803614  0.09352396  1  0  0.061683  0  0.948992  0  0  0.081768  0  1.006816  0  0  0.081275  0  1.008766  0  0  0.102391  0.081976  0  1.005581  0
H  H23  1  0.20758489  0.11196426  0.90647515  1  0  0.061684  0  0.948991  0  0  0.081772  0  1.006811  0  0  0.081281  0  1.00876  0  0  0.102394  0.081982  0  1.005578  0
H  H24  1  0.99357505  0.82028402  0.05005425  1  0  0.070844  0  0.926809  0  0  0.08659  0  0.988834  0  0  0.087822  0  0.98732  0  0  0.103102  0.08546  0  0.990192  0
H  H25  1  0.00642350  0.17971639  0.94994588  1  0  0.070856  0  0.926802  0  0  0.086606  0  0.988824  0  0  0.087838  0  0.987311  0  0  0.103114  0.085481  0  0.990179  0
H  H26  1  0.93174308  0.96176626  0.19128700  1  0  0.10702  0  0.928996  0  0  0.124883  0  0.986281  0  0  0.12638  0  0.986021  0  0  0.10871  0.124086  0  0.986016  0
H  H27  1  0.06825711  0.03823526  0.80871166  1  0  0.107027  0  0.929011  0  0  0.124888  0  0.986292  0  0  0.126385  0  0.986031  0  0  0.108715  0.124092  0  0.986024  0
H  H28  1  0.81260058  0.87356435  0.28460703  1  0  0.07018  0  0.952484  0  0  0.086741  0  1.018816  0  0  0.087151  0  1.019946  0  0  0.09159  0.086266  0  1.018347  0
H  H29  1  0.18739856  0.12643717  0.71539265  1  0  0.070185  0  0.95248  0  0  0.086745  0  1.018808  0  0  0.087154  0  1.019941  0  0  0.091594  0.086273  0  1.018341  0
H  H30  1  0.16312615  0.72960224  0.22187001  1  0  0.048134  0  0.937346  0  0  0.063959  0  1.007549  0  0  0.063856  0  1.007292  0  0  0.097583  0.063866  0  1.008079  0
H  H31  1  0.83687299  0.27039927  0.77812888  1  0  0.048129  0  0.937342  0  0  0.063946  0  1.007558  0  0  0.063853  0  1.007287  0  0  0.097583  0.063861  0  1.008083  0
H  H32  1  0.05976435  0.76071551  0.35652953  1  0  0.091237  0  0.923465  0  0  0.106586  0  0.983551  0  0  0.108034  0  0.98254  0  0  0.116058  0.10533  0  0.984599  0
H  H33  1  0.94023631  0.23928490  0.64346935  1  0  0.091234  0  0.923446  0  0  0.106578  0  0.983541  0  0  0.108025  0  0.982531  0  0  0.116053  0.105327  0  0.984592  0
H  H34  1  0.10953096  0.38349560  0.42568648  1  0  0.112173  0  0.952483  0  0  0.130802  0  1.015833  0  0  0.132392  0  1.015111  0  0  0.115118  0.129581  0  1.016419  0
H  H35  1  0.89046970  0.61650481  0.57431319  1  0  0.112202  0  0.952451  0  0  0.130833  0  1.015789  0  0  0.132423  0  1.015068  0  0  0.115132  0.129609  0  1.016373  0
H  H36  1  0.13355465  0.51874497  0.46617861  1  0  0.101191  0  0.958692  0  0  0.117562  0  1.029832  0  0  0.118866  0  1.029253  0  0  0.106469  0.116574  0  1.030249  0
H  H37  1  0.86644555  0.48125654  0.53382005  1  0  0.101166  0  0.958684  0  0  0.117525  0  1.029841  0  0  0.118825  0  1.029262  0  0  0.106457  0.116534  0  1.030262  0
H  H38  1  0.26267179  0.43898856  0.35275744  1  0  0.079559  0  0.937092  0  0  0.102796  0  0.999507  0  0  0.102948  0  0.999729  0  0  0.094318  0.102638  0  0.999324  0
H  H39  1  0.73732840  0.56101295  0.64724122  1  0  0.079577  0  0.937069  0  0  0.102805  0  0.999487  0  0  0.102957  0  0.999711  0  0  0.094326  0.102647  0  0.999302  0
H  H40  1  0.90065403  0.50257160  0.10544806  1  0  0.099849  0  0.986377  0  0  0.118956  0  1.049599  0  0  0.119972  0  1.049567  0  0  0.112786  0.118257  0  1.049445  0
H  H41  1  0.09934453  0.49742880  0.89455128  1  0  0.0999  0  0.986294  0  0  0.119009  0  1.049522  0  0  0.120023  0  1.049491  0  0  0.112817  0.118316  0  1.049362  0
H  H42  1  0.90016463  0.66403835  0.99858886  1  0  0.109508  0  0.965961  0  0  0.128469  0  1.029352  0  0  0.129517  0  1.029297  0  0  0.107882  0.127478  0  1.029728  0
H  H43  1  0.09983650  0.33596096  0.00141103  1  0  0.109527  0  0.96593  0  0  0.128495  0  1.029315  0  0  0.129543  0  1.029257  0  0  0.107892  0.127507  0  1.02969  0
H  H44  1  0.73014574  0.66968177  0.09658491  1  0  0.078563  0  0.970002  0  0  0.09698  0  1.041035  0  0  0.096987  0  1.042091  0  0  0.092373  0.096761  0  1.040653  0
H  H45  1  0.26985446  0.33031974  0.90341296  1  0  0.078556  0  0.96995  0  0  0.096977  0  1.040984  0  0  0.09697  0  1.042053  0  0  0.092379  0.096762  0  1.0406  0
H  H46  1  0.54728462  0.37439950  0.40198694  1  0  0.322122  0  0.909203  0  0  0.305564  0  0.968486  0  0  0.313787  0  0.961456  0  0  0.316395  0.299625  0  0.973687  0
H  H47  1  0.45271441  0.62559980  0.59801261  1  0  0.3221  0  0.909242  0  0  0.30554  0  0.968539  0  0  0.313763  0  0.961508  0  0  0.316389  0.299604  0  0.973731  0
H  H48  1  0.72058909  0.16946469  0.69800505  1  0  0.307074  0  0.931589  0  0  0.288482  0  0.997663  0  0  0.296415  0  0.99155  0  0  0.304332  0.282861  0  1.002056  0
H  H49  1  0.27940994  0.83053462  0.30199530  1  0  0.307096  0  0.931565  0  0  0.288508  0  0.997645  0  0  0.29644  0  0.991533  0  0  0.304326  0.282888  0  1.002031  0
C  C50  1  0.60759072  0.43151827  0.07739027  1  0  -0.052034  0  3.730965  0  0  -0.028365  0  3.957092  0  0  -0.034313  0  3.979289  0  0  -0.012205  -0.024246  0  3.942172  0
C  C51  1  0.39240992  0.56848217  0.92261337  1  0  -0.052038  0  3.730849  0  0  -0.02838  0  3.956984  0  0  -0.034328  0  3.979183  0  0  -0.012195  -0.024261  0  3.942071  0
C  C52  1  0.65430169  0.41865367  0.96402173  1  0  -0.067442  0  3.713777  0  0  -0.08858  0  3.958666  0  0  -0.089258  0  3.978293  0  0  -0.080303  -0.088269  0  3.945934  0
C  C53  1  0.34569697  0.58134898  0.03598092  1  0  -0.067414  0  3.713653  0  0  -0.088527  0  3.958563  0  0  -0.089215  0  3.97818  0  0  -0.080301  -0.088214  0  3.945823  0
C  C54  1  0.45186881  0.51422020  0.11237525  1  0  -0.074569  0  3.721717  0  0  -0.097073  0  3.971193  0  0  -0.098354  0  3.990873  0  0  -0.082378  -0.096256  0  3.958308  0
C  C55  1  0.54813137  0.48578135  0.88762739  1  0  -0.074653  0  3.721818  0  0  -0.097113  0  3.971295  0  0  -0.098391  0  3.990967  0  0  -0.08243  -0.096305  0  3.95842  0
C  C56  1  0.72259002  0.35906837  0.15958715  1  0  0.625981  0  3.930895  0  0  0.58074  0  4.220339  0  0  0.614321  0  4.214175  0  0  0.203637  0.558174  0  4.223159  0
C  C57  1  0.27741110  0.64093096  0.84041591  1  0  0.62597  0  3.930669  0  0  0.580733  0  4.220131  0  0  0.614312  0  4.213971  0  0  0.203596  0.558162  0  4.222958  0
C  C58  1  0.64949927  0.98629867  0.48955345  1  0  -0.073559  0  3.757264  0  0  -0.054514  0  3.992555  0  0  -0.060749  0  4.012978  0  0  -0.013337  -0.050259  0  3.977957  0
C  C59  1  0.35050327  0.01369731  0.51044550  1  0  -0.073564  0  3.757198  0  0  -0.054533  0  3.992478  0  0  -0.060769  0  4.012901  0  0  -0.013335  -0.050264  0  3.977872  0
C  C60  1  0.56699560  0.06761764  0.39689938  1  0  -0.073157  0  3.749354  0  0  -0.097433  0  4.00341  0  0  -0.097422  0  4.021752  0  0  -0.082107  -0.097497  0  3.991026  0
C  C61  1  0.43300602  0.93238054  0.60309676  1  0  -0.073081  0  3.749314  0  0  -0.097356  0  4.003353  0  0  -0.097347  0  4.021696  0  0  -0.082071  -0.097428  0  3.990969  0
C  C62  1  0.58215635  0.91862505  0.59285392  1  0  -0.083013  0  3.732695  0  0  -0.103748  0  3.9821  0  0  -0.104523  0  4.001202  0  0  -0.083016  -0.102652  0  3.968834  0
C  C63  1  0.41784735  0.08137315  0.40714414  1  0  -0.082984  0  3.732656  0  0  -0.103723  0  3.98207  0  0  -0.104497  0  4.001172  0  0  -0.083013  -0.102634  0  3.968806  0
C  C64  1  0.80855993  0.97442309  0.47981341  1  0  0.723027  0  3.852493  0  0  0.670746  0  4.141562  0  0  0.708016  0  4.129321  0  0  0.246301  0.645717  0  4.148535  0
C  C65  1  0.19144272  0.02557511  0.52018487  1  0  0.722981  0  3.852593  0  0  0.670767  0  4.141572  0  0  0.708037  0  4.129333  0  0  0.246301  0.645724  0  4.148563  0
C  C66  1  0.37132447  0.04498582  0.08287880  1  0  -0.056448  0  3.748531  0  0  -0.036779  0  3.984861  0  0  -0.042016  0  4.005212  0  0  -0.012175  -0.03329  0  3.970855  0
C  C67  1  0.62867409  0.95501460  0.91712213  1  0  -0.056407  0  3.748521  0  0  -0.03679  0  3.984918  0  0  -0.041992  0  4.005226  0  0  -0.01221  -0.033297  0  3.970907  0
C  C68  1  0.40386019  0.92469711  0.04102610  1  0  -0.078285  0  3.738208  0  0  -0.10033  0  3.990023  0  0  -0.10086  0  4.008795  0  0  -0.081781  -0.09994  0  3.977452  0
C  C69  1  0.59613894  0.07530442  0.95897518  1  0  -0.078304  0  3.738277  0  0  -0.100332  0  3.990105  0  0  -0.100872  0  4.008866  0  0  -0.081768  -0.09994  0  3.977525  0
C  C70  1  0.46866119  0.11998469  0.04124556  1  0  -0.077127  0  3.730742  0  0  -0.099064  0  3.981288  0  0  -0.0998  0  4.000525  0  0  -0.08044  -0.098172  0  3.968262  0
C  C71  1  0.53133795  0.88001683  0.95875492  1  0  -0.077099  0  3.730702  0  0  -0.09902  0  3.981257  0  0  -0.099766  0  4.000485  0  0  -0.080439  -0.098134  0  3.968241  0
C  C72  1  0.22925115  0.09847781  0.16662501  1  0  0.624105  0  3.925544  0  0  0.57536  0  4.219266  0  0  0.609054  0  4.213161  0  0  0.20236  0.552534  0  4.222643  0
C  C73  1  0.77074798  0.90152372  0.83337627  1  0  0.624125  0  3.925668  0  0  0.575385  0  4.219395  0  0  0.609069  0  4.213294  0  0  0.202363  0.552566  0  4.222762  0
C  C74  1  0.66943431  0.29039152  0.53643002  1  0  0.737923  0  3.885786  0  0  0.667251  0  4.191107  0  0  0.702723  0  4.184691  0  0  0.338465  0.643271  0  4.194523  0
C  C75  1  0.33056624  0.70960668  0.46356953  1  0  0.738016  0  3.885646  0  0  0.667379  0  4.190913  0  0  0.702843  0  4.184507  0  0  0.338526  0.643393  0  4.194336  0
C  C76  1  0.47886867  0.25823613  0.68660278  1  0  0.046271  0  3.595073  0  0  -0.011199  0  3.858853  0  0  -0.007334  0  3.87012  0  0  -0.057483  -0.013661  0  3.851315  0
C  C77  1  0.52113141  0.74176317  0.31339655  1  0  0.046316  0  3.595025  0  0  -0.01114  0  3.858783  0  0  -0.007277  0  3.870048  0  0  -0.057461  -0.0136  0  3.85124  0
C  C78  1  0.40986885  0.33238250  0.57318496  1  0  0.041146  0  3.600251  0  0  -0.014928  0  3.858668  0  0  -0.010853  0  3.869897  0  0  -0.054646  -0.017591  0  3.85083  0
C  C79  1  0.59013170  0.66761571  0.42681537  1  0  0.041124  0  3.60023  0  0  -0.014926  0  3.858669  0  0  -0.010844  0  3.869888  0  0  -0.054657  -0.017599  0  3.850839  0
C  C80  1  0.96903061  0.56310138  0.25625946  1  0  0.631533  0  3.860477  0  0  0.55908  0  4.151357  0  0  0.594983  0  4.148029  0  0  0.346931  0.534687  0  4.152924  0
C  C81  1  0.03096794  0.43689903  0.74374067  1  0  0.631542  0  3.860505  0  0  0.559097  0  4.151386  0  0  0.595005  0  4.148053  0  0  0.346958  0.5347  0  4.152957  0
C  C82  1  0.90352935  0.81349398  0.12410151  1  0  0.017308  0  3.658993  0  0  -0.042079  0  3.91915  0  0  -0.037144  0  3.930812  0  0  -0.059699  -0.045234  0  3.911257  0
C  C83  1  0.09647131  0.18650643  0.87589816  1  0  0.017334  0  3.658903  0  0  -0.042056  0  3.919073  0  0  -0.037122  0  3.930738  0  0  -0.059684  -0.045208  0  3.911179  0
C  C84  1  0.91796776  0.85724390  0.22186960  1  0  -0.159485  0  3.713748  0  0  -0.206988  0  3.982343  0  0  -0.208676  0  3.994265  0  0  -0.162531  -0.205906  0  3.974176  0
C  C85  1  0.08203080  0.14275650  0.77812895  1  0  -0.159511  0  3.713736  0  0  -0.207  0  3.982326  0  0  -0.20869  0  3.99425  0  0  -0.162538  -0.205919  0  3.974162  0
C  C86  1  0.05430404  0.73705191  0.27962705  1  0  0.02211  0  3.641139  0  0  -0.039  0  3.906802  0  0  -0.033444  0  3.917354  0  0  -0.058705  -0.042623  0  3.899809  0
C  C87  1  0.94569557  0.26294850  0.72037206  1  0  0.022136  0  3.641134  0  0  -0.038981  0  3.906821  0  0  -0.033427  0  3.917368  0  0  -0.058699  -0.042612  0  3.89983  0
C  C88  1  0.14191991  0.47737164  0.39456457  1  0  -0.151718  0  3.671298  0  0  -0.255979  0  3.931647  0  0  -0.251864  0  3.940479  0  0  -0.134388  -0.258476  0  3.925476  0
C  C89  1  0.85807970  0.52262878  0.60543533  1  0  -0.151745  0  3.671283  0  0  -0.255986  0  3.931635  0  0  -0.25187  0  3.94047  0  0  -0.134397  -0.258479  0  3.925459  0
C  C90  1  0.85640333  0.62243187  0.08729970  1  0  -0.155745  0  3.660639  0  0  -0.260341  0  3.915363  0  0  -0.256356  0  3.924188  0  0  -0.13859  -0.26279  0  3.909428  0
C  C91  1  0.14359523  0.37756853  0.91269884  1  0  -0.155826  0  3.660601  0  0  -0.260425  0  3.915339  0  0  -0.256433  0  3.924186  0  0  -0.138631  -0.262879  0  3.909404  0
N  N92  1  0.54285011  0.33799526  0.48865123  1  0  -0.48813  0  3.266434  0  0  -0.428845  0  3.518546  0  0  -0.45007  0  3.524553  0  0  -0.431284  -0.414472  0  3.513685  0
N  N93  1  0.45715044  0.66200294  0.51134831  1  0  -0.48819  0  3.266434  0  0  -0.428874  0  3.51846  0  0  -0.450095  0  3.524467  0  0  -0.431322  -0.414493  0  3.513608  0
N  N94  1  0.63477721  0.25350813  0.65296103  1  0  -0.50253  0  3.163296  0  0  -0.447211  0  3.422251  0  0  -0.467645  0  3.426145  0  0  -0.441611  -0.433279  0  3.41924  0
N  N95  1  0.36522276  0.74648896  0.34703896  1  0  -0.50259  0  3.163333  0  0  -0.447289  0  3.422261  0  0  -0.467719  0  3.426156  0  0  -0.441606  -0.433352  0  3.419243  0
N  N96  1  0.90913452  0.66382934  0.16184543  1  0  -0.21796  0  3.41122  0  0  -0.12382  0  3.655458  0  0  -0.144129  0  3.674656  0  0  -0.289828  -0.110286  0  3.642121  0
N  N97  1  0.09086567  0.33617218  0.83815402  1  0  -0.217984  0  3.411369  0  0  -0.12387  0  3.655651  0  0  -0.144181  0  3.674844  0  0  -0.289863  -0.110341  0  3.642323  0
N  N98  1  0.04141260  0.59537296  0.31465394  1  0  -0.231573  0  3.404887  0  0  -0.14151  0  3.653472  0  0  -0.162143  0  3.673023  0  0  -0.294815  -0.127309  0  3.639534  0
N  N99  1  0.95858748  0.40462635  0.68534538  1  0  -0.231575  0  3.404908  0  0  -0.141503  0  3.653477  0  0  -0.162139  0  3.673028  0  0  -0.294827  -0.127297  0  3.639541  0
O  O100  1  0.86257657  0.27790485  0.12838805  1  0  -0.668014  0  1.940392  0  0  -0.614635  0  2.175542  0  0  -0.641409  0  2.167335  0  0  -0.348542  -0.595581  0  2.179745  0
O  O101  1  0.13742245  0.72209447  0.87161468  1  0  -0.667983  0  1.940313  0  0  -0.614597  0  2.175463  0  0  -0.641375  0  2.167259  0  0  -0.348493  -0.595538  0  2.179659  0
O  O102  1  0.67996417  0.38088496  0.26000579  1  0  -0.676514  0  1.990869  0  0  -0.622647  0  2.232911  0  0  -0.648944  0  2.223828  0  0  -0.338245  -0.604202  0  2.238477  0
O  O103  1  0.32003800  0.61911437  0.73999704  1  0  -0.676518  0  1.990713  0  0  -0.622665  0  2.232763  0  0  -0.648972  0  2.223697  0  0  -0.338256  -0.604224  0  2.238335  0
O  O104  1  0.86221769  0.04462850  0.38735948  1  0  -0.706116  0  2.066762  0  0  -0.643554  0  2.333715  0  0  -0.673767  0  2.321482  0  0  -0.382188  -0.621955  0  2.341338  0
O  O105  1  0.13778705  0.95536972  0.61264072  1  0  -0.706123  0  2.066794  0  0  -0.64357  0  2.333693  0  0  -0.673794  0  2.32146  0  0  -0.382163  -0.621958  0  2.341298  0
O  O106  1  0.87922536  0.89511410  0.56478979  1  0  -0.69074  0  2.074941  0  0  -0.629396  0  2.340384  0  0  -0.658607  0  2.326725  0  0  -0.376265  -0.60895  0  2.349547  0
O  O107  1  0.12077822  0.10488189  0.43521052  1  0  -0.69067  0  2.074921  0  0  -0.629378  0  2.340337  0  0  -0.658582  0  2.326685  0  0  -0.376264  -0.608926  0  2.349504  0
O  O108  1  0.18272444  0.22678961  0.18158877  1  0  -0.657453  0  1.974761  0  0  -0.604103  0  2.209199  0  0  -0.631076  0  2.200931  0  0  -0.352924  -0.585265  0  2.214407  0
O  O109  1  0.81727365  0.77321191  0.81841115  1  0  -0.65751  0  1.974833  0  0  -0.604149  0  2.20926  0  0  -0.631133  0  2.201  0  0  -0.352955  -0.585316  0  2.214463  0
O  O110  1  0.15479584  0.01730690  0.21981757  1  0  -0.658955  0  1.962491  0  0  -0.598157  0  2.191827  0  0  -0.625173  0  2.184328  0  0  -0.332979  -0.579419  0  2.196474  0
O  O111  1  0.84520282  0.98269573  0.78018269  1  0  -0.658974  0  1.962564  0  0  -0.598146  0  2.191876  0  0  -0.625166  0  2.184381  0  0  -0.332945  -0.579416  0  2.196518  0
O  O112  1  0.80025401  0.28335135  0.48328288  1  0  -0.698884  0  2.027965  0  0  -0.641409  0  2.290659  0  0  -0.666908  0  2.27775  0  0  -0.36426  -0.62387  0  2.299177  0
O  O113  1  0.19974444  0.71664685  0.51671791  1  0  -0.698922  0  2.027882  0  0  -0.641471  0  2.290589  0  0  -0.666974  0  2.277677  0  0  -0.364292  -0.623936  0  2.299111  0
O  O114  1  0.95634972  0.44048456  0.29077989  1  0  -0.70452  0  2.108891  0  0  -0.639951  0  2.380827  0  0  -0.667887  0  2.367982  0  0  -0.391092  -0.620151  0  2.389051  0
O  O115  1  0.04364989  0.55951585  0.70921921  1  0  -0.704517  0  2.108886  0  0  -0.63995  0  2.380832  0  0  -0.667894  0  2.367979  0  0  -0.391103  -0.620146  0  2.389049  0
