# generated using pymatgen
data_ZnH11C12N2(ClO2)2
_symmetry_space_group_name_H-M   'P 1'
_cell_length_a   9.55530136
_cell_length_b   10.94435900
_cell_length_c   11.01854581
_cell_angle_alpha   90.79368157
_cell_angle_beta   90.01492456
_cell_angle_gamma   89.66006586
_symmetry_Int_Tables_number   1
_chemical_formula_structural   ZnH11C12N2(ClO2)2
_chemical_formula_sum   'Zn2 H22 C24 N4 Cl4 O8'
_cell_volume   1152.15174261
_cell_formula_units_Z   2
loop_
 _symmetry_equiv_pos_site_id
 _symmetry_equiv_pos_as_xyz
  1  'x, y, z'
loop_
 _atom_site_type_symbol
 _atom_site_label
 _atom_site_symmetry_multiplicity
 _atom_site_fract_x
 _atom_site_fract_y
 _atom_site_fract_z
 _atom_site_occupancy
 _atom_site_pbe_bader_charge
 _atom_site_pbe_bader_spin_density
 _atom_site_pbe_cm5_charge
 _atom_site_pbe_ddec_charge
 _atom_site_pbe_ddec_spin_density
 _atom_site_pbe_ddec_sum_bond_order
 _atom_site_pbe_magmom
Zn  Zn0  1  0.64122104  0.49791054  0.49983344  1  1.245391  0  0.666918  0.805651  0  2.472618  0
Zn  Zn1  1  0.35687517  0.50257580  0.49976852  1  1.274707  0  0.667607  0.804685  0  2.466024  0
H  H2  1  0.72215996  0.10970428  0.47247892  1  0.110199  0  0.092687  0.076893  0  1.023528  0
H  H3  1  0.71552406  0.44771209  0.11262624  1  0.095598  0  0.102192  0.105735  0  1.003397  0
H  H4  1  0.28085568  0.55129692  0.88701893  1  0.112635  0  0.100874  0.104015  0  1.005155  0
H  H5  1  0.71510431  0.44889017  0.88447158  1  0.107871  0  0.102475  0.10758  0  1.001447  0
H  H6  1  0.13244203  0.64984680  0.61334510  1  0.15647  0  0.14  0.121655  0  0.960812  0
H  H7  1  0.86307065  0.64865269  0.61421747  1  0.158801  0  0.13989  0.121253  0  0.96164  0
H  H8  1  0.63036066  0.78678577  0.30482025  1  0.429529  0  0.291664  0.239474  0  0.981915  0
H  H9  1  0.84639307  0.80759940  0.20728161  1  0.052139  0  0.100353  0.113019  0  0.973812  0
H  H10  1  0.88215072  0.80676496  0.36692007  1  0.001025  0  0.070062  0.055077  0  1.032233  0
H  H11  1  0.87626365  0.94728070  0.28590105  1  0.035179  0  0.086452  0.091609  0  1.016495  0
H  H12  1  0.44521215  0.91964240  0.23115320  1  0.427053  0  0.283997  0.231544  0  0.994794  0
H  H13  1  0.27743494  0.08918746  0.48876848  1  0.10091  0  0.093634  0.077117  0  1.011798  0
H  H14  1  0.26413522  0.80714177  0.13885804  1  0.054449  0  0.097177  0.107438  0  0.985913  0
H  H15  1  0.17272523  0.92370745  0.22213128  1  0.00924  0  0.070198  0.063739  0  1.046493  0
H  H16  1  0.19311913  0.77384812  0.28328839  1  0.033938  0  0.089269  0.095781  0  1.000396  0
H  H17  1  0.86573385  0.34641456  0.38266875  1  0.167529  0  0.137934  0.120844  0  0.973531  0
H  H18  1  0.13571876  0.34693232  0.38259990  1  0.167346  0  0.132132  0.114512  0  0.998034  0
H  H19  1  0.72332059  0.90614300  0.49695609  1  0.037525  0  0.092182  0.041053  0  0.987133  0
H  H20  1  0.28139490  0.88535276  0.45088821  1  0.089658  0  0.110068  0.07211  0  0.973429  0
H  H21  1  0.56774749  0.88938920  0.67183697  1  0.084768  0  0.101726  0.129907  0  0.972217  0
H  H22  1  0.38513636  0.90319236  0.64883946  1  0.047779  0  0.100766  0.126224  0  0.978225  0
H  H23  1  0.28130104  0.54980551  0.11529091  1  0.101518  0  0.10369  0.106615  0  1.004548  0
C  C24  1  0.49901440  0.49994020  0.26232428  1  1.55307  0  0.215972  0.591831  0  4.1649  0
C  C25  1  0.92554682  0.58215556  0.56305512  1  0.545354  0  0.077986  0.05796  0  3.87836  0
C  C26  1  0.92716120  0.41346746  0.43356303  1  0.420501  0  0.082824  0.070521  0  3.833974  0
C  C27  1  0.07302643  0.41396250  0.43324940  1  0.595189  0  0.081838  0.0714  0  3.833255  0
C  C28  1  0.49937820  0.26153556  0.49066580  1  1.578426  0  0.207401  0.586939  0  4.146986  0
C  C29  1  0.49784654  0.50190618  0.73711739  1  1.535229  0  0.214202  0.593414  0  4.16424  0
C  C30  1  0.49880011  0.74056737  0.49378836  1  1.580048  0  0.223552  0.59857  0  4.108463  0
C  C31  1  0.63382867  0.07016193  0.42327944  1  0.076227  0  -0.052931  0.01573  0  3.715051  0
C  C32  1  0.36309789  0.06745486  0.42606775  1  0.053538  0  -0.05089  0.017028  0  3.704538  0
C  C33  1  0.64139868  0.92649926  0.42855624  1  0.342337  0  0.007369  0.082914  0  3.789607  0
C  C34  1  0.37438264  0.92428150  0.40784795  1  0.359691  0  0.004925  0.06896  0  3.818629  0
C  C35  1  0.48757903  0.92974402  0.61319838  1  -0.029885  0  -0.164655  -0.284994  0  3.876184  0
C  C36  1  0.49997333  0.07015102  0.61785911  1  0.208076  0  0.07429  0.257614  0  3.658718  0
C  C37  1  0.49867534  0.12059337  0.48405904  1  0.100281  0  -0.020408  -0.108645  0  3.731972  0
C  C38  1  0.50187675  0.88028091  0.48202852  1  0.039414  0  -0.012763  -0.050222  0  3.773815  0
C  C39  1  0.82773136  0.85680627  0.29326414  1  0.259663  0  -0.150759  -0.205215  0  4.025602  0
C  C40  1  0.24523732  0.84502101  0.23026543  1  0.269865  0  -0.152779  -0.208172  0  4.0237  0
C  C41  1  0.37552960  0.52781591  0.06359804  1  0.060966  0  -0.08417  -0.095058  0  3.980491  0
C  C42  1  0.62113172  0.47071365  0.06218971  1  -0.115902  0  -0.084081  -0.09303  0  3.979796  0
C  C43  1  0.37538515  0.52871998  0.93744853  1  -0.116007  0  -0.086379  -0.097641  0  3.987388  0
C  C44  1  0.62091704  0.47142367  0.93599021  1  0.05847  0  -0.08502  -0.096021  0  3.982851  0
C  C45  1  0.49809212  0.50076452  0.87283446  1  -0.079338  0  -0.01574  -0.025483  0  3.965615  0
C  C46  1  0.49852814  0.49914235  0.12670906  1  -0.040921  0  -0.013138  -0.02106  0  3.958994  0
C  C47  1  0.07104385  0.58282623  0.56259802  1  0.450206  0  0.078497  0.058192  0  3.876606  0
N  N48  1  0.85569064  0.49747223  0.49857075  1  -1.193533  0  -0.29471  -0.139425  0  3.50476  0
N  N49  1  0.14265145  0.49884194  0.49786270  1  -1.202339  0  -0.295008  -0.138745  0  3.503292  0
N  N50  1  0.67796129  0.86936120  0.31302615  1  -1.073139  0  -0.496322  -0.351859  0  3.480617  0
N  N51  1  0.37932804  0.87303221  0.28629135  1  -1.107074  0  -0.494702  -0.349831  0  3.497393  0
Cl  Cl52  1  0.65388717  0.12813954  0.27255932  1  -0.24434  0  -0.05036  -0.120928  0  1.488004  0
Cl  Cl53  1  0.31021893  0.14151224  0.28878148  1  -0.249498  0  -0.042125  -0.117045  0  1.493867  0
Cl  Cl54  1  0.65875697  0.11264489  0.69628829  1  -0.20832  0  -0.030725  -0.115884  0  1.402484  0
Cl  Cl55  1  0.35826245  0.13303638  0.70746964  1  -0.202416  0  -0.032409  -0.113318  0  1.40081  0
O  O56  1  0.61794171  0.49921775  0.31494665  1  -1.16086  0  -0.319808  -0.550106  0  2.327119  0
O  O57  1  0.38067005  0.50223245  0.31567259  1  -1.163766  0  -0.315996  -0.542252  0  2.332953  0
O  O58  1  0.61848707  0.31160503  0.49356244  1  -1.167006  0  -0.313481  -0.542569  0  2.407861  0
O  O59  1  0.38177874  0.31505754  0.49656598  1  -1.168592  0  -0.312514  -0.543973  0  2.413658  0
O  O60  1  0.61635633  0.49701572  0.68395025  1  -1.163508  0  -0.321528  -0.550894  0  2.330411  0
O  O61  1  0.37925796  0.50786357  0.68426001  1  -1.158848  0  -0.321585  -0.551435  0  2.330904  0
O  O62  1  0.61634096  0.68591787  0.50089651  1  -1.174705  0  -0.314786  -0.548799  0  2.343015  0
O  O63  1  0.37947353  0.69103028  0.50156135  1  -1.167812  0  -0.313032  -0.541999  0  2.338294  0
