# generated using pymatgen
data_CuH25C27S(N2O3)2
_symmetry_space_group_name_H-M   'P 1'
_cell_length_a   11.09839808
_cell_length_b   14.77824995
_cell_length_c   18.40646198
_cell_angle_alpha   89.99991297
_cell_angle_beta   89.99997083
_cell_angle_gamma   89.99990712
_symmetry_Int_Tables_number   1
_chemical_formula_structural   CuH25C27S(N2O3)2
_chemical_formula_sum   'Cu4 H100 C108 S4 N16 O24'
_cell_volume   3018.93403741
_cell_formula_units_Z   4
loop_
 _symmetry_equiv_pos_site_id
 _symmetry_equiv_pos_as_xyz
  1  'x, y, z'
loop_
 _atom_site_type_symbol
 _atom_site_label
 _atom_site_symmetry_multiplicity
 _atom_site_fract_x
 _atom_site_fract_y
 _atom_site_fract_z
 _atom_site_occupancy
 _atom_site_pbe_bader_charge
 _atom_site_pbe_bader_spin_density
 _atom_site_pbe_cm5_charge
 _atom_site_pbe_ddec_charge
 _atom_site_pbe_ddec_spin_density
 _atom_site_pbe_ddec_sum_bond_order
 _atom_site_pbe_magmom
Cu  Cu0  1  0.89639300  0.21342032  0.22153986  1  1.067221  0.575686  0.733522  0.709062  0.736775  2.298852  0.575
Cu  Cu1  1  0.89638945  0.78658035  0.77846241  1  1.067243  0.575685  0.733517  0.709138  0.736769  2.298726  0.575
Cu  Cu2  1  0.10360623  0.28657852  0.72153880  1  1.06721  0.575688  0.733476  0.709039  0.736778  2.298861  0.575
Cu  Cu3  1  0.10361136  0.71342786  0.27846045  1  1.067168  0.575684  0.733482  0.708971  0.736776  2.29897  0.575
H  H4  1  0.48623041  0.92825503  0.05000734  1  0.102042  1.5e-05  0.103901  0.109345  1e-05  1.008808  0.0
H  H5  1  0.32151919  0.95449767  0.14031585  1  0.066862  9e-06  0.100934  0.105875  -1.4e-05  1.019073  0.0
H  H6  1  0.57867517  0.93010542  0.31424442  1  0.08163  9e-06  0.106146  0.110606  7e-06  0.979702  0.0
H  H7  1  0.74065898  0.90151474  0.22604984  1  0.116566  -1.5e-05  0.110435  0.115987  -3.2e-05  1.00443  0.0
H  H8  1  0.31104471  0.88375504  0.30823138  1  0.096688  -3.2e-05  0.095164  0.141749  -5.4e-05  1.012184  0.0
H  H9  1  0.25776215  0.98220858  0.26496446  1  0.045084  1.6e-05  0.091319  0.130536  7e-06  1.020895  0.0
H  H10  1  0.36669315  0.99051322  0.33592050  1  0.028115  3.5e-05  0.089939  0.125197  2.5e-05  1.000423  0.0
H  H11  1  0.91606540  0.89389538  0.16837823  1  0.067149  0.001116  0.116959  0.086367  0.000557  0.991957  0.001
H  H12  1  0.12168492  0.96583606  0.15298860  1  0.014073  0.000458  0.093435  0.091886  0.000293  1.006395  0.0
H  H13  1  0.07419266  0.00413164  0.06606863  1  0.014334  0.000171  0.091064  0.093298  5.6e-05  0.989737  0.0
H  H14  1  0.03173069  0.83826159  0.03226098  1  0.061279  0.001408  0.096838  0.116403  0.000683  0.993281  0.001
H  H15  1  0.18469868  0.85996905  0.05037904  1  0.027413  0.000654  0.093193  0.101836  0.000266  0.982907  0.0
H  H16  1  0.84038407  0.24081077  0.04667681  1  0.088847  -2.1e-05  0.107549  0.077997  -3.3e-05  1.037285  0.0
H  H17  1  0.84839642  0.35965348  0.95247167  1  0.075273  8e-06  0.105372  0.118705  1.1e-05  1.022797  0.0
H  H18  1  0.98868710  0.54156544  0.11674765  1  0.097837  0.00012  0.112178  0.137509  0.000125  1.010366  0.0
H  H19  1  0.96978266  0.41594968  0.20462665  1  0.163939  -8.2e-05  0.10982  0.089492  -8.4e-05  1.043296  0.0
H  H20  1  0.70480855  0.21316319  0.33907199  1  0.150468  0.001983  0.122325  0.099675  0.000887  1.01193  0.001
H  H21  1  0.48059781  0.21351587  0.34128429  1  0.08263  0.001226  0.110421  0.117944  0.000642  1.000785  0.001
H  H22  1  0.49014980  0.16108633  0.10975693  1  0.100834  0.000993  0.109693  0.117107  0.000528  1.002253  0.0
H  H23  1  0.71074468  0.16879143  0.11696632  1  0.159155  0.001736  0.117756  0.097336  0.000728  1.052135  0.001
H  H24  1  0.30316506  0.15642533  0.33678104  1  0.089506  0.001136  0.111744  0.116556  0.000595  1.006499  0.001
H  H25  1  0.08024369  0.17169250  0.33013340  1  0.170666  0.002051  0.123714  0.098931  0.000883  1.031714  0.001
H  H26  1  0.09209407  0.23542555  0.11153567  1  0.126752  0.002132  0.124033  0.098603  0.001001  1.000226  0.001
H  H27  1  0.31543532  0.22808016  0.10885723  1  0.083088  0.001159  0.111286  0.117674  0.000614  0.997015  0.001
H  H28  1  0.82107971  0.01932379  0.05880312  1  0.489592  0.000691  0.306676  0.283083  0.000673  0.98144  0.0
H  H29  1  0.48623275  0.07174546  0.94999288  1  0.102164  1.5e-05  0.103901  0.109364  1e-05  1.008801  0.0
H  H30  1  0.32152256  0.04550302  0.85968496  1  0.066913  9e-06  0.100942  0.105909  -1.4e-05  1.019009  0.0
H  H31  1  0.57867684  0.06989767  0.68575632  1  0.081597  9e-06  0.106121  0.110588  7e-06  0.979733  0.0
H  H32  1  0.74066051  0.09848815  0.77395085  1  0.116402  -1.5e-05  0.11044  0.115974  -3.2e-05  1.004435  0.0
H  H33  1  0.31104537  0.11624770  0.69176944  1  0.09667  -3.2e-05  0.095148  0.141747  -5.4e-05  1.012141  0.0
H  H34  1  0.25776480  0.01779286  0.73503800  1  0.045112  1.6e-05  0.091347  0.130558  7e-06  1.020843  0.0
H  H35  1  0.36669587  0.00948809  0.66408085  1  0.028138  3.5e-05  0.08996  0.125228  2.5e-05  1.000385  0.0
H  H36  1  0.91606597  0.10610526  0.83162295  1  0.067388  0.001116  0.116959  0.08638  0.000557  0.991933  0.001
H  H37  1  0.12168653  0.03416284  0.84701336  1  0.014147  0.000459  0.093436  0.091908  0.000293  1.006392  0.0
H  H38  1  0.07419302  0.99586868  0.93393389  1  0.013726  0.000172  0.091086  0.093328  5.6e-05  0.98969  0.0
H  H39  1  0.03173192  0.16174014  0.96773884  1  0.061167  0.001408  0.09684  0.1164  0.000683  0.993321  0.001
H  H40  1  0.18469907  0.14002978  0.94962236  1  0.027427  0.000654  0.093174  0.10183  0.000266  0.982912  0.0
H  H41  1  0.84038492  0.75919132  0.95332330  1  0.088856  -2.1e-05  0.10755  0.077996  -3.3e-05  1.037323  0.0
H  H42  1  0.84839560  0.64034725  0.04752898  1  0.075254  8e-06  0.105401  0.118764  1.1e-05  1.022683  0.0
H  H43  1  0.98868596  0.45843444  0.88325296  1  0.098035  0.00012  0.112181  0.137469  0.000125  1.01041  0.0
H  H44  1  0.96977953  0.58405022  0.79537234  1  0.16388  -8.2e-05  0.1098  0.089463  -8.4e-05  1.043301  0.0
H  H45  1  0.70480960  0.78683704  0.66092762  1  0.150497  0.001984  0.12232  0.099686  0.000888  1.01185  0.001
H  H46  1  0.48059796  0.78648531  0.65871648  1  0.082639  0.001226  0.110406  0.117921  0.000642  1.000827  0.001
H  H47  1  0.49014783  0.83891281  0.89024492  1  0.100811  0.000993  0.109689  0.117083  0.000529  1.002192  0.0
H  H48  1  0.71074364  0.83120541  0.88303492  1  0.159142  0.001736  0.117753  0.09735  0.000728  1.052097  0.001
H  H49  1  0.30316328  0.84357674  0.66321924  1  0.089518  0.001136  0.111747  0.116588  0.000595  1.006489  0.001
H  H50  1  0.08024103  0.82830849  0.66986640  1  0.17095  0.002051  0.123683  0.098903  0.000883  1.031668  0.001
H  H51  1  0.09209137  0.76457475  0.88846413  1  0.12687  0.002132  0.124012  0.098575  0.001001  1.000258  0.001
H  H52  1  0.31543260  0.77191986  0.89114304  1  0.083118  0.001158  0.111287  0.11769  0.000614  0.996907  0.001
H  H53  1  0.82108100  0.98067697  0.94119754  1  0.489619  0.00069  0.306634  0.283083  0.000673  0.981372  0.0
H  H54  1  0.51377059  0.57174684  0.55000750  1  0.102048  1.5e-05  0.103887  0.109345  1e-05  1.008905  0.0
H  H55  1  0.67848084  0.54549929  0.64031599  1  0.066858  8e-06  0.100936  0.105871  -1.4e-05  1.019072  0.0
H  H56  1  0.42132561  0.56989392  0.81424461  1  0.081627  9e-06  0.106125  0.110577  7e-06  0.979712  0.0
H  H57  1  0.25934098  0.59848748  0.72605059  1  0.116441  -1.5e-05  0.110449  0.116005  -3.2e-05  1.004387  0.0
H  H58  1  0.68895338  0.61624431  0.80823035  1  0.096475  -3.2e-05  0.095163  0.141697  -5.4e-05  1.012123  0.0
H  H59  1  0.74223777  0.51778950  0.76496353  1  0.045178  1.6e-05  0.091336  0.130571  7e-06  1.02089  0.0
H  H60  1  0.63330671  0.50948405  0.83592070  1  0.028085  3.5e-05  0.089944  0.125186  2.5e-05  1.000382  0.0
H  H61  1  0.08393370  0.60610356  0.66837739  1  0.067177  0.001116  0.116978  0.086394  0.000557  0.99194  0.001
H  H62  1  0.87831239  0.53416155  0.65298815  1  0.014114  0.000459  0.093434  0.091884  0.000293  1.006362  0.0
H  H63  1  0.92580671  0.49586952  0.56606652  1  0.013746  0.000172  0.091066  0.093308  5.6e-05  0.989735  0.0
H  H64  1  0.96826763  0.66173964  0.53226306  1  0.061216  0.001408  0.096812  0.11637  0.000683  0.993382  0.001
H  H65  1  0.81530052  0.64003079  0.55037793  1  0.027288  0.000654  0.093178  0.101828  0.000266  0.9829  0.0
H  H66  1  0.15961622  0.25918840  0.54667576  1  0.088712  -2.1e-05  0.107564  0.078024  -3.3e-05  1.037213  0.0
H  H67  1  0.15160352  0.14034492  0.45246870  1  0.075213  8e-06  0.105405  0.118711  1.1e-05  1.022762  0.0
H  H68  1  0.01131205  0.95843089  0.61674423  1  0.098015  0.00012  0.112178  0.137483  0.000125  1.010387  0.0
H  H69  1  0.03021748  0.08404580  0.70462585  1  0.163955  -8.2e-05  0.109814  0.08948  -8.4e-05  1.04331  0.0
H  H70  1  0.29519689  0.28683813  0.83907358  1  0.150425  0.001984  0.122286  0.099655  0.000887  1.01188  0.001
H  H71  1  0.51941033  0.28648477  0.84128473  1  0.08271  0.001226  0.110442  0.117973  0.000642  1.000888  0.001
H  H72  1  0.50985944  0.33891204  0.60975785  1  0.10106  0.000993  0.109677  0.117136  0.000528  1.002173  0.0
H  H73  1  0.28926185  0.33120896  0.61696677  1  0.159214  0.001736  0.117761  0.097354  0.000728  1.052076  0.001
H  H74  1  0.69682596  0.34357465  0.83678135  1  0.089463  0.001135  0.111735  0.116527  0.000595  1.006559  0.001
H  H75  1  0.91975185  0.32831019  0.83013421  1  0.170617  0.00205  0.123701  0.098902  0.000883  1.031678  0.001
H  H76  1  0.90790165  0.26457553  0.61153602  1  0.126731  0.002132  0.123997  0.098563  0.001  1.000109  0.001
H  H77  1  0.68455860  0.27191821  0.60885873  1  0.083004  0.001158  0.111239  0.117565  0.000614  0.99711  0.001
H  H78  1  0.17892326  0.48067671  0.55880234  1  0.489603  0.00069  0.306681  0.2831  0.000673  0.981482  0.0
H  H79  1  0.51376809  0.42825362  0.44999217  1  0.102173  1.5e-05  0.103893  0.109342  1e-05  1.008879  0.0
H  H80  1  0.67847926  0.45449961  0.35968471  1  0.066909  9e-06  0.100925  0.105861  -1.4e-05  1.019103  0.0
H  H81  1  0.42132423  0.43010665  0.18575509  1  0.081597  9e-06  0.10614  0.110615  7e-06  0.979692  0.0
H  H82  1  0.25934048  0.40151397  0.27394970  1  0.116576  -1.5e-05  0.110441  0.116026  -3.2e-05  1.004402  0.0
H  H83  1  0.68895569  0.38375458  0.19176873  1  0.096428  -3.2e-05  0.095149  0.141696  -5.4e-05  1.012168  0.0
H  H84  1  0.74223713  0.48220865  0.23503661  1  0.045058  1.6e-05  0.091346  0.130572  7e-06  1.020921  0.0
H  H85  1  0.63330702  0.49051491  0.16407948  1  0.028105  3.4e-05  0.089945  0.125203  2.5e-05  1.000371  0.0
H  H86  1  0.08393407  0.39389607  0.33162133  1  0.067144  0.001116  0.11697  0.086391  0.000557  0.991949  0.001
H  H87  1  0.87831439  0.46583779  0.34701087  1  0.014044  0.000458  0.093425  0.091863  0.000293  1.006425  0.0
H  H88  1  0.92580676  0.50413179  0.43393194  1  0.014347  0.000171  0.091084  0.093329  5.6e-05  0.989675  0.0
H  H89  1  0.96826800  0.33826162  0.46773810  1  0.061307  0.001408  0.096813  0.116371  0.000683  0.993356  0.001
H  H90  1  0.81530087  0.35997066  0.44962164  1  0.027248  0.000654  0.093151  0.101791  0.000266  0.98288  0.0
H  H91  1  0.15961754  0.74081046  0.45332401  1  0.088755  -2.1e-05  0.107557  0.078073  -3.3e-05  1.037314  0.0
H  H92  1  0.15160631  0.85965531  0.54752999  1  0.075227  8e-06  0.105421  0.118772  1.1e-05  1.02272  0.0
H  H93  1  0.01131133  0.04156612  0.38325396  1  0.098024  0.00012  0.112169  0.137487  0.000125  1.01037  0.0
H  H94  1  0.03021676  0.91595051  0.29537342  1  0.163937  -8.2e-05  0.10979  0.089454  -8.4e-05  1.043297  0.0
H  H95  1  0.29519221  0.71316598  0.16092833  1  0.150412  0.001984  0.122333  0.099656  0.000888  1.011876  0.001
H  H96  1  0.51940295  0.71351501  0.15871711  1  0.082624  0.001226  0.110396  0.117888  0.000642  1.000885  0.001
H  H97  1  0.50985288  0.66108504  0.39024399  1  0.100805  0.000993  0.109684  0.117088  0.000529  1.002201  0.0
H  H98  1  0.28925708  0.66879110  0.38303405  1  0.159159  0.001736  0.117746  0.097336  0.000728  1.05216  0.001
H  H99  1  0.69683312  0.65642356  0.16321880  1  0.089476  0.001135  0.111749  0.116562  0.000595  1.006537  0.001
H  H100  1  0.91975627  0.67169113  0.16986642  1  0.170917  0.00205  0.123685  0.098868  0.000883  1.031704  0.001
H  H101  1  0.90790394  0.73542513  0.38846407  1  0.126772  0.002132  0.12404  0.098613  0.001001  1.000224  0.001
H  H102  1  0.68456271  0.72807866  0.39114252  1  0.083083  0.001159  0.111282  0.117664  0.000614  0.996988  0.001
H  H103  1  0.17892147  0.51932280  0.44119634  1  0.489628  0.00069  0.306655  0.283086  0.000673  0.981373  0.0
C  C104  1  0.50464115  0.92784897  0.10815377  1  -0.052981  9e-06  -0.089387  -0.09339  6e-06  4.02583  0.0
C  C105  1  0.41352616  0.94284060  0.15894898  1  -0.073647  -3.4e-05  -0.092897  -0.145985  -4.8e-05  3.959943  0.0
C  C106  1  0.43773954  0.94200821  0.23372651  1  0.030193  3.8e-05  -0.002083  0.180046  7e-06  3.970962  0.0
C  C107  1  0.55731175  0.92896665  0.25634573  1  -0.078675  -2e-05  -0.087636  -0.136941  -2.9e-05  3.946197  0.0
C  C108  1  0.64916379  0.91275972  0.20661157  1  -0.044119  -1e-05  -0.082579  -0.078536  -4.1e-05  3.985498  0.0
C  C109  1  0.62182204  0.91108166  0.13230560  1  -0.178379  3.2e-05  -0.028241  -0.108376  -2e-06  4.013638  0.0
C  C110  1  0.33833146  0.95090034  0.28840460  1  -0.082905  -1e-06  -0.241037  -0.422752  -1.6e-05  3.959893  0.0
C  C111  1  0.93199198  0.95403581  0.13493232  1  0.332103  0.010685  0.006135  0.038852  0.007548  3.82694  0.008
C  C112  1  0.91587710  0.03835496  0.18232602  1  1.549347  -0.001585  0.190033  0.537322  -0.002393  4.215918  -0.004
C  C113  1  0.06232594  0.95034716  0.10679886  1  0.025433  0.000582  -0.164713  -0.162985  0.000444  3.924458  0.0
C  C114  1  0.09462081  0.85792892  0.07567615  1  -0.054552  0.010902  -0.169002  -0.284805  0.007556  3.934152  0.008
C  C115  1  0.09731044  0.78022414  0.13110999  1  1.548885  -0.000317  0.190718  0.59752  -0.000474  4.19252  -0.002
C  C116  1  0.86998465  0.30893383  0.06068815  1  0.485326  -0.000348  0.034927  0.087764  -0.000354  3.98328  0.0
C  C117  1  0.87541151  0.37591339  0.00776104  1  0.025455  4.9e-05  -0.084518  -0.167568  2.9e-05  3.936763  0.0
C  C118  1  0.91447831  0.46298929  0.02693360  1  -0.05216  -0.000288  0.011906  0.10625  -0.000318  3.975713  0.0
C  C119  1  0.95067989  0.47714784  0.09906912  1  -0.02922  0.000194  -0.080203  -0.16584  0.000148  3.881812  0.0
C  C120  1  0.94205437  0.40600879  0.14843172  1  0.44116  -0.00038  0.038658  0.097665  -0.000419  3.956277  0.0
C  C121  1  0.65264339  0.20408642  0.28950191  1  0.385701  -0.000878  0.055353  0.106574  -0.001391  3.910695  0.0
C  C122  1  0.52746948  0.20169988  0.29018267  1  0.054989  0.004431  -0.078351  -0.167128  0.003078  3.930926  0.004
C  C123  1  0.46349902  0.18856919  0.22520659  1  -0.031155  -0.003527  0.012975  0.09986  -0.003944  3.989674  -0.002
C  C124  1  0.53189092  0.17539309  0.16202497  1  -0.035776  0.004606  -0.079678  -0.163771  0.003118  3.934879  0.004
C  C125  1  0.65662062  0.17935153  0.16539279  1  0.446744  -0.001528  0.04619  0.094067  -0.002018  3.920205  -0.001
C  C126  1  0.33066183  0.19086657  0.22318558  1  -0.003697  -0.003231  0.011899  0.097061  -0.003653  3.986885  -0.002
C  C127  1  0.26141309  0.17429558  0.28534801  1  -0.001947  0.004449  -0.074976  -0.154004  0.003007  3.933007  0.004
C  C128  1  0.13679240  0.18239337  0.28253977  1  0.469789  -0.001464  0.056507  0.107661  -0.001934  3.900624  -0.001
C  C129  1  0.14313206  0.21850601  0.16019087  1  0.500224  -0.001183  0.050179  0.097117  -0.001434  3.934976  -0.001
C  C130  1  0.26793026  0.21271702  0.15915589  1  -0.064526  0.004821  -0.081982  -0.176162  0.003208  3.945504  0.004
C  C131  1  0.50464354  0.07215218  0.89184591  1  -0.052508  9e-06  -0.08936  -0.09337  6e-06  4.025815  0.0
C  C132  1  0.41352773  0.05716201  0.84105181  1  -0.074003  -3.4e-05  -0.092872  -0.145965  -4.8e-05  3.95985  0.0
C  C133  1  0.43774387  0.05799505  0.76627426  1  0.029844  3.8e-05  -0.002126  0.179926  7e-06  3.970939  0.0
C  C134  1  0.55731517  0.07103917  0.74365175  1  -0.07845  -2.1e-05  -0.08758  -0.136832  -3e-05  3.946224  0.0
C  C135  1  0.64916533  0.08724464  0.79338698  1  -0.043722  -9e-06  -0.082561  -0.078531  -4.1e-05  3.985539  0.0
C  C136  1  0.62182441  0.08892205  0.86769403  1  -0.17883  3.2e-05  -0.028277  -0.108418  -2e-06  4.013702  0.0
C  C137  1  0.33833406  0.04910101  0.71159729  1  -0.08289  -0.0  -0.241082  -0.42279  -1.6e-05  3.959761  0.0
C  C138  1  0.93199355  0.04596481  0.86506885  1  0.331797  0.010686  0.006137  0.038859  0.007549  3.826919  0.008
C  C139  1  0.91587584  0.96164569  0.81767461  1  1.549342  -0.001585  0.190083  0.537421  -0.002394  4.215711  -0.004
C  C140  1  0.06232658  0.04965182  0.89320203  1  0.025343  0.000582  -0.164753  -0.163051  0.000444  3.92447  0.0
C  C141  1  0.09462122  0.14207069  0.92432474  1  -0.054442  0.010906  -0.169018  -0.284858  0.007559  3.93419  0.008
C  C142  1  0.09731344  0.21977751  0.86888655  1  1.54879  -0.000317  0.190759  0.597611  -0.000475  4.192408  -0.002
C  C143  1  0.86998297  0.69106552  0.93931196  1  0.485457  -0.000348  0.034962  0.087805  -0.000354  3.983363  0.0
C  C144  1  0.87541263  0.62408595  0.99223960  1  0.025433  4.9e-05  -0.084579  -0.167647  2.9e-05  3.936807  0.0
C  C145  1  0.91447603  0.53701204  0.97306649  1  -0.006532  -0.000286  0.011893  0.106175  -0.000318  3.975892  0.0
C  C146  1  0.95067950  0.52285073  0.90093259  1  -0.0294  0.000194  -0.080197  -0.165777  0.000148  3.88181  0.0
C  C147  1  0.94205207  0.59399047  0.85156836  1  0.441324  -0.00038  0.038698  0.097726  -0.000418  3.956128  0.0
C  C148  1  0.65264348  0.79591523  0.71049989  1  0.385792  -0.000879  0.055409  0.106593  -0.001392  3.910611  0.0
C  C149  1  0.52746685  0.79830192  0.70981808  1  0.054988  0.004432  -0.078406  -0.167165  0.003078  3.930976  0.004
C  C150  1  0.46349992  0.81143200  0.77479364  1  -0.031285  -0.003527  0.013047  0.09987  -0.003944  3.989688  -0.002
C  C151  1  0.53189263  0.82460667  0.83797523  1  -0.035673  0.004605  -0.079689  -0.163752  0.003117  3.934889  0.004
C  C152  1  0.65661785  0.82064740  0.83460846  1  0.446954  -0.001527  0.046164  0.094014  -0.002018  3.920183  -0.001
C  C153  1  0.33066183  0.80913411  0.77681414  1  -0.003755  -0.003231  0.011904  0.097111  -0.003652  3.986753  -0.002
C  C154  1  0.26141131  0.82570519  0.71465228  1  -0.001848  0.004449  -0.074977  -0.154051  0.003006  3.93302  0.004
C  C155  1  0.13679063  0.81760823  0.71746110  1  0.469522  -0.001463  0.056534  0.10767  -0.001933  3.900606  -0.001
C  C156  1  0.14312847  0.78149558  0.83980891  1  0.499886  -0.001182  0.050186  0.097082  -0.001434  3.93496  -0.001
C  C157  1  0.26792665  0.78728441  0.84084385  1  -0.06447  0.00482  -0.081977  -0.176164  0.003208  3.945195  0.004
C  C158  1  0.49535890  0.57215009  0.60815393  1  -0.052962  1e-05  -0.089378  -0.093468  7e-06  4.026048  0.0
C  C159  1  0.58647295  0.55715498  0.65894967  1  -0.073641  -3.4e-05  -0.092884  -0.145959  -4.8e-05  3.959995  0.0
C  C160  1  0.56225951  0.55798722  0.73372668  1  0.030083  3.8e-05  -0.002122  0.180066  7e-06  3.971051  0.0
C  C161  1  0.44268908  0.57103009  0.75634646  1  -0.078667  -2e-05  -0.087601  -0.136894  -2.9e-05  3.946111  0.0
C  C162  1  0.35083709  0.58723915  0.70661230  1  -0.043832  -9e-06  -0.0826  -0.078608  -4.1e-05  3.985392  0.0
C  C163  1  0.37817710  0.58891870  0.63230578  1  -0.178486  3.2e-05  -0.028248  -0.108304  -3e-06  4.013576  0.0
C  C164  1  0.66166754  0.54909567  0.78840257  1  -0.082744  -1e-06  -0.241028  -0.422712  -1.6e-05  3.959828  0.0
C  C165  1  0.06800715  0.54596387  0.63493156  1  0.33203  0.010686  0.006127  0.038886  0.007548  3.826923  0.008
C  C166  1  0.08412397  0.46164395  0.68232475  1  1.549208  -0.001585  0.190024  0.537293  -0.002394  4.215891  -0.004
C  C167  1  0.93767321  0.54965257  0.60679837  1  0.025359  0.000582  -0.164735  -0.163007  0.000444  3.924473  0.0
C  C168  1  0.90537837  0.64206952  0.57567664  1  -0.05433  0.010907  -0.169017  -0.284863  0.007559  3.934267  0.008
C  C169  1  0.90268599  0.71977758  0.63111256  1  1.54913  -0.000317  0.1908  0.597626  -0.000474  4.192484  -0.002
C  C170  1  0.13001652  0.19106261  0.56068828  1  0.485738  -0.000348  0.034965  0.08781  -0.000354  3.983227  0.0
C  C171  1  0.12458700  0.12408315  0.50775854  1  0.025237  4.9e-05  -0.084609  -0.167633  2.9e-05  3.936847  0.0
C  C172  1  0.08552109  0.03701060  0.52693176  1  -0.052126  -0.000288  0.011908  0.106199  -0.000318  3.975959  0.0
C  C173  1  0.04931855  0.02284920  0.59906676  1  -0.02944  0.000194  -0.08019  -0.165762  0.000148  3.881795  0.0
C  C174  1  0.05794582  0.09398680  0.64842873  1  0.441767  -0.00038  0.038679  0.09769  -0.000418  3.956271  0.0
C  C175  1  0.34736299  0.29591635  0.78950185  1  0.385549  -0.000879  0.055431  0.106634  -0.001392  3.910495  0.0
C  C176  1  0.47254051  0.29830086  0.79018528  1  0.055045  0.004431  -0.078353  -0.167077  0.003078  3.930801  0.004
C  C177  1  0.53650471  0.31142964  0.72520863  1  -0.031307  -0.003526  0.012952  0.099815  -0.003943  3.989672  -0.002
C  C178  1  0.46811467  0.32460857  0.66202538  1  -0.03605  0.004605  -0.079665  -0.163796  0.003117  3.934489  0.004
C  C179  1  0.34338587  0.32065079  0.66539324  1  0.447064  -0.001526  0.046209  0.094104  -0.002017  3.919952  -0.001
C  C180  1  0.66933379  0.30913159  0.72318595  1  -0.003458  -0.003231  0.011877  0.09693  -0.003652  3.987215  -0.002
C  C181  1  0.73858068  0.32570381  0.78534997  1  -0.001848  0.004448  -0.074883  -0.153876  0.003006  3.932932  0.004
C  C182  1  0.86320048  0.31760806  0.78254061  1  0.469771  -0.001463  0.056512  0.107709  -0.001933  3.900234  -0.001
C  C183  1  0.85686362  0.28149565  0.66019175  1  0.500204  -0.001182  0.050236  0.09715  -0.001435  3.934752  -0.001
C  C184  1  0.73206362  0.28728328  0.65915572  1  -0.064925  0.004821  -0.081934  -0.175938  0.003208  3.945412  0.004
C  C185  1  0.49535735  0.42784836  0.39184575  1  -0.053033  1e-05  -0.089328  -0.093322  7e-06  4.025829  0.0
C  C186  1  0.58647321  0.44284201  0.34105160  1  -0.073663  -3.4e-05  -0.092892  -0.145995  -4.8e-05  3.959854  0.0
C  C187  1  0.56225803  0.44200912  0.26627298  1  0.030173  3.9e-05  -0.00207  0.180105  7e-06  3.970873  0.0
C  C188  1  0.44268675  0.42896707  0.24365160  1  -0.078793  -2e-05  -0.087647  -0.136925  -3e-05  3.946189  0.0
C  C189  1  0.35083655  0.41275948  0.29338633  1  -0.043855  -1e-05  -0.082597  -0.078674  -4.1e-05  3.985493  0.0
C  C190  1  0.37817650  0.41108057  0.36769230  1  -0.178643  3.2e-05  -0.028274  -0.108373  -3e-06  4.013587  0.0
C  C191  1  0.66166789  0.45090258  0.21159705  1  -0.082581  -0.0  -0.241064  -0.422771  -1.6e-05  3.959844  0.0
C  C192  1  0.06800827  0.45403578  0.36506716  1  0.332139  0.010686  0.006124  0.038826  0.007549  3.826944  0.008
C  C193  1  0.08412404  0.53835500  0.31767451  1  1.549317  -0.001585  0.190082  0.537465  -0.002394  4.215803  -0.004
C  C194  1  0.93767251  0.45034737  0.39320062  1  0.025415  0.000582  -0.164726  -0.162971  0.000444  3.92447  0.0
C  C195  1  0.90537874  0.35793047  0.42432236  1  -0.054342  0.010907  -0.168982  -0.28482  0.007559  3.934186  0.008
C  C196  1  0.90268837  0.28022037  0.36888753  1  1.549024  -0.000316  0.190788  0.59767  -0.000475  4.192373  -0.002
C  C197  1  0.13001771  0.80893494  0.43931314  1  0.485439  -0.000348  0.034906  0.087637  -0.000354  3.983257  0.0
C  C198  1  0.12458620  0.87591440  0.49224071  1  0.025362  4.9e-05  -0.084572  -0.167628  2.9e-05  3.936674  0.0
C  C199  1  0.08552101  0.96298903  0.47306641  1  -0.006426  -0.000286  0.01188  0.10622  -0.000318  3.975848  0.0
C  C200  1  0.04931941  0.97714844  0.40093142  1  -0.029437  0.000194  -0.080177  -0.165796  0.000148  3.881815  0.0
C  C201  1  0.05794507  0.90600948  0.35156890  1  0.441716  -0.00038  0.038709  0.09773  -0.000419  3.95617  0.0
C  C202  1  0.34735739  0.70408499  0.21049950  1  0.385753  -0.000879  0.055398  0.10664  -0.001393  3.910578  0.0
C  C203  1  0.47253402  0.70169830  0.20981657  1  0.055051  0.004431  -0.078374  -0.167123  0.003078  3.930942  0.004
C  C204  1  0.53649999  0.68856809  0.27479321  1  -0.031154  -0.003527  0.012992  0.099873  -0.003944  3.98965  -0.002
C  C205  1  0.46810813  0.67539127  0.33797647  1  -0.035834  0.004605  -0.079717  -0.163793  0.003117  3.934872  0.004
C  C206  1  0.34338382  0.67935055  0.33460865  1  0.446965  -0.001526  0.046175  0.094045  -0.002017  3.920193  -0.001
C  C207  1  0.66933718  0.69086462  0.27681530  1  -0.003775  -0.003231  0.01196  0.097162  -0.003652  3.986823  -0.002
C  C208  1  0.73858595  0.67429367  0.21465127  1  -0.001764  0.004448  -0.074937  -0.153986  0.003006  3.932922  0.004
C  C209  1  0.86320573  0.68239198  0.21746058  1  0.469461  -0.001463  0.056451  0.107616  -0.001933  3.900457  -0.001
C  C210  1  0.85686779  0.71850439  0.33980890  1  0.500229  -0.001183  0.050206  0.09713  -0.001434  3.935054  -0.001
C  C211  1  0.73206870  0.71271420  0.34084443  1  -0.064538  0.00482  -0.08202  -0.17621  0.003208  3.945541  0.004
S  S212  1  0.73552859  0.88293556  0.06827048  1  2.95891  3.7e-05  0.556409  1.077165  -6.9e-05  5.9706  0.0
S  S213  1  0.73552905  0.11706598  0.93172912  1  2.958897  3.7e-05  0.556427  1.077169  -6.9e-05  5.970617  0.0
S  S214  1  0.26447059  0.61706628  0.56827012  1  2.95873  3.7e-05  0.556441  1.077188  -6.9e-05  5.970499  0.0
S  S215  1  0.26447091  0.38293313  0.43172854  1  2.959024  3.7e-05  0.556449  1.077199  -6.9e-05  5.970583  0.0
N  N216  1  0.71665988  0.19500552  0.22776543  1  -1.19401  0.079022  -0.338687  -0.213003  0.052786  3.591291  0.069
N  N217  1  0.07856147  0.20498207  0.22120424  1  -1.188835  0.080695  -0.33751  -0.20524  0.053925  3.589106  0.071
N  N218  1  0.90071067  0.32333937  0.13046526  1  -1.251991  -0.001705  -0.336063  -0.294432  -0.00146  3.520282  0.0
N  N219  1  0.84579668  0.95512266  0.07421018  1  -1.325285  0.00117  -0.455093  -0.486778  0.000625  3.436344  0.0
N  N220  1  0.71665809  0.80499334  0.77223526  1  -1.194289  0.079021  -0.338717  -0.212994  0.052786  3.591305  0.069
N  N221  1  0.07855880  0.79501960  0.77879556  1  -1.188778  0.080691  -0.33748  -0.205168  0.053923  3.589142  0.071
N  N222  1  0.90070727  0.67666197  0.86953538  1  -1.252168  -0.001705  -0.336098  -0.294509  -0.00146  3.52031  0.0
N  N223  1  0.84579640  0.04487943  0.92579102  1  -1.32571  0.001169  -0.455067  -0.486797  0.000625  3.436245  0.0
N  N224  1  0.28334476  0.30499533  0.72776647  1  -1.194148  0.079018  -0.338732  -0.213152  0.052784  3.591247  0.069
N  N225  1  0.92143596  0.29501948  0.72120401  1  -1.188483  0.080687  -0.337562  -0.205335  0.053921  3.588762  0.071
N  N226  1  0.09929045  0.17665761  0.63046433  1  -1.252641  -0.001706  -0.336102  -0.294498  -0.00146  3.5204  0.0
N  N227  1  0.15420431  0.54487849  0.57420885  1  -1.325702  0.001169  -0.455126  -0.486881  0.000625  3.436385  0.0
N  N228  1  0.28334273  0.69500608  0.27223436  1  -1.19419  0.079021  -0.338689  -0.212999  0.052786  3.591281  0.069
N  N229  1  0.92143751  0.70498116  0.27879663  1  -1.188818  0.08069  -0.337471  -0.205155  0.053922  3.589034  0.071
N  N230  1  0.09928986  0.82333862  0.36953547  1  -1.252463  -0.001706  -0.336058  -0.294397  -0.00146  3.52027  0.0
N  N231  1  0.15420537  0.45512105  0.42578929  1  -1.325344  0.00117  -0.455101  -0.486838  0.000625  3.436285  0.0
O  O232  1  0.92203112  0.03212818  0.24961870  1  -1.13937  0.001712  -0.317474  -0.546731  1.7e-05  2.175102  0.002
O  O233  1  0.90090911  0.11273323  0.14601536  1  -1.121016  0.112687  -0.331941  -0.543857  0.071909  2.314556  0.101
O  O234  1  0.09698437  0.70047791  0.10893521  1  -1.182186  0.001254  -0.345053  -0.57798  -0.000197  2.102903  0.001
O  O235  1  0.10244446  0.80531770  0.19888073  1  -1.112441  0.105904  -0.336666  -0.55568  0.067349  2.328968  0.096
O  O236  1  0.78378789  0.79569988  0.08890459  1  -1.315973  0.000528  -0.305456  -0.535916  0.000318  2.243724  0.0
O  O237  1  0.68391353  0.89469862  0.99639290  1  -1.329423  2.9e-05  -0.316042  -0.54574  -3.1e-05  2.225114  0.0
O  O238  1  0.92202900  0.96787179  0.75038085  1  -1.139331  0.001713  -0.31752  -0.546799  1.8e-05  2.174995  0.002
O  O239  1  0.90090798  0.88726811  0.85398582  1  -1.121055  0.112686  -0.33193  -0.543914  0.071908  2.314576  0.101
O  O240  1  0.09699348  0.29952306  0.89106458  1  -1.182247  0.001256  -0.345046  -0.578005  -0.000197  2.102951  0.001
O  O241  1  0.10244487  0.19468123  0.80111743  1  -1.112378  0.105903  -0.336693  -0.555733  0.067348  2.328824  0.096
O  O242  1  0.78378458  0.20430161  0.91109609  1  -1.31584  0.000528  -0.305471  -0.535902  0.000318  2.243791  0.0
O  O243  1  0.68391210  0.10530163  0.00360726  1  -1.32801  2.9e-05  -0.316048  -0.545758  -3.1e-05  2.225023  0.0
O  O244  1  0.07796989  0.46786993  0.74961742  1  -1.139279  0.001712  -0.317473  -0.546724  1.7e-05  2.175033  0.002
O  O245  1  0.09909379  0.38726643  0.64601309  1  -1.120975  0.112691  -0.331924  -0.543835  0.071911  2.314589  0.101
O  O246  1  0.90300668  0.79952318  0.60893335  1  -1.1823  0.001256  -0.34506  -0.578021  -0.000196  2.102868  0.001
O  O247  1  0.89755461  0.69468456  0.69888063  1  -1.112654  0.105898  -0.336708  -0.555719  0.067345  2.328941  0.096
O  O248  1  0.21621128  0.70430057  0.58890467  1  -1.315824  0.000528  -0.305498  -0.535936  0.000318  2.243696  0.0
O  O249  1  0.31608710  0.60530308  0.49639319  1  -1.329421  2.9e-05  -0.315994  -0.54569  -3.1e-05  2.225099  0.0
O  O250  1  0.07797003  0.53212903  0.25038130  1  -1.139317  0.001713  -0.317513  -0.546805  1.8e-05  2.175012  0.002
O  O251  1  0.09909187  0.61273318  0.35398671  1  -1.121107  0.112691  -0.331944  -0.543923  0.071912  2.314513  0.101
O  O252  1  0.90300922  0.20047546  0.39106892  1  -1.182284  0.001256  -0.345075  -0.578045  -0.000196  2.102813  0.001
O  O253  1  0.89755971  0.30531475  0.30111947  1  -1.112609  0.105894  -0.336709  -0.555767  0.067343  2.32896  0.096
O  O254  1  0.21621179  0.29569958  0.41109237  1  -1.315966  0.000528  -0.30551  -0.535939  0.000318  2.243748  0.0
O  O255  1  0.31609002  0.39469627  0.50360383  1  -1.327981  2.9e-05  -0.315991  -0.545688  -3.1e-05  2.225127  0.0
