# generated using pymatgen
data_CuPH15C17(NO3)2
_symmetry_space_group_name_H-M   'P 1'
_cell_length_a   6.89085892
_cell_length_b   9.85922084
_cell_length_c   12.14750704
_cell_angle_alpha   91.51254992
_cell_angle_beta   89.99996860
_cell_angle_gamma   89.99934514
_symmetry_Int_Tables_number   1
_chemical_formula_structural   CuPH15C17(NO3)2
_chemical_formula_sum   'Cu2 P2 H30 C34 N4 O12'
_cell_volume   824.99584888
_cell_formula_units_Z   2
loop_
 _symmetry_equiv_pos_site_id
 _symmetry_equiv_pos_as_xyz
  1  'x, y, z'
loop_
 _atom_site_type_symbol
 _atom_site_label
 _atom_site_symmetry_multiplicity
 _atom_site_fract_x
 _atom_site_fract_y
 _atom_site_fract_z
 _atom_site_occupancy
 _atom_site_pbe_cm5_charge
 _atom_site_pbe_ddec_charge
 _atom_site_pbe_ddec_spin_density
 _atom_site_pbe_ddec_sum_bond_order
 _atom_site_pbe_magmom
Cu  Cu0  1  0.59640736  0.17114058  0.73744520  1  0.757265  0.850886  -0.750762  2.259151  -0.595
Cu  Cu1  1  0.09640352  0.82886041  0.26255669  1  0.757294  0.850973  -0.750761  2.259068  -0.595
P  P2  1  0.72580804  0.12963204  0.99484144  1  0.368403  1.28162  -0.00397  5.330592  -0.003
P  P3  1  0.22580222  0.87036687  0.00516282  1  0.36843  1.28162  -0.003969  5.330938  -0.003
H  H4  1  0.16161219  0.20906469  0.75615854  1  0.282532  0.389608  0.000102  0.950432  0.0
H  H5  1  0.66160914  0.79093379  0.24383914  1  0.282481  0.389576  0.000102  0.950486  0.0
H  H6  1  0.24876923  0.08459032  0.82111647  1  0.286728  0.403614  -0.000192  0.929004  0.0
H  H7  1  0.74876564  0.91541150  0.17888291  1  0.286744  0.403667  -0.000192  0.928949  0.0
H  H8  1  0.59736083  0.87881714  0.81680107  1  0.126383  0.112533  -0.001244  1.012983  -0.002
H  H9  1  0.09736128  0.12118182  0.18319994  1  0.126393  0.112531  -0.001244  1.012957  -0.002
H  H10  1  0.57081202  0.42363871  0.60156691  1  0.119108  0.091474  -0.001251  1.006781  -0.002
H  H11  1  0.07079480  0.57636351  0.39843421  1  0.119105  0.091389  -0.001251  1.00684  -0.002
H  H12  1  0.04057305  0.08750335  0.96812886  1  0.303738  0.394424  2.8e-05  0.954297  0.0
H  H13  1  0.54057395  0.91249000  0.03187036  1  0.3037  0.394373  2.8e-05  0.954346  0.0
H  H14  1  0.56528981  0.64792571  0.72340511  1  0.108834  0.111983  -0.000524  1.021395  0.0
H  H15  1  0.06529371  0.35207553  0.27659680  1  0.108827  0.111985  -0.000524  1.021404  0.0
H  H16  1  0.54505857  0.84756406  0.41237285  1  0.114843  0.136801  -0.00063  1.038427  -0.001
H  H17  1  0.04506119  0.15244038  0.58762999  1  0.114794  0.136731  -0.00063  1.038449  -0.001
H  H18  1  0.57206473  0.03612127  0.33735152  1  0.116784  0.136558  -0.000755  1.002789  -0.001
H  H19  1  0.07207008  0.96388401  0.66264722  1  0.116797  0.1366  -0.000755  1.002732  -0.001
H  H20  1  0.55127859  0.46892492  0.39699361  1  0.106362  0.111911  -0.000599  1.026588  -0.001
H  H21  1  0.05126779  0.53108154  0.60300599  1  0.106371  0.111937  -0.000599  1.026683  -0.001
H  H22  1  0.88853057  0.37573741  0.10040351  1  0.101501  0.099202  -0.00012  1.039694  0.0
H  H23  1  0.38853549  0.62425009  0.89959541  1  0.101494  0.099204  -0.00012  1.039803  0.0
H  H24  1  0.32580085  0.21977457  0.00992931  1  0.108993  0.114934  5.4e-05  1.014381  0.0
H  H25  1  0.82581206  0.78022968  0.99006930  1  0.109006  0.115013  5.5e-05  1.014486  0.0
H  H26  1  0.54045561  0.63620920  0.51575537  1  0.10498  0.09642  -3.3e-05  1.021706  0.0
H  H27  1  0.04046501  0.36379327  0.48424494  1  0.104957  0.096384  -3.3e-05  1.021769  0.0
H  H28  1  0.55194780  0.26949436  0.26466060  1  0.106702  0.102249  2.4e-05  1.04972  0.0
H  H29  1  0.05194674  0.73050902  0.73534055  1  0.106684  0.102264  2.4e-05  1.049708  0.0
H  H30  1  0.73408228  0.57441275  0.19510816  1  0.105576  0.109954  7.2e-05  1.015612  0.0
H  H31  1  0.23408034  0.42558003  0.80489262  1  0.105593  0.109992  7.2e-05  1.015694  0.0
H  H32  1  0.17219859  0.42243255  0.09974381  1  0.102452  0.104715  -0.000376  1.029551  0.0
H  H33  1  0.67220878  0.57756372  0.90026203  1  0.102485  0.104714  -0.000376  1.029729  0.0
C  C34  1  0.58709083  0.86588761  0.72761729  1  0.060738  0.118139  0.001643  3.876138  0.001
C  C35  1  0.08709683  0.13411343  0.27238625  1  0.06073  0.118142  0.001642  3.876431  0.001
C  C36  1  0.57627857  0.97524505  0.55972149  1  0.117959  0.155665  -0.000275  4.005898  -0.001
C  C37  1  0.07628479  0.02476015  0.44028135  1  0.117952  0.155572  -0.000275  4.006  -0.001
C  C38  1  0.57307413  0.10798965  0.50746682  1  0.121603  0.16606  0.000613  3.990206  0.0
C  C39  1  0.07307929  0.89201458  0.49253435  1  0.121686  0.166247  0.000614  3.99009  0.0
C  C40  1  0.56767666  0.34213975  0.53918560  1  0.049191  0.096739  0.002784  3.947312  0.002
C  C41  1  0.06765953  0.65786656  0.46081564  1  0.049131  0.096868  0.002783  3.947609  0.002
C  C42  1  0.61806723  0.28279781  0.05203993  1  -0.017545  -0.1791  0.001164  3.978136  0.001
C  C43  1  0.11807933  0.71719093  0.94795336  1  -0.017615  -0.179176  0.001163  3.978458  0.001
C  C44  1  0.56860071  0.73917104  0.67484349  1  -0.078404  -0.127316  -0.003984  3.961787  -0.005
C  C45  1  0.06861042  0.26082920  0.32515510  1  -0.078324  -0.1273  -0.003983  3.961743  -0.005
C  C46  1  0.55883474  0.85188014  0.50152448  1  -0.07561  -0.140906  -0.002301  3.897445  -0.003
C  C47  1  0.05884618  0.14812217  0.49847746  1  -0.075554  -0.140846  -0.0023  3.897506  -0.003
C  C48  1  0.56627081  0.12415600  0.39345138  1  -0.070104  -0.133582  -0.002827  3.878753  -0.003
C  C49  1  0.06627763  0.87584528  0.60654641  1  -0.070166  -0.133755  -0.002827  3.879123  -0.003
C  C50  1  0.55759503  0.36567499  0.42682298  1  -0.084138  -0.138109  -0.003972  3.968904  -0.005
C  C51  1  0.05758112  0.63432635  0.57317564  1  -0.08404  -0.138083  -0.003973  3.968981  -0.005
C  C52  1  0.73136576  0.38472867  0.10274199  1  -0.083587  -0.074411  -0.000773  4.000429  -0.001
C  C53  1  0.23136938  0.61527734  0.89725835  1  -0.083543  -0.074351  -0.000772  4.000428  -0.001
C  C54  1  0.41530574  0.29682067  0.05114580  1  -0.076765  -0.062253  -0.00012  3.94965  0.0
C  C55  1  0.91530517  0.70319296  0.94885716  1  -0.076656  -0.062212  -0.00012  3.948946  0.0
C  C56  1  0.55552696  0.73273602  0.56037637  1  -0.068623  -0.024339  0.003508  3.968722  0.002
C  C57  1  0.05553069  0.26726732  0.43962643  1  -0.068657  -0.02429  0.003508  3.968657  0.002
C  C58  1  0.55747696  0.25463544  0.35303137  1  -0.061891  -0.012724  0.00479  3.945814  0.003
C  C59  1  0.05747571  0.74537399  0.64696996  1  -0.061869  -0.012731  0.004791  3.945889  0.003
C  C60  1  0.64458320  0.49609604  0.15557004  1  -0.083641  -0.093685  -0.000192  3.953529  -0.001
C  C61  1  0.14458577  0.50389052  0.84441742  1  -0.083642  -0.093682  -0.000192  3.952933  -0.001
C  C62  1  0.32883519  0.40931628  0.10248723  1  -0.083394  -0.092735  0.000195  3.965656  0.0
C  C63  1  0.82883792  0.59066871  0.89750752  1  -0.083506  -0.092836  0.000195  3.965589  0.0
C  C64  1  0.44181448  0.50824596  0.15740519  1  -0.020303  -0.040833  -0.005621  3.971793  -0.006
C  C65  1  0.94181159  0.49175526  0.84259905  1  -0.020338  -0.040869  -0.005619  3.972118  -0.006
C  C66  1  0.35072617  0.62600848  0.21824510  1  0.199926  0.55796  0.001051  4.22293  0.003
C  C67  1  0.85072668  0.37399247  0.78175834  1  0.199869  0.55781  0.001052  4.222511  0.003
N  N68  1  0.59194563  0.98036425  0.67076889  1  -0.33225  -0.250647  -0.056525  3.560967  -0.075
N  N69  1  0.09194910  0.01963883  0.32923142  1  -0.332272  -0.250651  -0.05652  3.561208  -0.074
N  N70  1  0.57503815  0.21642483  0.57839447  1  -0.339268  -0.268703  -0.057917  3.610059  -0.077
N  N71  1  0.07503060  0.78357433  0.42160491  1  -0.339356  -0.268892  -0.057924  3.610143  -0.077
O  O72  1  0.64593877  0.09500729  0.88037198  1  -0.387559  -0.748615  -0.04727  2.41572  -0.067
O  O73  1  0.14594539  0.90499032  0.11962485  1  -0.387517  -0.748605  -0.047257  2.416043  -0.067
O  O74  1  0.27007236  0.14295406  0.75682322  1  -0.610325  -0.818928  0.00017  2.045576  -0.001
O  O75  1  0.77007404  0.85705267  0.24317549  1  -0.610302  -0.818992  0.00017  2.04559  -0.001
O  O76  1  0.66473837  0.35936183  0.79052477  1  -0.326508  -0.545917  -0.063935  2.289719  -0.091
O  O77  1  0.16474053  0.64063660  0.20947456  1  -0.326514  -0.545965  -0.063946  2.289746  -0.091
O  O78  1  0.94794115  0.16661841  0.99469603  1  -0.383005  -0.667312  0.00012  2.265127  0.0
O  O79  1  0.44793739  0.83337676  0.00530062  1  -0.383  -0.667305  0.00012  2.265142  0.0
O  O80  1  0.67994123  0.01344181  0.07194988  1  -0.365157  -0.734152  -0.010046  2.206802  -0.014
O  O81  1  0.17993300  0.98655441  0.92805432  1  -0.365177  -0.734155  -0.010045  2.206895  -0.014
O  O82  1  0.45602443  0.70459586  0.27618430  1  -0.32253  -0.589078  -0.000108  2.260604  -0.002
O  O83  1  0.95602916  0.29539414  0.72381467  1  -0.322472  -0.589001  -0.000109  2.260203  -0.002
