# generated using pymatgen
data_BiH10C30S3N2F15
_symmetry_space_group_name_H-M   'P 1'
_cell_length_a   8.86857883
_cell_length_b   12.75568878
_cell_length_c   18.53000000
_cell_angle_alpha   75.94632360
_cell_angle_beta   81.87373790
_cell_angle_gamma   72.19366517
_symmetry_Int_Tables_number   1
_chemical_formula_structural   BiH10C30S3N2F15
_chemical_formula_sum   'Bi2 H20 C60 S6 N4 F30'
_cell_volume   1930.93352816
_cell_formula_units_Z   2
loop_
 _symmetry_equiv_pos_site_id
 _symmetry_equiv_pos_as_xyz
  1  'x, y, z'
loop_
 _atom_site_type_symbol
 _atom_site_label
 _atom_site_symmetry_multiplicity
 _atom_site_fract_x
 _atom_site_fract_y
 _atom_site_fract_z
 _atom_site_occupancy
 _atom_site_hle17_bader_spin_density
 _atom_site_hle17_ddec_charge
 _atom_site_hle17_ddec_spin_density
 _atom_site_hle17_ddec_sum_bond_order
 _atom_site_hle17_magmom
 _atom_site_hse06_10hf_bader_spin_density
 _atom_site_hse06_10hf_ddec_charge
 _atom_site_hse06_10hf_ddec_spin_density
 _atom_site_hse06_10hf_ddec_sum_bond_order
 _atom_site_hse06_10hf_magmom
 _atom_site_hse06_bader_spin_density
 _atom_site_hse06_ddec_charge
 _atom_site_hse06_ddec_spin_density
 _atom_site_hse06_ddec_sum_bond_order
 _atom_site_hse06_magmom
 _atom_site_pbe_bader_charge
 _atom_site_pbe_bader_spin_density
 _atom_site_pbe_cm5_charge
 _atom_site_pbe_ddec_charge
 _atom_site_pbe_ddec_spin_density
 _atom_site_pbe_ddec_sum_bond_order
 _atom_site_pbe_magmom
Bi  Bi0  1  0.27362834  0.05057553  0.24497508  1  0  0.975259  0  2.324145  0  0  0.785626  0  2.804793  0  0  0.828618  0  2.786607  0  1.31895  0  0.573682  0.754927  0  2.818012  0
Bi  Bi1  1  0.72637830  0.94944899  0.75501217  1  0  0.975246  0  2.323924  0  0  0.785619  0  2.804549  0  0  0.828629  0  2.786345  0  1.318534  0  0.573687  0.754915  0  2.817772  0
H  H2  1  0.52166957  0.91083132  0.11730487  1  0  0.064968  0  1.013744  0  0  0.063922  0  1.096871  0  0  0.06728  0  1.092954  0  0.148796  0  0.094151  0.061484  0  1.099667  0
H  H3  1  0.47831056  0.08916539  0.88268936  1  0  0.064876  0  1.013897  0  0  0.06385  0  1.096991  0  0  0.067208  0  1.093073  0  0.148888  0  0.094066  0.061411  0  1.099787  0
H  H4  1  0.75590658  0.91299238  0.02763150  1  0  0.110352  0  0.970721  0  0  0.116487  0  1.038312  0  0  0.120139  0  1.036289  0  0.103286  0  0.10286  0.113862  0  1.039919  0
H  H5  1  0.24407945  0.08700096  0.97236451  1  0  0.110304  0  0.970805  0  0  0.116417  0  1.038402  0  0  0.120068  0  1.036385  0  0.103389  0  0.102849  0.113794  0  1.04001  0
H  H6  1  0.86843121  0.13122812  0.14568609  1  0  0.113868  0  0.950203  0  0  0.123261  0  1.014156  0  0  0.126057  0  1.013834  0  0.077681  0  0.101642  0.121237  0  1.014576  0
H  H7  1  0.13157560  0.86875596  0.85431222  1  0  0.113852  0  0.950274  0  0  0.123309  0  1.014173  0  0  0.126106  0  1.013848  0  0.077538  0  0.101674  0.121285  0  1.014593  0
H  H8  1  0.62865768  0.11976397  0.23046722  1  0  0.069107  0  0.929252  0  0  0.077653  0  0.992956  0  0  0.079934  0  0.991349  0  0.103934  0  0.108883  0.075991  0  0.994168  0
H  H9  1  0.37133840  0.88023275  0.76952917  1  0  0.069068  0  0.929269  0  0  0.077602  0  0.992968  0  0  0.079883  0  0.991361  0  0.103945  0  0.108875  0.075939  0  0.994178  0
H  H10  1  0.03062259  0.09170390  0.03261741  1  0  0.093931  0  0.966218  0  0  0.103741  0  1.032302  0  0  0.106486  0  1.030844  0  0.072114  0  0.097324  0.101715  0  1.03349  0
H  H11  1  0.96938375  0.90827849  0.96737852  1  0  0.093854  0  0.966335  0  0  0.103676  0  1.032407  0  0  0.106419  0  1.030949  0  0.071663  0  0.097291  0.10165  0  1.033595  0
H  H12  1  0.62373454  0.84407776  0.30774561  1  0  0.082626  0  0.929987  0  0  0.089254  0  0.995042  0  0  0.092156  0  0.992119  0  0.12128  0  0.114242  0.087028  0  0.997281  0
H  H13  1  0.37626581  0.15592822  0.69226351  1  0  0.082613  0  0.930154  0  0  0.089277  0  0.995161  0  0  0.092177  0  0.992245  0  0.121224  0  0.114302  0.08712  0  0.997329  0
H  H14  1  0.72412518  0.65618271  0.39083134  1  0  0.118306  0  0.973244  0  0  0.122066  0  1.042639  0  0  0.125619  0  1.040793  0  0.139272  0  0.102235  0.11949  0  1.044144  0
H  H15  1  0.27587082  0.34381991  0.60917810  1  0  0.11822  0  0.973347  0  0  0.122028  0  1.042671  0  0  0.125575  0  1.040863  0  0.139311  0  0.102231  0.119449  0  1.044172  0
H  H16  1  0.23859492  0.67698533  0.47563619  1  0  0.0946  0  0.988001  0  0  0.101989  0  1.055223  0  0  0.10368  0  1.056635  0  0.066469  0  0.09681  0.100768  0  1.054377  0
H  H17  1  0.76138848  0.32302319  0.52436232  1  0  0.094558  0  0.988091  0  0  0.101952  0  1.055285  0  0  0.103645  0  1.056698  0  0.066515  0  0.096797  0.100723  0  1.05446  0
H  H18  1  0.15843134  0.86464195  0.39025805  1  0  0.063617  0  0.994379  0  0  0.065427  0  1.073167  0  0  0.068032  0  1.071  0  0.11731  0  0.094484  0.063474  0  1.074789  0
H  H19  1  0.84155856  0.13536741  0.60973772  1  0  0.063546  0  0.994401  0  0  0.0653  0  1.073267  0  0  0.067928  0  1.071085  0  0.117489  0  0.094463  0.063356  0  1.074874  0
H  H20  1  0.67473402  0.50271716  0.48763885  1  0  0.097435  0  0.947966  0  0  0.107211  0  1.01115  0  0  0.110405  0  1.008982  0  0.094902  0  0.102355  0.104901  0  1.012749  0
H  H21  1  0.32523813  0.49727955  0.51236401  1  0  0.097518  0  0.947936  0  0  0.107284  0  1.011142  0  0  0.11046  0  1.008994  0  0.09452  0  0.102385  0.104973  0  1.012743  0
C  C22  1  0.32068954  0.26803118  0.09930859  1  0  -0.087726  0  3.886988  0  0  -0.094933  0  4.172775  0  0  -0.094957  0  4.194416  0  0.003747  0  -0.039485  -0.095125  0  4.158312  0
C  C23  1  0.67929976  0.73197397  0.90068954  1  0  -0.087645  0  3.88691  0  0  -0.094898  0  4.172687  0  0  -0.094923  0  4.19433  0  0.00321  0  -0.039503  -0.095085  0  4.15823  0
C  C24  1  0.42785663  0.25139397  0.03672126  1  0  0.188838  0  3.787839  0  0  0.15841  0  4.088715  0  0  0.167411  0  4.098227  0  0.569061  0  0.084519  0.152004  0  4.082713  0
C  C25  1  0.57215801  0.74860191  0.96327995  1  0  0.188768  0  3.787932  0  0  0.158475  0  4.088676  0  0  0.167476  0  4.098186  0  0.568428  0  0.08458  0.152067  0  4.082678  0
C  C26  1  0.55151579  0.30112866  0.01683819  1  0  0.1017  0  3.842472  0  0  0.06551  0  4.151702  0  0  0.072353  0  4.160048  0  0.571016  0  0.072908  0.060477  0  4.146591  0
C  C27  1  0.44849844  0.69887395  0.98316300  1  0  0.101868  0  3.842267  0  0  0.065595  0  4.151497  0  0  0.072436  0  4.159844  0  0.570841  0  0.072899  0.060567  0  4.146392  0
C  C28  1  0.57187259  0.37109391  0.05975318  1  0  0.129033  0  3.843165  0  0  0.097193  0  4.152099  0  0  0.104612  0  4.161506  0  0.524322  0  0.081055  0.091959  0  4.146153  0
C  C29  1  0.42812186  0.62891545  0.94025038  1  0  0.128956  0  3.84291  0  0  0.097153  0  4.151868  0  0  0.104572  0  4.161275  0  0.524333  0  0.081044  0.091904  0  4.145943  0
C  C30  1  0.46695824  0.39078777  0.12182125  1  0  0.107911  0  3.830331  0  0  0.0732  0  4.134499  0  0  0.080181  0  4.142586  0  0.660516  0  0.075128  0.06807  0  4.129584  0
C  C31  1  0.53303636  0.60920979  0.87818265  1  0  0.108002  0  3.830029  0  0  0.073238  0  4.13427  0  0  0.080218  0  4.142361  0  0.660734  0  0.075246  0.068117  0  4.129361  0
C  C32  1  0.34460084  0.33953823  0.14092236  1  0  0.172948  0  3.805095  0  0  0.146386  0  4.103677  0  0  0.154233  0  4.114062  0  0.502832  0  0.077944  0.140735  0  4.09708  0
C  C33  1  0.65539945  0.66045933  0.85907846  1  0  0.172913  0  3.80485  0  0  0.146355  0  4.103473  0  0  0.154201  0  4.113858  0  0.503418  0  0.077872  0.14069  0  4.09689  0
C  C34  1  0.99728472  0.15759388  0.36514425  1  0  -0.113886  0  3.913642  0  0  -0.116292  0  4.195452  0  0  -0.117872  0  4.218552  0  -0.004111  0  -0.045257  -0.11536  0  4.180017  0
C  C35  1  0.00271129  0.84240873  0.63485817  1  0  -0.113784  0  3.913439  0  0  -0.116216  0  4.195299  0  0  -0.117801  0  4.218403  0  -0.004551  0  -0.045252  -0.115284  0  4.179866  0
C  C36  1  0.92114139  0.27297844  0.34073324  1  0  0.19298  0  3.805452  0  0  0.164445  0  4.102132  0  0  0.173529  0  4.111738  0  0.56427  0  0.085442  0.157942  0  4.096103  0
C  C37  1  0.07885481  0.72702080  0.65926757  1  0  0.192869  0  3.805452  0  0  0.164347  0  4.102165  0  0  0.173433  0  4.111769  0  0.564714  0  0.085456  0.157843  0  4.096136  0
C  C38  1  0.92887950  0.35402617  0.37758786  1  0  0.105588  0  3.830091  0  0  0.067354  0  4.140947  0  0  0.074287  0  4.148735  0  0.635858  0  0.074495  0.062185  0  4.13644  0
C  C39  1  0.07111000  0.64597560  0.62241190  1  0  0.105676  0  3.830049  0  0  0.067385  0  4.140964  0  0  0.074314  0  4.148749  0  0.635549  0  0.074501  0.062216  0  4.136458  0
C  C40  1  0.01480278  0.32173413  0.44084835  1  0  0.121303  0  3.845971  0  0  0.087027  0  4.159069  0  0  0.09509  0  4.166865  0  0.480632  0  0.076762  0.081226  0  4.154558  0
C  C41  1  0.98518920  0.67826427  0.55915128  1  0  0.121299  0  3.846017  0  0  0.087057  0  4.159104  0  0  0.095125  0  4.166893  0  0.480489  0  0.076779  0.081253  0  4.154597  0
C  C42  1  0.09122093  0.20811549  0.46707401  1  0  0.1062  0  3.834813  0  0  0.071446  0  4.139725  0  0  0.077969  0  4.147981  0  0.571902  0  0.07343  0.066602  0  4.134773  0
C  C43  1  0.90877721  0.79188460  0.53292491  1  0  0.106221  0  3.834877  0  0  0.071444  0  4.139793  0  0  0.077968  0  4.148047  0  0.571926  0  0.073471  0.0666  0  4.134842  0
C  C44  1  0.08144037  0.12832901  0.42949051  1  0  0.171014  0  3.817695  0  0  0.143276  0  4.116917  0  0  0.15173  0  4.127582  0  0.543343  0  0.079503  0.137233  0  4.110159  0
C  C45  1  0.91856482  0.87166771  0.57050958  1  0  0.170952  0  3.817609  0  0  0.14323  0  4.116837  0  0  0.151684  0  4.127501  0  0.543487  0  0.079468  0.137188  0  4.110077  0
C  C46  1  0.23618774  0.79323937  0.22192404  1  0  -0.102344  0  3.86288  0  0  -0.114374  0  4.153132  0  0  -0.115792  0  4.174359  0  0.037722  0  -0.03916  -0.113649  0  4.139153  0
C  C47  1  0.76383211  0.20676915  0.77808820  1  0  -0.101804  0  3.862551  0  0  -0.113889  0  4.152798  0  0  -0.115303  0  4.174027  0  0.039065  0  -0.038949  -0.113164  0  4.138821  0
C  C48  1  0.09839084  0.76794528  0.25914490  1  0  0.195589  0  3.798875  0  0  0.166417  0  4.097442  0  0  0.175762  0  4.106878  0  0.571833  0  0.089241  0.159795  0  4.091533  0
C  C49  1  0.90162970  0.23204722  0.74085378  1  0  0.195438  0  3.799343  0  0  0.166279  0  4.097943  0  0  0.175623  0  4.107378  0  0.57215  0  0.089198  0.159661  0  4.092033  0
C  C50  1  0.10308967  0.66336096  0.30528341  1  0  0.106215  0  3.831443  0  0  0.07021  0  4.137222  0  0  0.076166  0  4.145394  0  0.556625  0  0.077419  0.065743  0  4.132266  0
C  C51  1  0.89693389  0.33662396  0.69470608  1  0  0.106064  0  3.831819  0  0  0.070117  0  4.137621  0  0  0.076076  0  4.145792  0  0.555764  0  0.077482  0.065648  0  4.132662  0
C  C52  1  0.24741018  0.57987667  0.31507983  1  0  0.135056  0  3.829785  0  0  0.102513  0  4.136695  0  0  0.110964  0  4.144936  0  0.566003  0  0.084372  0.096561  0  4.131433  0
C  C53  1  0.75261551  0.42012004  0.68491456  1  0  0.135148  0  3.829206  0  0  0.102427  0  4.13632  0  0  0.110876  0  4.144563  0  0.56618  0  0.084393  0.096479  0  4.131053  0
C  C54  1  0.38687142  0.60185966  0.27879149  1  0  0.110244  0  3.843917  0  0  0.071397  0  4.156879  0  0  0.077506  0  4.166488  0  0.586814  0  0.078802  0.066833  0  4.150961  0
C  C55  1  0.61315192  0.39814296  0.72121070  1  0  0.110369  0  3.843708  0  0  0.071669  0  4.156576  0  0  0.07778  0  4.166183  0  0.587936  0  0.078844  0.067108  0  4.150661  0
C  C56  1  0.37941087  0.70688040  0.23233945  1  0  0.195269  0  3.793418  0  0  0.163133  0  4.099506  0  0  0.17282  0  4.109036  0  0.556078  0  0.089268  0.156214  0  4.093616  0
C  C57  1  0.62060650  0.29313148  0.76766969  1  0  0.194825  0  3.793547  0  0  0.162687  0  4.099648  0  0  0.172374  0  4.109172  0  0.555204  0  0.089188  0.155757  0  4.093774  0
C  C58  1  0.60277823  0.95769388  0.12175901  1  0  0.130391  0  3.729993  0  0  0.094771  0  3.988014  0  0  0.102593  0  4.005433  0  0.463317  0  0.036751  0.089658  0  3.976147  0
C  C59  1  0.39721007  0.04229947  0.87823415  1  0  0.130426  0  3.730203  0  0  0.094818  0  3.988238  0  0  0.102638  0  4.005667  0  0.463897  0  0.036878  0.089706  0  3.976367  0
C  C60  1  0.73422149  0.95954068  0.07190850  1  0  -0.143528  0  3.660203  0  0  -0.159933  0  3.901199  0  0  -0.167558  0  3.921231  0  -0.018551  0  -0.082285  -0.155063  0  3.887828  0
C  C61  1  0.26577338  0.04044762  0.92808884  1  0  -0.14351  0  3.660475  0  0  -0.159955  0  3.901452  0  0  -0.167568  0  3.921455  0  -0.018697  0  -0.082353  -0.155087  0  3.888076  0
C  C62  1  0.83412772  0.02333102  0.07812387  1  0  0.142351  0  3.785157  0  0  0.155462  0  4.018555  0  0  0.161465  0  4.040308  0  -0.042255  0  0.007195  0.151612  0  4.003741  0
C  C63  1  0.16586783  0.97665559  0.92187803  1  0  0.142407  0  3.785395  0  0  0.155693  0  4.018554  0  0  0.161704  0  4.0403  0  -0.043934  0  0.007278  0.151844  0  4.003742  0
C  C64  1  0.79461624  0.08169394  0.13679654  1  0  -0.158668  0  3.693594  0  0  -0.17873  0  3.947892  0  0  -0.187448  0  3.9706  0  0.036321  0  -0.0827  -0.173129  0  3.932699  0
C  C65  1  0.20538319  0.91829435  0.86320427  1  0  -0.158833  0  3.693821  0  0  -0.179029  0  3.948062  0  0  -0.187749  0  3.970765  0  0.037786  0  -0.082841  -0.17342  0  3.932854  0
C  C66  1  0.66076878  0.07502372  0.18465970  1  0  0.114328  0  3.762059  0  0  0.082361  0  4.02183  0  0  0.088707  0  4.043079  0  0.413677  0  0.037656  0.078341  0  4.007159  0
C  C67  1  0.33922610  0.92496457  0.81533925  1  0  0.114485  0  3.761984  0  0  0.082592  0  4.021735  0  0  0.088939  0  4.04298  0  0.414249  0  0.037712  0.07857  0  4.007071  0
C  C68  1  0.97183182  0.03091621  0.02647987  1  0  -0.089489  0  3.703066  0  0  -0.110919  0  3.954013  0  0  -0.114178  0  3.974509  0  -0.064425  0  -0.081214  -0.108588  0  3.939888  0
C  C69  1  0.02816393  0.96906703  0.97352365  1  0  -0.089508  0  3.703194  0  0  -0.111015  0  3.954114  0  0  -0.11427  0  3.974604  0  0.036611  0  -0.081211  -0.108687  0  3.939993  0
C  C70  1  0.54211318  0.80431680  0.34620004  1  0  0.137947  0  3.709068  0  0  0.104629  0  3.966641  0  0  0.113161  0  3.983045  0  0.453545  0  0.046246  0.099202  0  3.955294  0
C  C71  1  0.45788603  0.19568919  0.65380862  1  0  0.137832  0  3.709239  0  0  0.104506  0  3.966873  0  0  0.113038  0  3.983275  0  0.453364  0  0.046168  0.099021  0  3.955511  0
C  C72  1  0.59774758  0.69919495  0.39253506  1  0  -0.149503  0  3.660649  0  0  -0.17269  0  3.914114  0  0  -0.180483  0  3.93387  0  -0.039646  0  -0.079666  -0.167684  0  3.900836  0
C  C73  1  0.40224594  0.30081103  0.60747398  1  0  -0.149262  0  3.660574  0  0  -0.172492  0  3.914039  0  0  -0.180295  0  3.933796  0  -0.039478  0  -0.079612  -0.167486  0  3.900777  0
C  C74  1  0.48966786  0.64743905  0.43915747  1  0  0.144958  0  3.790574  0  0  0.159114  0  4.02213  0  0  0.164628  0  4.044848  0  -0.030394  0  0.008524  0.155626  0  4.006552  0
C  C75  1  0.51031702  0.35256862  0.56084324  1  0  0.144821  0  3.790651  0  0  0.159007  0  4.02221  0  0  0.164524  0  4.044919  0  -0.030579  0  0.008435  0.15552  0  4.006624  0
C  C76  1  0.32856546  0.70962448  0.43903405  1  0  -0.169094  0  3.712257  0  0  -0.181403  0  3.950914  0  0  -0.191412  0  3.976999  0  -0.002585  0  -0.088586  -0.174827  0  3.933296  0
C  C77  1  0.67142330  0.29038487  0.56096395  1  0  -0.168839  0  3.712303  0  0  -0.181141  0  3.950904  0  0  -0.191152  0  3.976995  0  -0.003198  0  -0.088396  -0.174573  0  3.933289  0
C  C78  1  0.28266760  0.81443123  0.39184799  1  0  0.112842  0  3.770445  0  0  0.084305  0  4.019052  0  0  0.089889  0  4.041444  0  0.486844  0  0.033253  0.080816  0  4.003658  0
C  C79  1  0.71732652  0.18557897  0.60815167  1  0  0.112831  0  3.770426  0  0  0.084341  0  4.01906  0  0  0.089902  0  4.041442  0  0.486929  0  0.033211  0.08085  0  4.003662  0
C  C80  1  0.54638735  0.53367887  0.48338330  1  0  -0.087296  0  3.694393  0  0  -0.110002  0  3.947596  0  0  -0.112602  0  3.966821  0  -0.103771  0  -0.077575  -0.108048  0  3.934223  0
C  C81  1  0.45358888  0.46633049  0.51661664  1  0  -0.087521  0  3.694505  0  0  -0.110277  0  3.947758  0  0  -0.112864  0  3.966991  0  0.009835  0  -0.077697  -0.10832  0  3.934378  0
S  S82  1  0.16452850  0.20577245  0.12198971  1  0  -0.324215  0  2.021188  0  0  -0.314689  0  2.349568  0  0  -0.325479  0  2.344486  0  -0.290196  0  -0.177431  -0.306564  0  2.353079  0
S  S83  1  0.83546952  0.79422511  0.87800263  1  0  -0.324327  0  2.021057  0  0  -0.314805  0  2.349442  0  0  -0.325597  0  2.344358  0  -0.2901  0  -0.177498  -0.306675  0  2.35295  0
S  S84  1  0.98489701  0.05860473  0.31669340  1  0  -0.313967  0  2.04784  0  0  -0.306923  0  2.376717  0  0  -0.316569  0  2.372322  0  -0.269453  0  -0.170433  -0.299814  0  2.37981  0
S  S85  1  0.01510542  0.94140463  0.68330476  1  0  -0.313912  0  2.047745  0  0  -0.306849  0  2.37662  0  0  -0.316506  0  2.372258  0  -0.268965  0  -0.170392  -0.299744  0  2.379715  0
S  S86  1  0.22762535  0.92558550  0.16390975  1  0  -0.228363  0  2.177225  0  0  -0.202332  0  2.528268  0  0  -0.210909  0  2.526789  0  -0.211172  0  -0.100898  -0.19609  0  2.529566  0
S  S87  1  0.77237869  0.07442554  0.83610961  1  0  -0.228568  0  2.176871  0  0  -0.202488  0  2.527806  0  0  -0.21108  0  2.52635  0  -0.211774  0  -0.100937  -0.196241  0  2.529101  0
N  N88  1  0.56488884  0.01481484  0.17727505  1  0  -0.349163  0  3.245349  0  0  -0.269512  0  3.496057  0  0  -0.29033  0  3.52053  0  -1.246259  0  -0.316835  -0.255146  0  3.478941  0
N  N89  1  0.43510074  0.98518103  0.82271653  1  0  -0.349121  0  3.24532  0  0  -0.269562  0  3.496085  0  0  -0.290381  0  3.520556  0  -1.247048  0  -0.316827  -0.255199  0  3.478979  0
N  N90  1  0.38685717  0.86095087  0.34501273  1  0  -0.339914  0  3.244987  0  0  -0.257773  0  3.487569  0  0  -0.278308  0  3.511469  0  -1.240861  0  -0.308112  -0.243583  0  3.470721  0
N  N91  1  0.61314096  0.13906354  0.65499189  1  0  -0.33982  0  3.245129  0  0  -0.257725  0  3.487746  0  0  -0.278258  0  3.51165  0  -1.240146  0  -0.3081  -0.24354  0  3.470929  0
F  F92  1  0.41391372  0.18378693  0.99354426  1  0  -0.146727  0  1.265121  0  0  -0.099551  0  1.440255  0  0  -0.10851  0  1.430928  0  -0.635789  0  -0.075605  -0.093037  0  1.446651  0
F  F93  1  0.58610198  0.81621484  0.00645374  1  0  -0.146737  0  1.26518  0  0  -0.099593  0  1.440275  0  0  -0.108551  0  1.430947  0  -0.635693  0  -0.075591  -0.09308  0  1.446674  0
F  F94  1  0.65302595  0.28128820  0.95681770  1  0  -0.135379  0  1.225572  0  0  -0.092325  0  1.385527  0  0  -0.099573  0  1.3762  0  -0.617243  0  -0.087096  -0.087046  0  1.392037  0
F  F95  1  0.34698070  0.71872200  0.04318273  1  0  -0.135475  0  1.225365  0  0  -0.092406  0  1.385332  0  0  -0.099654  0  1.376006  0  -0.616685  0  -0.087165  -0.087128  0  1.391841  0
F  F96  1  0.69124255  0.41967857  0.04123057  1  0  -0.141174  0  1.213723  0  0  -0.098417  0  1.368732  0  0  -0.106311  0  1.360061  0  -0.607211  0  -0.086201  -0.092656  0  1.374742  0
F  F97  1  0.30875312  0.58032489  0.95877929  1  0  -0.141166  0  1.213575  0  0  -0.098406  0  1.368579  0  0  -0.106299  0  1.359907  0  -0.607233  0  -0.086207  -0.09264  0  1.374596  0
F  F98  1  0.48508213  0.45971925  0.16284317  1  0  -0.136829  0  1.251258  0  0  -0.096246  0  1.416054  0  0  -0.103234  0  1.404889  0  -0.617383  0  -0.088262  -0.091172  0  1.423892  0
F  F99  1  0.51490496  0.54028000  0.83716042  1  0  -0.136853  0  1.251167  0  0  -0.096253  0  1.415977  0  0  -0.10324  0  1.404813  0  -0.617517  0  -0.0883  -0.09118  0  1.423812  0
F  F100  1  0.24710630  0.36038634  0.20234192  1  0  -0.169009  0  1.214138  0  0  -0.125485  0  1.372617  0  0  -0.133434  0  1.363057  0  -0.627494  0  -0.099394  -0.119746  0  1.379374  0
F  F101  1  0.75288214  0.63960953  0.79765459  1  0  -0.169017  0  1.214149  0  0  -0.125485  0  1.372627  0  0  -0.133433  0  1.363066  0  -0.627526  0  -0.099382  -0.119742  0  1.379388  0
F  F102  1  0.83666852  0.30827659  0.28001234  1  0  -0.145043  0  1.22958  0  0  -0.103185  0  1.388685  0  0  -0.110561  0  1.378255  0  -0.6137  0  -0.088192  -0.097815  0  1.395935  0
F  F103  1  0.16333473  0.69171929  0.71998749  1  0  -0.145011  0  1.229526  0  0  -0.103148  0  1.388632  0  0  -0.110522  0  1.378202  0  -0.613677  0  -0.088167  -0.097777  0  1.395882  0
F  F104  1  0.85236562  0.46362263  0.35290178  1  0  -0.13185  0  1.2648  0  0  -0.092504  0  1.438072  0  0  -0.099793  0  1.42724  0  -0.617248  0  -0.079761  -0.087177  0  1.44565  0
F  F105  1  0.14761203  0.53637745  0.64710176  1  0  -0.13189  0  1.264701  0  0  -0.092527  0  1.437986  0  0  -0.099814  0  1.427155  0  -0.617159  0  -0.079814  -0.087201  0  1.445564  0
F  F106  1  0.02017141  0.39951795  0.47784492  1  0  -0.144736  0  1.256717  0  0  -0.102229  0  1.4246  0  0  -0.109143  0  1.413117  0  -0.613848  0  -0.08591  -0.097151  0  1.432571  0
F  F107  1  0.97983256  0.60048467  0.52214941  1  0  -0.144735  0  1.256731  0  0  -0.102201  0  1.42458  0  0  -0.109117  0  1.413095  0  -0.613885  0  -0.085899  -0.097123  0  1.43255  0
F  F108  1  0.17231391  0.17664069  0.52899591  1  0  -0.139112  0  1.217474  0  0  -0.097555  0  1.374484  0  0  -0.104189  0  1.36466  0  -0.610786  0  -0.090064  -0.092712  0  1.38135  0
F  F109  1  0.82767754  0.82336192  0.47100412  1  0  -0.139098  0  1.217487  0  0  -0.097541  0  1.3745  0  0  -0.104178  0  1.364677  0  -0.61084  0  -0.090045  -0.092698  0  1.381366  0
F  F110  1  0.15714071  0.01917066  0.45729654  1  0  -0.152605  0  1.251292  0  0  -0.106616  0  1.418124  0  0  -0.114856  0  1.408916  0  -0.625402  0  -0.087211  -0.10058  0  1.424449  0
F  F111  1  0.84285811  0.98082774  0.54270585  1  0  -0.152593  0  1.251312  0  0  -0.106602  0  1.418139  0  0  -0.114842  0  1.408934  0  -0.625318  0  -0.087214  -0.100566  0  1.424464  0
F  F112  1  0.95563948  0.84621354  0.25219583  1  0  -0.154027  0  1.250865  0  0  -0.098396  0  1.409535  0  0  -0.107453  0  1.401098  0  -0.624379  0  -0.081559  -0.091825  0  1.415346  0
F  F113  1  0.04437282  0.15377391  0.74780803  1  0  -0.154035  0  1.250871  0  0  -0.098402  0  1.409552  0  0  -0.107459  0  1.401116  0  -0.624653  0  -0.081611  -0.091832  0  1.415365  0
F  F114  1  0.96901963  0.64310430  0.34215060  1  0  -0.13515  0  1.284228  0  0  -0.095571  0  1.459688  0  0  -0.102562  0  1.448046  0  -0.615995  0  -0.077677  -0.090457  0  1.467801  0
F  F115  1  0.03099496  0.35686883  0.65782041  1  0  -0.135032  0  1.284757  0  0  -0.09546  0  1.460221  0  0  -0.102449  0  1.448584  0  -0.615765  0  -0.077643  -0.090343  0  1.468332  0
F  F116  1  0.25254926  0.47889580  0.36044427  1  0  -0.140898  0  1.234335  0  0  -0.092929  0  1.389543  0  0  -0.100913  0  1.379826  0  -0.612847  0  -0.081382  -0.087094  0  1.396445  0
F  F117  1  0.74747027  0.52109923  0.63954433  1  0  -0.140924  0  1.234191  0  0  -0.092941  0  1.389485  0  0  -0.100924  0  1.379771  0  -0.613088  0  -0.081455  -0.087105  0  1.396386  0
F  F118  1  0.52676363  0.52248012  0.29019218  1  0  -0.132069  0  1.258347  0  0  -0.093496  0  1.426119  0  0  -0.100562  0  1.415691  0  -0.605969  0  -0.08287  -0.088387  0  1.433492  0
F  F119  1  0.47326098  0.47752503  0.70980843  1  0  -0.132191  0  1.258276  0  0  -0.093642  0  1.425998  0  0  -0.100709  0  1.415569  0  -0.606622  0  -0.082989  -0.088534  0  1.433372  0
F  F120  1  0.51695326  0.72503162  0.19838162  1  0  -0.144887  0  1.235093  0  0  -0.100058  0  1.400617  0  0  -0.108339  0  1.390826  0  -0.618294  0  -0.077727  -0.094054  0  1.407424  0
F  F121  1  0.48306598  0.27498701  0.80163274  1  0  -0.144737  0  1.235247  0  0  -0.099912  0  1.400771  0  0  -0.108192  0  1.390982  0  -0.617985  0  -0.077713  -0.093903  0  1.407579  0
