# generated using pymatgen
data_GdH5C9O7
_symmetry_space_group_name_H-M   'P 1'
_cell_length_a   7.10647797
_cell_length_b   7.41857934
_cell_length_c   18.35552440
_cell_angle_alpha   97.20719407
_cell_angle_beta   89.99998289
_cell_angle_gamma   89.99986951
_symmetry_Int_Tables_number   1
_chemical_formula_structural   GdH5C9O7
_chemical_formula_sum   'Gd4 H20 C36 O28'
_cell_volume   960.05684773
_cell_formula_units_Z   4
loop_
 _symmetry_equiv_pos_site_id
 _symmetry_equiv_pos_as_xyz
  1  'x, y, z'
loop_
 _atom_site_type_symbol
 _atom_site_label
 _atom_site_symmetry_multiplicity
 _atom_site_fract_x
 _atom_site_fract_y
 _atom_site_fract_z
 _atom_site_occupancy
 _atom_site_hle17_bader_spin_density
 _atom_site_hle17_ddec_charge
 _atom_site_hle17_ddec_spin_density
 _atom_site_hle17_ddec_sum_bond_order
 _atom_site_hle17_magmom
 _atom_site_hse06_10hf_bader_spin_density
 _atom_site_hse06_10hf_ddec_charge
 _atom_site_hse06_10hf_ddec_spin_density
 _atom_site_hse06_10hf_ddec_sum_bond_order
 _atom_site_hse06_10hf_magmom
 _atom_site_hse06_bader_spin_density
 _atom_site_hse06_ddec_charge
 _atom_site_hse06_ddec_spin_density
 _atom_site_hse06_ddec_sum_bond_order
 _atom_site_hse06_magmom
 _atom_site_pbe_bader_spin_density
 _atom_site_pbe_cm5_charge
 _atom_site_pbe_ddec_charge
 _atom_site_pbe_ddec_spin_density
 _atom_site_pbe_ddec_sum_bond_order
 _atom_site_pbe_magmom
Gd  Gd0  1  0.02240809  0.63271426  0.74350548  1  0  2.206129  0  1.76574  0  0  2.114395  0  2.11639  0  0  2.171557  0  2.057665  0  0  1.49325  2.070391  0  2.162681  0
Gd  Gd1  1  0.52240654  0.86728614  0.75649439  1  0  2.206165  0  1.765679  0  0  2.114398  0  2.116371  0  0  2.17156  0  2.057652  0  0  1.493252  2.070397  0  2.162656  0
Gd  Gd2  1  0.97759343  0.36728529  0.25649473  1  0  2.206016  0  1.765863  0  0  2.114359  0  2.116407  0  0  2.1715  0  2.057722  0  0  1.493217  2.070354  0  2.162693  0
Gd  Gd3  1  0.47759357  0.13271477  0.24350588  1  0  2.206103  0  1.765769  0  0  2.1144  0  2.116359  0  0  2.171555  0  2.057651  0  0  1.493246  2.070395  0  2.162644  0
H  H4  1  0.69061975  0.45323894  0.78435902  1  0  0.44991  0  0.839767  0  0  0.421934  0  0.898461  0  0  0.432378  0  0.883258  0  0  0.311758  0.414487  0  0.909283  0
H  H5  1  0.19061871  0.04676172  0.71564120  1  0  0.449905  0  0.83976  0  0  0.421939  0  0.898458  0  0  0.432384  0  0.883251  0  0  0.311747  0.414491  0  0.909282  0
H  H6  1  0.30938178  0.54676062  0.21564064  1  0  0.449905  0  0.839751  0  0  0.421938  0  0.898458  0  0  0.432384  0  0.883251  0  0  0.311752  0.414494  0  0.909274  0
H  H7  1  0.80938141  0.95323919  0.28435907  1  0  0.449872  0  0.839819  0  0  0.421907  0  0.898501  0  0  0.432351  0  0.883298  0  0  0.311737  0.414458  0  0.909327  0
H  H8  1  0.82706586  0.29501217  0.80146297  1  0  0.465406  0  0.815945  0  0  0.440364  0  0.866727  0  0  0.450708  0  0.851764  0  0  0.315391  0.433008  0  0.877369  0
H  H9  1  0.32706586  0.20498819  0.69853721  1  0  0.465415  0  0.81594  0  0  0.440368  0  0.86673  0  0  0.450713  0  0.851765  0  0  0.315381  0.433013  0  0.877372  0
H  H10  1  0.17293566  0.70498875  0.19853730  1  0  0.465425  0  0.815916  0  0  0.440384  0  0.866696  0  0  0.450728  0  0.851734  0  0  0.315398  0.433028  0  0.87734  0
H  H11  1  0.67293566  0.79501136  0.30146354  1  0  0.465424  0  0.815911  0  0  0.440383  0  0.866699  0  0  0.450727  0  0.851734  0  0  0.315375  0.433027  0  0.877341  0
H  H12  1  0.84217444  0.54252864  0.48063953  1  0  0.132565  0  0.940626  0  0  0.138754  0  1.00491  0  0  0.143351  0  1.001681  0  0  0.118501  0.135342  0  1.007463  0
H  H13  1  0.34217257  0.95747109  0.01936072  1  0  0.132598  0  0.940605  0  0  0.138785  0  1.004889  0  0  0.143381  0  1.001662  0  0  0.11852  0.135378  0  1.007436  0
H  H14  1  0.15782568  0.45747091  0.51936067  1  0  0.132572  0  0.940635  0  0  0.138759  0  1.004923  0  0  0.143357  0  1.001691  0  0  0.118501  0.135343  0  1.007481  0
H  H15  1  0.65782473  0.04252847  0.98063949  1  0  0.132566  0  0.940633  0  0  0.138758  0  1.004918  0  0  0.143374  0  1.001661  0  0  0.118502  0.135346  0  1.007467  0
H  H16  1  0.16786991  0.42037749  0.96695681  1  0  0.101887  0  0.941221  0  0  0.112448  0  0.9993  0  0  0.115868  0  0.997738  0  0  0.105499  0.109998  0  1.000467  0
H  H17  1  0.66786781  0.07962186  0.53304280  1  0  0.10189  0  0.941204  0  0  0.112452  0  0.999291  0  0  0.115868  0  0.997729  0  0  0.105503  0.110003  0  1.000457  0
H  H18  1  0.83213443  0.57962342  0.03304292  1  0  0.101856  0  0.941229  0  0  0.112447  0  0.999286  0  0  0.115863  0  0.997724  0  0  0.105513  0.11  0  1.000455  0
H  H19  1  0.33213371  0.92037769  0.46695686  1  0  0.101864  0  0.941238  0  0  0.112455  0  0.999292  0  0  0.115873  0  0.99773  0  0  0.105513  0.110006  0  1.000458  0
H  H20  1  0.71479324  0.60024320  0.90626268  1  0  0.106975  0  0.981308  0  0  0.11424  0  1.046426  0  0  0.118051  0  1.043984  0  0  0.108906  0.111416  0  1.048387  0
H  H21  1  0.21479286  0.89975949  0.59373729  1  0  0.106981  0  0.981314  0  0  0.114242  0  1.046429  0  0  0.118053  0  1.043987  0  0  0.108909  0.11142  0  1.048393  0
H  H22  1  0.28520969  0.39975772  0.09373705  1  0  0.107042  0  0.981297  0  0  0.114295  0  1.046419  0  0  0.118107  0  1.043977  0  0  0.108928  0.111467  0  1.048387  0
H  H23  1  0.78520725  0.10024278  0.40626251  1  0  0.107016  0  0.981283  0  0  0.11428  0  1.046397  0  0  0.118091  0  1.043955  0  0  0.108916  0.111456  0  1.048359  0
C  C24  1  0.62110851  0.53573740  0.56065166  1  0  -0.050043  0  3.701422  0  0  -0.039499  0  3.93853  0  0  -0.044344  0  3.957829  0  0  0.004994  -0.036472  0  3.925805  0
C  C25  1  0.12110911  0.96426278  0.93934928  1  0  -0.049914  0  3.701432  0  0  -0.039395  0  3.938557  0  0  -0.044232  0  3.957848  0  0  0.005062  -0.036369  0  3.925827  0
C  C26  1  0.37889020  0.46426215  0.43934909  1  0  -0.049865  0  3.701426  0  0  -0.039338  0  3.938538  0  0  -0.044178  0  3.957831  0  0  0.005067  -0.036311  0  3.925806  0
C  C27  1  0.87889100  0.03573677  0.06065201  1  0  -0.050017  0  3.701512  0  0  -0.039471  0  3.938617  0  0  -0.044316  0  3.957926  0  0  0.005012  -0.036441  0  3.925889  0
C  C28  1  0.42737543  0.51087740  0.57131767  1  0  -0.035706  0  3.668942  0  0  -0.021444  0  3.902782  0  0  -0.024587  0  3.920385  0  0  0.009842  -0.019568  0  3.891224  0
C  C29  1  0.92737627  0.98912210  0.92868320  1  0  -0.035716  0  3.66898  0  0  -0.021433  0  3.902793  0  0  -0.024576  0  3.920401  0  0  0.009831  -0.019556  0  3.891229  0
C  C30  1  0.57262327  0.48912216  0.42868254  1  0  -0.035814  0  3.669087  0  0  -0.02154  0  3.902925  0  0  -0.024682  0  3.920528  0  0  0.009816  -0.019658  0  3.891359  0
C  C31  1  0.07262102  0.01087746  0.07131701  1  0  -0.035747  0  3.669124  0  0  -0.021493  0  3.902948  0  0  -0.024636  0  3.920551  0  0  0.00981  -0.019616  0  3.8914  0
C  C32  1  0.69189607  0.52510073  0.48920915  1  0  -0.061885  0  3.650348  0  0  -0.097478  0  3.902855  0  0  -0.097764  0  3.92093  0  0  -0.060985  -0.097182  0  3.890977  0
C  C33  1  0.19189417  0.97490071  0.01079012  1  0  -0.061993  0  3.650426  0  0  -0.097571  0  3.902933  0  0  -0.097859  0  3.921005  0  0  -0.061031  -0.097277  0  3.891056  0
C  C34  1  0.30810404  0.47489883  0.51078997  1  0  -0.061981  0  3.650416  0  0  -0.097568  0  3.902932  0  0  -0.097852  0  3.921002  0  0  -0.061015  -0.097269  0  3.89105  0
C  C35  1  0.80810172  0.02510157  0.98920914  1  0  -0.061933  0  3.650322  0  0  -0.097534  0  3.902826  0  0  -0.097835  0  3.920894  0  0  -0.060999  -0.097238  0  3.890944  0
C  C36  1  0.75545629  0.56953797  0.62311729  1  0  0.684985  0  3.873848  0  0  0.637558  0  4.168313  0  0  0.672179  0  4.159222  0  0  0.221344  0.614013  0  4.173573  0
C  C37  1  0.25545702  0.93046191  0.87688198  1  0  0.684939  0  3.873894  0  0  0.637502  0  4.16837  0  0  0.67212  0  4.159279  0  0  0.221337  0.613974  0  4.173606  0
C  C38  1  0.24454242  0.43046159  0.37688237  1  0  0.684952  0  3.873886  0  0  0.637519  0  4.168375  0  0  0.672138  0  4.159276  0  0  0.221334  0.613973  0  4.173632  0
C  C39  1  0.74454028  0.06953900  0.12311775  1  0  0.68499  0  3.873871  0  0  0.637553  0  4.168366  0  0  0.672171  0  4.159272  0  0  0.221345  0.614017  0  4.173615  0
C  C40  1  0.33129262  0.53574647  0.64431967  1  0  0.714886  0  3.840433  0  0  0.658709  0  4.14993  0  0  0.694385  0  4.136974  0  0  0.229442  0.634343  0  4.157959  0
C  C41  1  0.83129076  0.96425732  0.85568089  1  0  0.714827  0  3.840593  0  0  0.65866  0  4.150077  0  0  0.694333  0  4.137127  0  0  0.229409  0.634303  0  4.158093  0
C  C42  1  0.66870890  0.46425309  0.35568054  1  0  0.714956  0  3.840388  0  0  0.658785  0  4.149894  0  0  0.694461  0  4.136934  0  0  0.229455  0.634418  0  4.157922  0
C  C43  1  0.16870654  0.03574359  0.14431939  1  0  0.714927  0  3.840445  0  0  0.658775  0  4.149919  0  0  0.694451  0  4.136959  0  0  0.229455  0.634391  0  4.15797  0
C  C44  1  0.36213623  0.53199800  0.85326265  1  0  0.702154  0  3.841641  0  0  0.654372  0  4.139055  0  0  0.689634  0  4.128167  0  0  0.232133  0.630388  0  4.145576  0
C  C45  1  0.86213453  0.96800300  0.64673721  1  0  0.70203  0  3.84166  0  0  0.654243  0  4.139079  0  0  0.689503  0  4.128196  0  0  0.232114  0.63027  0  4.145591  0
C  C46  1  0.63786529  0.46800155  0.14673701  1  0  0.702179  0  3.841453  0  0  0.654375  0  4.138898  0  0  0.689635  0  4.12801  0  0  0.232133  0.630385  0  4.145428  0
C  C47  1  0.13786700  0.03199792  0.35326252  1  0  0.70215  0  3.841675  0  0  0.654384  0  4.139067  0  0  0.689643  0  4.128178  0  0  0.232146  0.630394  0  4.145594  0
C  C48  1  0.43428449  0.50980008  0.92838797  1  0  -0.056964  0  3.714754  0  0  -0.036721  0  3.947726  0  0  -0.04346  0  3.970053  0  0  -0.010349  -0.032299  0  3.932685  0
C  C49  1  0.93428419  0.99020076  0.57161134  1  0  -0.056891  0  3.714787  0  0  -0.036637  0  3.947727  0  0  -0.043372  0  3.970052  0  0  -0.010336  -0.03222  0  3.932695  0
C  C50  1  0.56571844  0.49020084  0.07161176  1  0  -0.056901  0  3.71466  0  0  -0.036631  0  3.947595  0  0  -0.043368  0  3.96992  0  0  -0.010337  -0.032211  0  3.93256  0
C  C51  1  0.06571733  0.00979744  0.42838825  1  0  -0.056877  0  3.714712  0  0  -0.036582  0  3.94759  0  0  -0.043315  0  3.969915  0  0  -0.010329  -0.032156  0  3.932548  0
C  C52  1  0.31318516  0.45490767  0.98178258  1  0  -0.065377  0  3.717514  0  0  -0.086826  0  3.964942  0  0  -0.088548  0  3.986252  0  0  -0.080166  -0.085556  0  3.950458  0
C  C53  1  0.81318316  0.04509272  0.51821761  1  0  -0.065411  0  3.717506  0  0  -0.086881  0  3.964954  0  0  -0.088597  0  3.986256  0  0  -0.0802  -0.085612  0  3.950472  0
C  C54  1  0.68681777  0.54509324  0.01821715  1  0  -0.065431  0  3.717475  0  0  -0.086922  0  3.96492  0  0  -0.088638  0  3.986223  0  0  -0.08021  -0.085655  0  3.950443  0
C  C55  1  0.18681555  0.95490684  0.48178259  1  0  -0.065431  0  3.717523  0  0  -0.086932  0  3.964957  0  0  -0.088654  0  3.986265  0  0  -0.080182  -0.085661  0  3.950473  0
C  C56  1  0.62162477  0.55492165  0.94734497  1  0  -0.061976  0  3.697182  0  0  -0.086511  0  3.947037  0  0  -0.087297  0  3.967116  0  0  -0.079168  -0.085899  0  3.933538  0
C  C57  1  0.12162290  0.94507853  0.55265542  1  0  -0.061975  0  3.697183  0  0  -0.086502  0  3.947019  0  0  -0.087291  0  3.9671  0  0  -0.079147  -0.08589  0  3.933523  0
C  C58  1  0.37837957  0.44507926  0.05265476  1  0  -0.062093  0  3.697304  0  0  -0.08662  0  3.947131  0  0  -0.087408  0  3.967213  0  0  -0.079163  -0.086003  0  3.933632  0
C  C59  1  0.87837721  0.05492102  0.44734533  1  0  -0.062109  0  3.697172  0  0  -0.086647  0  3.946991  0  0  -0.087435  0  3.967069  0  0  -0.079173  -0.086032  0  3.933491  0
O  O60  1  0.69356196  0.63101786  0.68751977  1  0  -0.799848  0  2.228251  0  0  -0.749037  0  2.479723  0  0  -0.778071  0  2.471463  0  0  -0.431197  -0.727959  0  2.484654  0
O  O61  1  0.19355867  0.86898216  0.81248006  1  0  -0.799856  0  2.2283  0  0  -0.749044  0  2.479797  0  0  -0.778081  0  2.471552  0  0  -0.431228  -0.727974  0  2.484724  0
O  O62  1  0.30643956  0.36898306  0.31247996  1  0  -0.799837  0  2.228333  0  0  -0.749029  0  2.4798  0  0  -0.778071  0  2.471574  0  0  -0.431197  -0.72795  0  2.484729  0
O  O63  1  0.80643863  0.13101603  0.18752007  1  0  -0.79985  0  2.228302  0  0  -0.749041  0  2.479752  0  0  -0.778081  0  2.471523  0  0  -0.431195  -0.727965  0  2.484682  0
O  O64  1  0.82012981  0.40451353  0.77596617  1  0  -0.901214  0  1.827935  0  0  -0.85914  0  2.006236  0  0  -0.878831  0  1.97368  0  0  -0.649165  -0.844856  0  2.029298  0
O  O65  1  0.32012865  0.09548548  0.72403395  1  0  -0.901226  0  1.827929  0  0  -0.859159  0  2.006222  0  0  -0.878851  0  1.973666  0  0  -0.649132  -0.844871  0  2.029284  0
O  O66  1  0.17987030  0.59548602  0.22403404  1  0  -0.901224  0  1.8279  0  0  -0.859173  0  2.006186  0  0  -0.878858  0  1.973634  0  0  -0.649166  -0.844892  0  2.029248  0
O  O67  1  0.67987146  0.90451543  0.27596632  1  0  -0.9012  0  1.82795  0  0  -0.859136  0  2.006216  0  0  -0.878825  0  1.973663  0  0  -0.649123  -0.844849  0  2.029278  0
O  O68  1  0.92890652  0.53869982  0.61358268  1  0  -0.639998  0  1.981318  0  0  -0.599709  0  2.214717  0  0  -0.625111  0  2.208848  0  0  -0.337171  -0.58178  0  2.218277  0
O  O69  1  0.42890436  0.96129967  0.88641710  1  0  -0.63999  0  1.981356  0  0  -0.599682  0  2.214757  0  0  -0.62509  0  2.208904  0  0  -0.337155  -0.581759  0  2.218309  0
O  O70  1  0.07109359  0.46129974  0.38641698  1  0  -0.639992  0  1.981348  0  0  -0.599695  0  2.214733  0  0  -0.6251  0  2.208882  0  0  -0.337168  -0.581767  0  2.218292  0
O  O71  1  0.57109153  0.03870124  0.11358317  1  0  -0.640002  0  1.981369  0  0  -0.599706  0  2.214777  0  0  -0.625105  0  2.208908  0  0  -0.337176  -0.581778  0  2.218332  0
O  O72  1  0.30784057  0.70120199  0.67467549  1  0  -0.806869  0  2.180237  0  0  -0.766074  0  2.447449  0  0  -0.793722  0  2.435146  0  0  -0.440644  -0.745683  0  2.45503  0
O  O73  1  0.80784053  0.79879778  0.82532432  1  0  -0.806838  0  2.180187  0  0  -0.766056  0  2.447415  0  0  -0.793705  0  2.435115  0  0  -0.44064  -0.745665  0  2.454991  0
O  O74  1  0.69215814  0.29879893  0.32532424  1  0  -0.806895  0  2.180204  0  0  -0.76612  0  2.447421  0  0  -0.793763  0  2.435118  0  0  -0.440669  -0.745729  0  2.454998  0
O  O75  1  0.19215817  0.20120042  0.17467528  1  0  -0.806862  0  2.180203  0  0  -0.766087  0  2.447398  0  0  -0.793727  0  2.43509  0  0  -0.440638  -0.74569  0  2.454993  0
O  O76  1  0.25316123  0.40662838  0.67083312  1  0  -0.631741  0  1.992277  0  0  -0.587548  0  2.219302  0  0  -0.611508  0  2.208119  0  0  -0.308254  -0.570684  0  2.226688  0
O  O77  1  0.75316028  0.09336806  0.82916687  1  0  -0.631722  0  1.992424  0  0  -0.58755  0  2.21946  0  0  -0.611508  0  2.208278  0  0  -0.308239  -0.570695  0  2.226845  0
O  O78  1  0.74683888  0.59337117  0.32916763  1  0  -0.631769  0  1.992303  0  0  -0.587599  0  2.219343  0  0  -0.611553  0  2.208154  0  0  -0.30826  -0.570735  0  2.226727  0
O  O79  1  0.24683702  0.90662878  0.17083210  1  0  -0.631763  0  1.992341  0  0  -0.587596  0  2.219368  0  0  -0.611557  0  2.208189  0  0  -0.308263  -0.570728  0  2.226763  0
O  O80  1  0.18765180  0.50953276  0.83957642  1  0  -0.698512  0  1.981175  0  0  -0.659171  0  2.222398  0  0  -0.68469  0  2.211009  0  0  -0.377379  -0.640914  0  2.229738  0
O  O81  1  0.68765003  0.99046728  0.66042396  1  0  -0.698464  0  1.981117  0  0  -0.659111  0  2.222325  0  0  -0.68463  0  2.21094  0  0  -0.377371  -0.640852  0  2.229655  0
O  O82  1  0.81234972  0.49046680  0.16042433  1  0  -0.698483  0  1.98106  0  0  -0.659149  0  2.222277  0  0  -0.684663  0  2.21089  0  0  -0.377354  -0.640884  0  2.229609  0
O  O83  1  0.31235008  0.00953364  0.33957686  1  0  -0.698504  0  1.981121  0  0  -0.659169  0  2.222325  0  0  -0.684685  0  2.210942  0  0  -0.377362  -0.640906  0  2.22966  0
O  O84  1  0.47953612  0.58217112  0.80636209  1  0  -0.75474  0  2.119546  0  0  -0.703569  0  2.363434  0  0  -0.730126  0  2.35371  0  0  -0.376598  -0.684498  0  2.369423  0
O  O85  1  0.97953590  0.91782962  0.69363775  1  0  -0.754657  0  2.119563  0  0  -0.703487  0  2.363434  0  0  -0.730051  0  2.353723  0  0  -0.376563  -0.684416  0  2.369421  0
O  O86  1  0.52046400  0.41782980  0.19363710  1  0  -0.754711  0  2.119458  0  0  -0.703545  0  2.363353  0  0  -0.730109  0  2.353646  0  0  -0.376592  -0.68447  0  2.369341  0
O  O87  1  0.02046562  0.08216993  0.30636300  1  0  -0.754641  0  2.119527  0  0  -0.70356  0  2.363465  0  0  -0.730118  0  2.353757  0  0  -0.376608  -0.684483  0  2.369456  0
