# generated using pymatgen
data_AlH8C16N3O7
_symmetry_space_group_name_H-M   'P 1'
_cell_length_a   6.62758384
_cell_length_b   21.61585238
_cell_length_c   24.65674799
_cell_angle_alpha   109.60854049
_cell_angle_beta   87.62278723
_cell_angle_gamma   88.50050890
_symmetry_Int_Tables_number   1
_chemical_formula_structural   AlH8C16N3O7
_chemical_formula_sum   'Al4 H32 C64 N12 O28'
_cell_volume   3321.61677320
_cell_formula_units_Z   4
loop_
 _symmetry_equiv_pos_site_id
 _symmetry_equiv_pos_as_xyz
  1  'x, y, z'
loop_
 _atom_site_type_symbol
 _atom_site_label
 _atom_site_symmetry_multiplicity
 _atom_site_fract_x
 _atom_site_fract_y
 _atom_site_fract_z
 _atom_site_occupancy
 _atom_site_pbe_bader_charge
 _atom_site_pbe_bader_spin_density
 _atom_site_pbe_cm5_charge
 _atom_site_pbe_ddec_charge
 _atom_site_pbe_ddec_spin_density
 _atom_site_pbe_ddec_sum_bond_order
 _atom_site_pbe_magmom
Al  Al0  1  0.12076524  0.50038914  0.50019664  1  2.500602  0  0.396831  1.643302  0  2.592055  0
Al  Al1  1  0.62125805  0.49944816  0.49981906  1  2.500676  0  0.399363  1.641458  0  2.581493  0
Al  Al2  1  0.66909603  0.00046859  0.00094796  1  2.501077  0  0.3983  1.652173  0  2.567439  0
Al  Al3  1  0.16924741  0.00110358  0.99947697  1  2.502069  0  0.400051  1.646901  0  2.573832  0
H  H4  1  0.14436331  0.78660646  0.92732088  1  0.097289  0  0.1195  0.125797  0  0.969121  0
H  H5  1  0.33652594  0.22542076  0.06150447  1  0.100865  0  0.119205  0.124945  0  0.966657  0
H  H6  1  0.11342393  0.60455677  0.75572774  1  0.056659  0  0.11162  0.113119  0  0.980902  0
H  H7  1  0.42330726  0.40315736  0.23425890  1  0.058297  0  0.11094  0.11268  0  0.982644  0
H  H8  1  0.17252712  0.67575102  0.85049052  1  0.066012  0  0.111605  0.112211  0  0.983865  0
H  H9  1  0.37288803  0.33545850  0.13623575  1  0.064413  0  0.111618  0.111924  0  0.982899  0
H  H10  1  0.71593612  0.71881185  0.55733692  1  0.152573  0  0.123848  0.1393  0  0.983962  0
H  H11  1  0.32703815  0.27904094  0.45053545  1  0.097327  0  0.12308  0.138254  0  0.985327  0
H  H12  1  0.81394934  0.85480141  0.72391642  1  0.154407  0  0.119318  0.125033  0  1.0438  0
H  H13  1  0.30866232  0.14859783  0.27753178  1  0.145829  0  0.120395  0.126679  0  1.031022  0
H  H14  1  0.98911688  0.58419333  0.65889687  1  0.073379  0  0.11061  0.118375  0  1.005024  0
H  H15  1  0.45087868  0.41682611  0.33691527  1  0.089567  0  0.109492  0.114124  0  1.00298  0
H  H16  1  0.60185057  0.13399987  0.91794664  1  0.108015  0  0.110153  0.114379  0  0.995997  0
H  H17  1  0.10705302  0.86947603  0.08667153  1  0.092936  0  0.108931  0.112338  0  0.993852  0
H  H18  1  0.59978244  0.20427635  0.85510019  1  0.107017  0  0.106039  0.103663  0  1.021747  0
H  H19  1  0.10702491  0.79725481  0.14773187  1  0.101767  0  0.106821  0.104783  0  1.019365  0
H  H20  1  0.22317001  0.14564704  0.80169376  1  0.110926  0  0.109551  0.108875  0  1.012585  0
H  H21  1  0.70691312  0.85580933  0.19789418  1  0.112665  0  0.109938  0.109461  0  1.013096  0
H  H22  1  0.22608966  0.07784780  0.86653787  1  0.092954  0  0.113153  0.118692  0  0.987274  0
H  H23  1  0.71093486  0.92432662  0.13397373  1  0.089494  0  0.110601  0.113039  0  0.993411  0
H  H24  1  0.56947407  0.34911394  0.69644946  1  0.112423  0  0.107008  0.105602  0  1.019636  0
H  H25  1  0.08661448  0.64654122  0.30300035  1  0.116987  0  0.106937  0.1053  0  1.020367  0
H  H26  1  0.55542834  0.41270265  0.62811022  1  0.090394  0  0.108063  0.112648  0  0.997763  0
H  H27  1  0.07208007  0.58439465  0.37257644  1  0.112773  0  0.108741  0.113476  0  0.997735  0
H  H28  1  0.18630950  0.36518597  0.58050782  1  0.089225  0  0.110588  0.116461  0  0.993948  0
H  H29  1  0.68353585  0.63293590  0.41538822  1  0.110771  0  0.11136  0.116602  0  0.989711  0
H  H30  1  0.19839636  0.29817351  0.64587406  1  0.104085  0  0.109438  0.109079  0  1.014294  0
H  H31  1  0.69432999  0.69898065  0.34908650  1  0.104432  0  0.109495  0.109402  0  1.014983  0
H  H32  1  0.35807021  0.54648981  0.57303603  1  0.599787  0  0.356024  0.433525  0  0.850016  0
H  H33  1  0.88757982  0.45361666  0.42673384  1  0.59907  0  0.358189  0.437718  0  0.843063  0
H  H34  1  0.43606014  0.96470810  0.92381652  1  0.653529  0  0.355968  0.441392  0  0.841606  0
H  H35  1  0.91228408  0.01103483  0.07446460  1  0.623096  0  0.360009  0.444077  0  0.832998  0
C  C36  1  0.37244501  0.56300554  0.43497796  1  1.566709  0  0.263843  0.632883  0  4.116879  0
C  C37  1  0.86987716  0.43605142  0.56449653  1  1.590262  0  0.26325  0.632165  0  4.116352  0
C  C38  1  0.39308537  0.39112670  0.42791941  1  1.612148  0  0.278177  0.66193  0  4.094445  0
C  C39  1  0.84693958  0.60813057  0.57328787  1  1.597121  0  0.278499  0.659689  0  4.087781  0
C  C40  1  0.09760871  0.71734821  0.84282090  1  -0.037321  0  -0.077917  -0.122779  0  3.985764  0
C  C41  1  0.37788949  0.29098568  0.14783076  1  -0.01238  0  -0.076188  -0.118351  0  3.980569  0
C  C42  1  0.96951856  0.82975724  0.87643733  1  0.087304  0  0.00255  -0.06387  0  3.945234  0
C  C43  1  0.38386591  0.17308764  0.12094904  1  0.068407  0  0.009757  -0.046242  0  3.936654  0
C  C44  1  0.76320115  0.72671502  0.60080449  1  0.081644  0  -0.068598  -0.134915  0  3.951187  0
C  C45  1  0.34878901  0.27181348  0.40481070  1  0.060285  0  -0.070628  -0.1394  0  3.9507  0
C  C46  1  0.76218314  0.79042878  0.64074756  1  0.134167  0  0.078095  0.080135  0  3.950128  0
C  C47  1  0.32219100  0.20976775  0.36411370  1  0.143229  0  0.07864  0.080773  0  3.949448  0
C  C48  1  0.81433404  0.80339000  0.69706221  1  0.009046  0  -0.072153  -0.156668  0  3.919257  0
C  C49  1  0.34238826  0.19758805  0.30541170  1  0.082335  0  -0.070771  -0.154886  0  3.921615  0
C  C50  1  0.87311409  0.75141305  0.71640715  1  -0.01002  0  0.005215  0.050717  0  3.921444  0
C  C51  1  0.39229196  0.24871389  0.28430694  1  -0.034386  0  0.004938  0.050994  0  3.932859  0
C  C52  1  0.89348084  0.68630180  0.67474853  1  0.027196  0  0.008527  0.066419  0  3.952676  0
C  C53  1  0.41073696  0.31331712  0.32508315  1  0.021348  0  0.007189  0.064076  0  3.961621  0
C  C54  1  0.92450944  0.76120824  0.77556817  1  0.029532  0  0.009984  -0.005108  0  3.89658  0
C  C55  1  0.40581219  0.24014039  0.22318892  1  0.043263  0  0.011179  -0.000752  0  3.910254  0
C  C56  1  0.02275155  0.70799230  0.78792175  1  -0.029915  0  0.000495  0.085334  0  4.014175  0
C  C57  1  0.40042348  0.29719947  0.20618762  1  -0.006019  0  -0.000561  0.081591  0  4.014349  0
C  C58  1  0.04318159  0.64452259  0.74447068  1  -0.073688  0  -0.080552  -0.118222  0  4.005236  0
C  C59  1  0.41905036  0.36061848  0.24863681  1  -0.036762  0  -0.08082  -0.118468  0  4.001602  0
C  C60  1  0.97514278  0.63338765  0.69077943  1  0.07068  0  -0.08744  -0.128267  0  4.004654  0
C  C61  1  0.43219507  0.36816914  0.30551136  1  -0.040793  0  -0.086804  -0.127903  0  4.004528  0
C  C62  1  0.88887223  0.82002622  0.82318169  1  0.163774  0  0.089787  0.017668  0  3.873864  0
C  C63  1  0.41432660  0.17885777  0.17781052  1  0.176552  0  0.088031  0.009847  0  3.877783  0
C  C64  1  0.07975030  0.77790945  0.88560537  1  0.016192  0  -0.072066  -0.074032  0  3.979251  0
C  C65  1  0.35998668  0.23026310  0.10622578  1  -0.013175  0  -0.07438  -0.086415  0  3.97938  0
C  C66  1  0.83322894  0.67550711  0.61766283  1  -0.03802  0  -0.001713  -0.062153  0  3.935321  0
C  C67  1  0.39149415  0.32291941  0.38497594  1  0.005985  0  -0.000867  -0.057241  0  3.938923  0
C  C68  1  0.73715466  0.13759096  0.89269480  1  -0.010545  0  -0.076787  -0.083062  0  3.963957  0
C  C69  1  0.23859664  0.86538940  0.11058981  1  -0.076665  0  -0.078184  -0.087872  0  3.960736  0
C  C70  1  0.73578415  0.17618081  0.85763868  1  -0.039175  0  -0.079535  -0.107234  0  3.962678  0
C  C71  1  0.23793301  0.82561935  0.14473793  1  0.008749  0  -0.078411  -0.103753  0  3.954753  0
C  C72  1  0.91189250  0.17954738  0.82498598  1  -0.047074  0  -0.000184  0.024319  0  3.983534  0
C  C73  1  0.40820443  0.82137809  0.17577912  1  -0.039688  0  -0.00059  0.023086  0  3.984621  0
C  C74  1  0.08851775  0.14333284  0.82773054  1  -0.021806  0  -0.075733  -0.101746  0  3.945669  0
C  C75  1  0.57779591  0.85810150  0.17260552  1  0.028498  0  -0.075938  -0.100641  0  3.946202  0
C  C76  1  0.08990183  0.10565843  0.86364545  1  0.007144  0  -0.073342  -0.07706  0  3.949866  0
C  C77  1  0.57977995  0.89619170  0.13714026  1  -0.050602  0  -0.07496  -0.079301  0  3.961287  0
C  C78  1  0.91468475  0.10272739  0.89645697  1  -0.021928  0  -0.006934  -0.034175  0  3.95723  0
C  C79  1  0.41108908  0.89980935  0.10567945  1  -0.003041  0  -0.006959  -0.029899  0  3.956389  0
C  C80  1  0.89757911  0.28682499  0.71838624  1  0.934111  0  0.242489  0.245386  0  3.979933  0
C  C81  1  0.40380072  0.71036134  0.27931650  1  0.962851  0  0.241861  0.243921  0  3.984327  0
C  C82  1  0.91088680  0.22107590  0.78851732  1  0.957267  0  0.24502  0.248513  0  3.974184  0
C  C83  1  0.41104784  0.77839437  0.21091542  1  0.951421  0  0.245523  0.249592  0  3.974641  0
C  C84  1  0.70310142  0.35238223  0.67039596  1  -0.025758  0  -0.079396  -0.107262  0  3.956925  0
C  C85  1  0.21543223  0.64403051  0.32835682  1  -0.027519  0  -0.079982  -0.107083  0  3.961517  0
C  C86  1  0.69571110  0.38792273  0.63276160  1  -0.023752  0  -0.079339  -0.087911  0  3.969377  0
C  C87  1  0.20793050  0.60917558  0.36652080  1  -0.037544  0  -0.080255  -0.089548  0  3.973407  0
C  C88  1  0.87130680  0.39368760  0.60129167  1  -0.069317  0  -0.012174  -0.038348  0  3.970496  0
C  C89  1  0.37780665  0.60417802  0.39715125  1  -0.036071  0  -0.01279  -0.038992  0  3.973752  0
C  C90  1  0.05202592  0.36082386  0.60577593  1  -0.017272  0  -0.078483  -0.086919  0  3.966703  0
C  C91  1  0.55318007  0.63670430  0.39096526  1  -0.091059  0  -0.077309  -0.084493  0  3.960566  0
C  C92  1  0.05895306  0.32391854  0.64217636  1  -0.03923  0  -0.07639  -0.100464  0  3.951103  0
C  C93  1  0.55968421  0.67310109  0.35401206  1  0.001415  0  -0.077322  -0.103203  0  3.946572  0
C  C94  1  0.88564846  0.32085097  0.67598149  1  0.003444  0  0.001928  0.027353  0  3.980517  0
C  C95  1  0.39224947  0.67585507  0.32145367  1  -0.023348  0  0.001963  0.027557  0  3.98138  0
C  C96  1  0.39120954  0.10714265  0.07399803  1  1.642594  0  0.27066  0.64146  0  4.137067  0
C  C97  1  0.94760793  0.89423888  0.92484635  1  1.615391  0  0.269305  0.643057  0  4.123248  0
C  C98  1  0.41788186  0.93947388  0.06659814  1  1.563146  0  0.269012  0.645818  0  4.092443  0
C  C99  1  0.91458475  0.06267532  0.93524612  1  1.558152  0  0.26999  0.64196  0  4.092952  0
N  N100  1  0.08167780  0.22187755  0.75652540  1  -0.556196  0  -0.14927  -0.139637  0  3.203526  0
N  N101  1  0.57736590  0.77722537  0.24089508  1  -0.496716  0  -0.148048  -0.137982  0  3.210743  0
N  N102  1  0.07466241  0.25531809  0.72085136  1  -0.547477  0  -0.149088  -0.139494  0  3.210542  0
N  N103  1  0.57350851  0.74270496  0.27572956  1  -0.59756  0  -0.150065  -0.140597  0  3.216294  0
N  N104  1  0.73801638  0.29403677  0.75646988  1  -0.542413  0  -0.154181  -0.14699  0  3.216057  0
N  N105  1  0.25263362  0.70315129  0.24263400  1  -0.546861  0  -0.155303  -0.148499  0  3.221527  0
N  N106  1  0.74485992  0.26053025  0.79215686  1  -0.539565  0  -0.153814  -0.146274  0  3.214611  0
N  N107  1  0.25616446  0.73784711  0.20781165  1  -0.553439  0  -0.153887  -0.146321  0  3.21464  0
N  N108  1  0.75678231  0.87467540  0.81927702  1  0.420296  0  0.056371  0.509954  0  4.247193  0
N  N109  1  0.47201926  0.11724903  0.18803318  1  0.363094  0  0.056667  0.510032  0  4.237584  0
N  N110  1  0.70557041  0.84621348  0.62162211  1  0.359112  0  0.058617  0.51431  0  4.202254  0
N  N111  1  0.25982112  0.15612336  0.38496805  1  0.385572  0  0.058996  0.515173  0  4.202439  0
O  O112  1  0.56109104  0.41452910  0.44565724  1  -1.257386  0  -0.226974  -0.580014  0  2.307841  0
O  O113  1  0.02179005  0.58041558  0.55880570  1  -1.261033  0  -0.227861  -0.589017  0  2.339778  0
O  O114  1  0.19903658  0.54980428  0.45153640  1  -1.257456  0  -0.238763  -0.595116  0  2.347799  0
O  O115  1  0.69917272  0.45644174  0.55345723  1  -1.262984  0  -0.240701  -0.599205  0  2.339367  0
O  O116  1  0.22032418  0.42004375  0.44283318  1  -1.255055  0  -0.226285  -0.585314  0  2.337858  0
O  O117  1  0.68190385  0.58431206  0.55321827  1  -1.254918  0  -0.227232  -0.57866  0  2.320669  0
O  O118  1  0.04210642  0.45021275  0.54794685  1  -1.265134  0  -0.239809  -0.600275  0  2.366972  0
O  O119  1  0.54215645  0.54274291  0.44677287  1  -1.257757  0  -0.24112  -0.603951  0  2.353987  0
O  O120  1  0.36513777  0.51249812  0.53541458  1  -1.401314  0  -0.448538  -0.990571  0  2.204925  0
O  O121  1  0.87734873  0.48726869  0.46453790  1  -1.39985  0  -0.448211  -0.992031  0  2.204506  0
O  O122  1  0.25030983  0.96085370  0.05471264  1  -1.258176  0  -0.23628  -0.601838  0  2.351085  0
O  O123  1  0.74403481  0.05480255  0.95722382  1  -1.253932  0  -0.232894  -0.588386  0  2.353613  0
O  O124  1  0.56328550  0.07748323  0.06222227  1  -1.245526  0  -0.226234  -0.574825  0  2.345024  0
O  O125  1  0.11191892  0.91454929  0.94774185  1  -1.240227  0  -0.22565  -0.572002  0  2.336816  0
O  O126  1  0.59267923  0.94868602  0.04761890  1  -1.256809  0  -0.238547  -0.603045  0  2.337825  0
O  O127  1  0.08368826  0.03887201  0.94378637  1  -1.260998  0  -0.23491  -0.59554  0  2.338285  0
O  O128  1  0.77275478  0.92188732  0.93861699  1  -1.244484  0  -0.230033  -0.586224  0  2.346682  0
O  O129  1  0.22785924  0.08816024  0.05018732  1  -1.243308  0  -0.222955  -0.560945  0  2.310381  0
O  O130  1  0.42645587  0.98851157  0.96495703  1  -1.452687  0  -0.447683  -1.000554  0  2.205985  0
O  O131  1  0.91425170  0.01176209  0.03535973  1  -1.422033  0  -0.446845  -0.998031  0  2.203827  0
O  O132  1  0.83757924  0.92630387  0.82132630  1  -0.433285  0  -0.108811  -0.301336  0  1.898866  0
O  O133  1  0.57414759  0.86467313  0.81540987  1  -0.450805  0  -0.118526  -0.313236  0  1.873979  0
O  O134  1  0.63623344  0.11534746  0.20956107  1  -0.415842  0  -0.118649  -0.309016  0  1.866304  0
O  O135  1  0.35510630  0.07141927  0.17261605  1  -0.428462  0  -0.112629  -0.31018  0  1.91329  0
O  O136  1  0.65365938  0.83271349  0.57132885  1  -0.444535  0  -0.140826  -0.338129  0  1.856356  0
O  O137  1  0.71399375  0.90244291  0.65683937  1  -0.417193  0  -0.132107  -0.321972  0  1.864376  0
O  O138  1  0.24307981  0.16882150  0.43794636  1  -0.447581  0  -0.141038  -0.339043  0  1.857118  0
O  O139  1  0.22706890  0.10244555  0.34838681  1  -0.439957  0  -0.133118  -0.323613  0  1.862782  0
