# generated using pymatgen
data_ZnH20C26(NO)6
_symmetry_space_group_name_H-M   'P 1'
_cell_length_a   10.36174185
_cell_length_b   13.41184213
_cell_length_c   20.32874449
_cell_angle_alpha   89.99991379
_cell_angle_beta   90.00000735
_cell_angle_gamma   93.69304474
_symmetry_Int_Tables_number   1
_chemical_formula_structural   ZnH20C26(NO)6
_chemical_formula_sum   'Zn4 H80 C104 N24 O24'
_cell_volume   2819.22010576
_cell_formula_units_Z   4
loop_
 _symmetry_equiv_pos_site_id
 _symmetry_equiv_pos_as_xyz
  1  'x, y, z'
loop_
 _atom_site_type_symbol
 _atom_site_label
 _atom_site_symmetry_multiplicity
 _atom_site_fract_x
 _atom_site_fract_y
 _atom_site_fract_z
 _atom_site_occupancy
 _atom_site_pbe_bader_charge
 _atom_site_pbe_bader_spin_density
 _atom_site_pbe_cm5_charge
 _atom_site_pbe_ddec_charge
 _atom_site_pbe_ddec_spin_density
 _atom_site_pbe_ddec_sum_bond_order
 _atom_site_pbe_magmom
Zn  Zn0  1  0.74774826  0.43845716  0.90126353  1  1.266154  0  0.712358  0.774439  0  2.440209  0
Zn  Zn1  1  0.75225106  0.06154339  0.40126334  1  1.266155  0  0.712379  0.774438  0  2.440256  0
Zn  Zn2  1  0.25225111  0.56154367  0.09873677  1  1.266145  0  0.712355  0.774414  0  2.440268  0
Zn  Zn3  1  0.24774824  0.93845669  0.59873647  1  1.266119  0  0.712393  0.774466  0  2.440228  0
H  H4  1  0.50195748  0.44276019  0.11736710  1  0.209316  0  0.137324  0.115839  0  1.055205  0
H  H5  1  0.99804265  0.05723951  0.61736671  1  0.209314  0  0.137338  0.115862  0  1.055183  0
H  H6  1  0.49804182  0.55723989  0.88263319  1  0.209421  0  0.137334  0.115861  0  1.055186  0
H  H7  1  0.00195478  0.94276133  0.38263310  1  0.209771  0  0.137317  0.115835  0  1.055177  0
H  H8  1  0.54109407  0.26074709  0.94826947  1  0.180906  0  0.149875  0.130927  0  0.988105  0
H  H9  1  0.95890622  0.23925335  0.44826960  1  0.180906  0  0.149885  0.130952  0  0.988074  0
H  H10  1  0.45890626  0.73925374  0.05173034  1  0.180896  0  0.149884  0.130943  0  0.988117  0
H  H11  1  0.04109501  0.76074673  0.55172971  1  0.180907  0  0.149887  0.130967  0  0.988078  0
H  H12  1  0.29630811  0.23271121  0.97487515  1  0.111476  0  0.118173  0.143829  0  0.980749  0
H  H13  1  0.20369209  0.26728812  0.47487524  1  0.111466  0  0.118205  0.143904  0  0.980645  0
H  H14  1  0.70369023  0.76728888  0.02512515  1  0.111472  0  0.118194  0.14388  0  0.980696  0
H  H15  1  0.79630907  0.73271121  0.52512555  1  0.111459  0  0.118215  0.143915  0  0.980639  0
H  H16  1  0.13249577  0.06831897  0.14103081  1  0.094793  0  0.102851  0.113882  0  1.05302  0
H  H17  1  0.36750248  0.43168113  0.64103053  1  0.094812  0  0.102857  0.113892  0  1.053006  0
H  H18  1  0.86750443  0.93168036  0.85896948  1  0.094798  0  0.102861  0.113891  0  1.053006  0
H  H19  1  0.63249585  0.56831896  0.35896977  1  0.094808  0  0.102864  0.113898  0  1.053001  0
H  H20  1  0.29796500  0.15121150  0.21349762  1  0.085542  0  0.109327  0.109796  0  0.977831  0
H  H21  1  0.20203332  0.34878918  0.71349791  1  0.085536  0  0.109345  0.109833  0  0.977832  0
H  H22  1  0.70203623  0.84878857  0.78650267  1  0.085549  0  0.10934  0.109815  0  0.977829  0
H  H23  1  0.79796501  0.65121091  0.28650288  1  0.085557  0  0.109346  0.109825  0  0.977815  0
H  H24  1  0.46932589  0.26999452  0.16772052  1  0.085945  0  0.106937  0.120509  0  1.020864  0
H  H25  1  0.03067332  0.23000552  0.66772041  1  0.085935  0  0.106932  0.12051  0  1.020882  0
H  H26  1  0.53067437  0.73000556  0.83227929  1  0.08595  0  0.106928  0.120503  0  1.020871  0
H  H27  1  0.96932508  0.76999532  0.33227939  1  0.085949  0  0.106924  0.120515  0  1.02088  0
H  H28  1  0.96666191  0.04477523  0.06719403  1  0.068248  0  0.10248  0.073352  0  0.997738  0
H  H29  1  0.53333829  0.45522533  0.56719468  1  0.068252  0  0.102471  0.073342  0  0.997724  0
H  H30  1  0.03333835  0.95522485  0.93280578  1  0.068242  0  0.102474  0.073331  0  0.997742  0
H  H31  1  0.46666128  0.54477774  0.43280660  1  0.068316  0  0.102497  0.073406  0  0.99776  0
H  H32  1  0.09142793  0.96076741  0.05256057  1  0.064215  0  0.105433  0.078803  0  0.980577  0
H  H33  1  0.40857134  0.53923231  0.55256117  1  0.064209  0  0.105432  0.078786  0  0.980624  0
H  H34  1  0.90857233  0.03923267  0.94743973  1  0.064224  0  0.105426  0.078804  0  0.980545  0
H  H35  1  0.59142617  0.46076928  0.44744060  1  0.064271  0  0.105429  0.078792  0  0.980572  0
H  H36  1  0.03352867  0.68132332  0.03541798  1  0.238701  0  0.137347  0.117743  0  1.055384  0
H  H37  1  0.46647060  0.81867644  0.53541684  1  0.23874  0  0.137353  0.117759  0  1.05538  0
H  H38  1  0.96647255  0.31867676  0.96458231  1  0.238725  0  0.137354  0.117784  0  1.055382  0
H  H39  1  0.53352767  0.18132290  0.46458248  1  0.238729  0  0.137358  0.11778  0  1.055363  0
H  H40  1  0.94317615  0.60815721  0.83589690  1  0.240385  0  0.148496  0.134739  0  1.010238  0
H  H41  1  0.55682516  0.89184290  0.33589636  1  0.240359  0  0.148509  0.13474  0  1.010224  0
H  H42  1  0.05682514  0.39184361  0.16410340  1  0.240365  0  0.148508  0.134727  0  1.010255  0
H  H43  1  0.44317696  0.10815642  0.66410393  1  0.240356  0  0.148524  0.134744  0  1.010202  0
H  H44  1  0.19117733  0.77693886  0.00612936  1  0.116076  0  0.112609  0.135152  0  1.025461  0
H  H45  1  0.30882380  0.72306021  0.50612732  1  0.11612  0  0.112598  0.135187  0  1.025399  0
H  H46  1  0.80882396  0.22306197  0.99387192  1  0.116105  0  0.112604  0.135172  0  1.025415  0
H  H47  1  0.69117736  0.27693911  0.49387101  1  0.116092  0  0.112613  0.135169  0  1.025456  0
H  H48  1  0.38428808  0.94732600  0.85059364  1  0.08444  0  0.110037  0.129359  0  1.007262  0
H  H49  1  0.11571404  0.55267228  0.35059295  1  0.084447  0  0.110026  0.12937  0  1.007267  0
H  H50  1  0.61571390  0.05267183  0.14940666  1  0.084425  0  0.11003  0.129366  0  1.00727  0
H  H51  1  0.88428719  0.44732779  0.64940686  1  0.084429  0  0.110043  0.129374  0  1.007325  0
H  H52  1  0.24614325  0.85691523  0.76921826  1  0.124161  0  0.107863  0.115754  0  1.001904  0
H  H53  1  0.25385700  0.64308399  0.26921651  1  0.124148  0  0.107855  0.115711  0  1.001944  0
H  H54  1  0.75385874  0.14308260  0.23078302  1  0.124498  0  0.107852  0.115695  0  1.001961  0
H  H55  1  0.74614319  0.35691535  0.73078231  1  0.124171  0  0.10786  0.115735  0  1.001961  0
H  H56  1  0.07666303  0.73001483  0.80233251  1  0.086334  0  0.112198  0.128028  0  0.998628  0
H  H57  1  0.42333640  0.76998581  0.30233065  1  0.086295  0  0.112194  0.12805  0  0.998554  0
H  H58  1  0.92333820  0.26998524  0.19766926  1  0.086286  0  0.112197  0.128038  0  0.998591  0
H  H59  1  0.57666483  0.23001426  0.69766768  1  0.086332  0  0.112213  0.128054  0  0.998593  0
H  H60  1  0.42466541  0.04947735  0.94468253  1  0.062042  0  0.105379  0.077122  0  0.970025  0
H  H61  1  0.07533389  0.45052280  0.44468292  1  0.062052  0  0.105375  0.077102  0  0.970013  0
H  H62  1  0.57533485  0.95052273  0.05531777  1  0.062038  0  0.105406  0.077168  0  0.969978  0
H  H63  1  0.92466540  0.54947729  0.55531787  1  0.062032  0  0.105428  0.077229  0  0.969965  0
H  H64  1  0.53812833  0.95559149  0.93331296  1  0.071054  0  0.102194  0.071414  0  1.008198  0
H  H65  1  0.96187209  0.54440916  0.43331280  1  0.071069  0  0.102176  0.071362  0  1.008231  0
H  H66  1  0.46187200  0.04440934  0.06668783  1  0.071055  0  0.102182  0.071385  0  1.00821  0
H  H67  1  0.03812817  0.45559092  0.56668799  1  0.071035  0  0.102203  0.071419  0  1.008219  0
H  H68  1  0.06459609  0.26509755  0.86757239  1  0.087383  0  0.104419  0.111003  0  1.006839  0
H  H69  1  0.43540361  0.23490727  0.36757597  1  0.08743  0  0.104405  0.111036  0  1.00682  0
H  H70  1  0.93540713  0.73490327  0.13242693  1  0.0874  0  0.104413  0.11103  0  1.006802  0
H  H71  1  0.56459452  0.76509058  0.63242384  1  0.087454  0  0.104397  0.111031  0  1.006822  0
H  H72  1  0.22586490  0.16306012  0.80991320  1  0.098624  0  0.103782  0.107919  0  0.999429  0
H  H73  1  0.27413556  0.33694258  0.30991470  1  0.098434  0  0.103779  0.10787  0  0.999434  0
H  H74  1  0.77413819  0.83693920  0.19008562  1  0.098669  0  0.103803  0.107904  0  0.999405  0
H  H75  1  0.72586174  0.66305677  0.69008609  1  0.098481  0  0.103801  0.107913  0  0.999405  0
H  H76  1  0.91520498  0.99080699  0.71587257  1  0.075715  0  0.105913  0.113864  0  0.994171  0
H  H77  1  0.58479529  0.50919266  0.21587143  1  0.075618  0  0.105944  0.113902  0  0.9941  0
H  H78  1  0.08479631  0.00919383  0.28412723  1  0.075702  0  0.105923  0.113879  0  0.994144  0
H  H79  1  0.41520111  0.49080744  0.78412886  1  0.075533  0  0.105932  0.1139  0  0.994077  0
H  H80  1  0.75334335  0.08968001  0.77611431  1  0.075072  0  0.10464  0.109845  0  0.999224  0
H  H81  1  0.74665589  0.41032008  0.27611377  1  0.075128  0  0.104639  0.109837  0  0.999235  0
H  H82  1  0.24665980  0.91032006  0.22388598  1  0.075063  0  0.104678  0.109907  0  0.999177  0
H  H83  1  0.25334148  0.58968001  0.72388505  1  0.075064  0  0.104645  0.109891  0  0.999203  0
C  C84  1  0.53822605  0.41376246  0.07141249  1  0.955209  0  0.154297  0.088243  0  3.891691  0
C  C85  1  0.96177304  0.08623661  0.57141255  1  0.9552  0  0.154307  0.088267  0  3.891651  0
C  C86  1  0.46177325  0.58623763  0.92858781  1  0.955114  0  0.154299  0.088222  0  3.89168  0
C  C87  1  0.03822529  0.91376348  0.42858726  1  0.954722  0  0.154285  0.088238  0  3.891641  0
C  C88  1  0.55163933  0.32135817  0.98367103  1  1.016843  0  0.17026  0.10051  0  3.870342  0
C  C89  1  0.94836090  0.17864144  0.48367123  1  1.016859  0  0.170232  0.100451  0  3.870442  0
C  C90  1  0.44836094  0.67864191  0.01632926  1  1.016841  0  0.170228  0.100406  0  3.870437  0
C  C91  1  0.05163937  0.82135864  0.51632858  1  1.016855  0  0.170211  0.100399  0  3.870429  0
C  C92  1  0.39250296  0.25751739  0.06873212  1  0.250139  0  0.094562  0.189938  0  4.038397  0
C  C93  1  0.10749721  0.24248287  0.56873151  1  0.250069  0  0.094555  0.189969  0  4.038418  0
C  C94  1  0.60749641  0.74248344  0.93126867  1  0.250052  0  0.094539  0.1899  0  4.038395  0
C  C95  1  0.89250215  0.75751796  0.43126780  1  0.250134  0  0.09455  0.189922  0  4.038352  0
C  C96  1  0.29949898  0.21304930  0.02682251  1  0.025048  0  -0.099442  -0.285326  0  3.949701  0
C  C97  1  0.20050112  0.28695031  0.52682187  1  0.025023  0  -0.099467  -0.285421  0  3.94957  0
C  C98  1  0.70050038  0.78695154  0.97317778  1  0.02504  0  -0.099459  -0.285379  0  3.949687  0
C  C99  1  0.79949921  0.71305052  0.47317793  1  0.025036  0  -0.099448  -0.285384  0  3.949526  0
C  C100  1  0.20661217  0.14314347  0.05270117  1  0.469454  0  0.0849  0.271708  0  4.076666  0
C  C101  1  0.29338703  0.35685683  0.55270096  1  0.469458  0  0.084896  0.271695  0  4.076644  0
C  C102  1  0.79338719  0.85685736  0.94729912  1  0.469453  0  0.084897  0.27169  0  4.076717  0
C  C103  1  0.70661233  0.64314400  0.44729983  1  0.469464  0  0.084837  0.271603  0  4.076596  0
C  C104  1  0.20505824  0.12136051  0.12017313  1  -0.082401  0  -0.109891  -0.232128  0  3.994997  0
C  C105  1  0.29494001  0.37863964  0.62017290  1  -0.082382  0  -0.109872  -0.232099  0  3.994968  0
C  C106  1  0.79494202  0.87863957  0.87982717  1  -0.082393  0  -0.109871  -0.232097  0  3.994954  0
C  C107  1  0.70505839  0.62136120  0.37982740  1  -0.082372  0  -0.10987  -0.232068  0  3.994917  0
C  C108  1  0.29867866  0.16844931  0.16106644  1  0.013634  0  -0.083342  -0.031192  0  4.022638  0
C  C109  1  0.20131862  0.33155075  0.66106624  1  0.013666  0  -0.083371  -0.031254  0  4.02269  0
C  C110  1  0.70132057  0.83155002  0.83893386  1  0.013643  0  -0.083368  -0.031221  0  4.022657  0
C  C111  1  0.79867971  0.66844934  0.33893405  1  0.013633  0  -0.08337  -0.031228  0  4.022667  0
C  C112  1  0.39414171  0.23589429  0.13605945  1  0.004736  0  -0.101364  -0.201303  0  3.998589  0
C  C113  1  0.10585737  0.26410432  0.63605883  1  0.004701  0  -0.101357  -0.201314  0  3.99868  0
C  C114  1  0.60585856  0.76410579  0.86394084  1  0.004738  0  -0.101336  -0.201296  0  3.998604  0
C  C115  1  0.89414000  0.73589577  0.36394049  1  0.004725  0  -0.101334  -0.201322  0  3.998644  0
C  C116  1  0.03555633  0.01943178  0.03045490  1  0.435555  0  -0.06572  0.00196  0  3.886813  0
C  C117  1  0.46444294  0.48056931  0.53045605  1  0.435527  0  -0.065726  0.002  0  3.886729  0
C  C118  1  0.96444393  0.98056830  0.96954491  1  0.405924  0  -0.065699  0.002025  0  3.886755  0
C  C119  1  0.53555464  0.51943302  0.46954523  1  0.405842  0  -0.065703  0.001917  0  3.886829  0
C  C120  1  0.98744890  0.64908011  0.99160005  1  0.91439  0  0.152008  0.084498  0  3.890376  0
C  C121  1  0.51254953  0.85091967  0.49159906  1  0.914369  0  0.152001  0.084443  0  3.890426  0
C  C122  1  0.01255136  0.35091997  0.00840123  1  0.91433  0  0.152  0.084429  0  3.890462  0
C  C123  1  0.48744873  0.14907967  0.50840124  1  0.914336  0  0.152009  0.084473  0  3.890398  0
C  C124  1  0.94521983  0.61163297  0.88920319  1  0.96408  0  0.16974  0.10211  0  3.848011  0
C  C125  1  0.55478155  0.88836777  0.38920217  1  0.964106  0  0.169709  0.102011  0  3.848073  0
C  C126  1  0.05478147  0.38836785  0.11079760  1  0.96411  0  0.169699  0.102064  0  3.848126  0
C  C127  1  0.44521967  0.11163230  0.61079764  1  0.964092  0  0.169736  0.102138  0  3.848109  0
C  C128  1  0.12155052  0.74542154  0.90682101  1  0.236644  0  0.093083  0.192081  0  4.036159  0
C  C129  1  0.37844974  0.75457737  0.40682014  1  0.236278  0  0.093095  0.192025  0  4.036161  0
C  C130  1  0.87845064  0.25457779  0.09317929  1  0.236654  0  0.093069  0.192016  0  4.036151  0
C  C131  1  0.62155052  0.24542271  0.59317868  1  0.236638  0  0.093088  0.19206  0  4.036117  0
C  C132  1  0.20041473  0.79411069  0.95396950  1  0.029548  0  -0.107709  -0.294271  0  3.950511  0
C  C133  1  0.29958560  0.70588886  0.45396818  1  0.02945  0  -0.107738  -0.294334  0  3.950585  0
C  C134  1  0.79958636  0.20588789  0.04603179  1  0.029569  0  -0.107731  -0.294302  0  3.950544  0
C  C135  1  0.70041459  0.29411047  0.54603065  1  0.029535  0  -0.107727  -0.294275  0  3.950496  0
C  C136  1  0.29594986  0.86673603  0.93403464  1  0.432375  0  0.0831  0.266309  0  4.079326  0
C  C137  1  0.20405040  0.63326282  0.43403387  1  0.432495  0  0.083177  0.266331  0  4.079344  0
C  C138  1  0.70405123  0.13326255  0.06596566  1  0.43247  0  0.08318  0.266323  0  4.079352  0
C  C139  1  0.79594979  0.36673652  0.56596593  1  0.432474  0  0.08314  0.266288  0  4.079387  0
C  C140  1  0.31225975  0.89036447  0.86732613  1  -0.015935  0  -0.107791  -0.230914  0  3.990461  0
C  C141  1  0.18774058  0.60963528  0.36732539  1  -0.015968  0  -0.107808  -0.230958  0  3.990421  0
C  C142  1  0.68774238  0.10963486  0.13267466  1  -0.015904  0  -0.107787  -0.230923  0  3.99043  0
C  C143  1  0.81226058  0.39036405  0.63267393  1  -0.015938  0  -0.107817  -0.230936  0  3.99049  0
C  C144  1  0.23301159  0.83931811  0.82112605  1  -0.041037  0  -0.083075  -0.022396  0  4.006724  0
C  C145  1  0.26698963  0.66068099  0.32112527  1  -0.041022  0  -0.083055  -0.022353  0  4.006729  0
C  C146  1  0.76698950  0.16068047  0.17887523  1  -0.041416  0  -0.083071  -0.022357  0  4.006764  0
C  C147  1  0.73301056  0.33931834  0.67887454  1  -0.041031  0  -0.08306  -0.022368  0  4.00671  0
C  C148  1  0.13731545  0.76728702  0.83980259  1  -0.000109  0  -0.104227  -0.211169  0  3.994891  0
C  C149  1  0.36268501  0.73271428  0.33980125  1  0.000344  0  -0.104203  -0.211132  0  3.994732  0
C  C150  1  0.86268578  0.23271305  0.16019869  1  -9.1e-05  0  -0.1042  -0.211122  0  3.994751  0
C  C151  1  0.63731628  0.26728654  0.66019757  1  -0.000115  0  -0.104232  -0.211187  0  3.994843  0
C  C152  1  0.46754058  0.98487505  0.96767119  1  0.40502  0  -0.063993  0.001861  0  3.891326  0
C  C153  1  0.03246085  0.51512596  0.46767152  1  0.433987  0  -0.063968  0.001916  0  3.891351  0
C  C154  1  0.53246071  0.01512578  0.03232960  1  0.434011  0  -0.063931  0.001939  0  3.891269  0
C  C155  1  0.96754148  0.48487560  0.53232976  1  0.405036  0  -0.063991  0.00183  0  3.891347  0
C  C156  1  0.89961502  0.18317619  0.82485412  1  0.035424  0  -0.019688  -0.033109  0  3.977317  0
C  C157  1  0.60038547  0.31682678  0.32485514  1  0.035331  0  -0.019696  -0.033047  0  3.977322  0
C  C158  1  0.10038724  0.81682463  0.17514568  1  0.035437  0  -0.019712  -0.03309  0  3.977243  0
C  C159  1  0.39961273  0.68317182  0.67514319  1  0.035561  0  -0.01973  -0.033126  0  3.977206  0
C  C160  1  0.03262955  0.20336754  0.83547894  1  -0.081214  0  -0.087733  -0.098695  0  3.975882  0
C  C161  1  0.46737098  0.29663585  0.33548099  1  -0.081113  0  -0.087723  -0.098775  0  3.976012  0
C  C162  1  0.96737367  0.79663328  0.16452037  1  -0.081177  0  -0.087712  -0.098693  0  3.975727  0
C  C163  1  0.53262729  0.70336350  0.66451833  1  -0.081385  0  -0.087759  -0.098782  0  3.975918  0
C  C164  1  0.12204606  0.14756849  0.80345535  1  -0.057155  0  -0.085773  -0.098562  0  3.990221  0
C  C165  1  0.37795440  0.35243422  0.30345685  1  -0.05699  0  -0.085755  -0.098461  0  3.990253  0
C  C166  1  0.87795523  0.85243233  0.19654396  1  -0.057171  0  -0.085795  -0.098535  0  3.990079  0
C  C167  1  0.62204393  0.64756587  0.69654296  1  -0.056985  0  -0.085736  -0.098412  0  3.990192  0
C  C168  1  0.07979859  0.07259770  0.75907488  1  -0.0389  0  -0.020004  -0.034536  0  3.989717  0
C  C169  1  0.42020166  0.42740287  0.25907532  1  -0.038917  0  -0.020024  -0.034626  0  3.989734  0
C  C170  1  0.92020174  0.92740313  0.24092394  1  -0.038812  0  -0.020051  -0.034675  0  3.989782  0
C  C171  1  0.57979570  0.57259722  0.74092449  1  -0.038871  0  -0.020077  -0.034841  0  3.989858  0
C  C172  1  0.94672694  0.05010890  0.75003058  1  -0.082282  0  -0.089974  -0.112722  0  3.99199  0
C  C173  1  0.55327223  0.44989051  0.25003048  1  -0.08219  0  -0.090001  -0.112727  0  3.991933  0
C  C174  1  0.05327339  0.94989193  0.24996922  1  -0.081834  0  -0.089926  -0.112642  0  3.991995  0
C  C175  1  0.44672410  0.55010885  0.74996981  1  -0.08168  0  -0.089929  -0.112613  0  3.99189  0
C  C176  1  0.85711349  0.10466957  0.78312261  1  -0.035638  0  -0.08591  -0.101958  0  3.995265  0
C  C177  1  0.64288678  0.39533125  0.28312257  1  -0.035713  0  -0.085916  -0.101975  0  3.995256  0
C  C178  1  0.14288794  0.89533275  0.21687719  1  -0.036142  0  -0.085979  -0.102028  0  3.995251  0
C  C179  1  0.35711052  0.60466810  0.71687674  1  -0.036158  0  -0.085922  -0.102021  0  3.995139  0
C  C180  1  0.80314820  0.24849384  0.85499909  1  1.545988  0  0.19462  0.555924  0  4.244919  0
C  C181  1  0.69685311  0.25150756  0.35500018  1  1.546008  0  0.194668  0.555924  0  4.244714  0
C  C182  1  0.19685516  0.75150847  0.14500072  1  1.54601  0  0.194604  0.55582  0  4.244726  0
C  C183  1  0.30314591  0.74848954  0.64499815  1  1.546157  0  0.194661  0.555977  0  4.244512  0
C  C184  1  0.17762775  0.02514338  0.71705018  1  1.561838  0  0.197516  0.553038  0  4.250523  0
C  C185  1  0.32237146  0.47485655  0.21705056  1  1.561833  0  0.197547  0.553123  0  4.250401  0
C  C186  1  0.82237251  0.97485670  0.28294815  1  1.561718  0  0.197542  0.553055  0  4.250456  0
C  C187  1  0.67762584  0.52514280  0.78295023  1  1.561846  0  0.197568  0.553198  0  4.250373  0
N  N188  1  0.63370942  0.40056488  0.97829634  1  -0.821504  0  -0.24613  -0.183761  0  3.573903  0
N  N189  1  0.86629094  0.09943624  0.47829612  1  -0.821505  0  -0.246154  -0.183786  0  3.573889  0
N  N190  1  0.36629091  0.59943595  0.02170396  1  -0.821507  0  -0.246131  -0.183726  0  3.573916  0
N  N191  1  0.13370939  0.90056458  0.52170271  1  -0.821464  0  -0.246135  -0.183743  0  3.573918  0
N  N192  1  0.62540681  0.45976722  0.03336044  1  -0.680908  0  -0.230297  -0.199044  0  3.191436  0
N  N193  1  0.87459338  0.04023342  0.53336054  1  -0.680912  0  -0.230292  -0.199051  0  3.1914  0
N  N194  1  0.37459352  0.54023361  0.96663986  1  -0.680897  0  -0.230288  -0.199038  0  3.191472  0
N  N195  1  0.12540495  0.95976667  0.46663976  1  -0.680909  0  -0.230282  -0.199057  0  3.191469  0
N  N196  1  0.48890299  0.32669582  0.04231039  1  -1.276358  0  -0.212768  -0.012584  0  3.766845  0
N  N197  1  0.01109615  0.17330376  0.54231034  1  -1.276254  0  -0.212757  -0.012574  0  3.766837  0
N  N198  1  0.51109631  0.67330427  0.95768991  1  -1.276266  0  -0.212744  -0.012482  0  3.76675  0
N  N199  1  0.98890315  0.82669633  0.45768947  1  -1.276352  0  -0.212734  -0.012514  0  3.766847  0
N  N200  1  0.86755921  0.55531761  0.92758434  1  -0.812401  0  -0.244353  -0.179973  0  3.559695  0
N  N201  1  0.63244128  0.94468380  0.42758375  1  -0.81246  0  -0.244327  -0.179896  0  3.559627  0
N  N202  1  0.13244119  0.44468397  0.07241596  1  -0.812461  0  -0.244324  -0.17991  0  3.55965  0
N  N203  1  0.36755905  0.05531703  0.57241654  1  -0.812463  0  -0.244349  -0.179975  0  3.559749  0
N  N204  1  0.89377826  0.57849556  0.99251258  1  -0.674225  0  -0.228383  -0.196611  0  3.196647  0
N  N205  1  0.60622016  0.92150421  0.49251202  1  -0.674163  0  -0.228344  -0.196558  0  3.196662  0
N  N206  1  0.10622103  0.42150452  0.00748771  1  -0.674194  0  -0.228374  -0.196622  0  3.19669  0
N  N207  1  0.39377900  0.07849438  0.50748827  1  -0.674173  0  -0.228388  -0.19664  0  3.196695  0
N  N208  1  0.02356740  0.67267469  0.92780758  1  -1.266869  0  -0.208607  -0.009375  0  3.747419  0
N  N209  1  0.47643389  0.82732492  0.42780664  1  -1.266859  0  -0.208659  -0.009318  0  3.747326  0
N  N210  1  0.97643382  0.32732539  0.07219321  1  -1.266878  0  -0.208635  -0.009318  0  3.747401  0
N  N211  1  0.52356727  0.17267441  0.57219316  1  -1.266866  0  -0.208686  -0.009403  0  3.747443  0
O  O212  1  0.12070492  0.10109064  0.00825329  1  -1.078381  0  -0.18178  -0.205355  0  2.536918  0
O  O213  1  0.37929421  0.39890901  0.50825304  1  -1.078366  0  -0.181787  -0.205341  0  2.536845  0
O  O214  1  0.87929527  0.89890869  0.99174750  1  -1.078392  0  -0.181805  -0.205391  0  2.536911  0
O  O215  1  0.62070426  0.60109257  0.49174824  1  -1.078421  0  -0.181786  -0.205313  0  2.536824  0
O  O216  1  0.36875860  0.90926393  0.98411543  1  -1.075463  0  -0.182159  -0.205633  0  2.542105  0
O  O217  1  0.13124380  0.59073704  0.48411470  1  -1.075559  0  -0.182218  -0.205618  0  2.542227  0
O  O218  1  0.63124366  0.09073689  0.01588536  1  -1.075531  0  -0.18222  -0.20563  0  2.54223  0
O  O219  1  0.86875749  0.40926378  0.51588510  1  -1.075572  0  -0.182159  -0.205609  0  2.542175  0
O  O220  1  0.85699268  0.32856678  0.88311736  1  -1.177145  0  -0.343316  -0.576177  0  2.394125  0
O  O221  1  0.64300767  0.17143456  0.38311804  1  -1.177128  0  -0.343379  -0.57623  0  2.394018  0
O  O222  1  0.14301164  0.67143552  0.11688293  1  -1.177087  0  -0.343348  -0.576178  0  2.394048  0
O  O223  1  0.35698860  0.82856405  0.61688226  1  -1.177064  0  -0.343352  -0.57618  0  2.393913  0
O  O224  1  0.68464970  0.22698923  0.85159997  1  -1.169181  0  -0.334854  -0.547024  0  2.06736  0
O  O225  1  0.81534968  0.27301218  0.35160055  1  -1.169208  0  -0.334835  -0.546997  0  2.067355  0
O  O226  1  0.31535283  0.77301458  0.14839935  1  -1.169285  0  -0.334785  -0.546944  0  2.067338  0
O  O227  1  0.18464831  0.72698417  0.64839581  1  -1.169444  0  -0.334854  -0.547063  0  2.067309  0
O  O228  1  0.29588812  0.03874835  0.72835879  1  -1.180958  0  -0.327855  -0.555468  0  2.121662  0
O  O229  1  0.20411117  0.46125229  0.22835967  1  -1.180979  0  -0.327869  -0.55549  0  2.121635  0
O  O230  1  0.70411304  0.96125098  0.27163905  1  -1.180985  0  -0.32789  -0.55549  0  2.121633  0
O  O231  1  0.79588530  0.53874855  0.77164062  1  -1.180902  0  -0.327845  -0.555472  0  2.121573  0
O  O232  1  0.12750155  0.97391437  0.66773628  1  -1.174109  0  -0.337621  -0.562287  0  2.371694  0
O  O233  1  0.37249766  0.52608435  0.16773613  1  -1.174085  0  -0.337632  -0.562299  0  2.371629  0
O  O234  1  0.87249658  0.02608348  0.33226352  1  -1.17405  0  -0.337595  -0.56222  0  2.371642  0
O  O235  1  0.62750053  0.47391425  0.83226417  1  -1.174143  0  -0.337649  -0.562335  0  2.371654  0
