# generated using pymatgen
data_YH15C11O6
_symmetry_space_group_name_H-M   'P 1'
_cell_length_a   8.15456158
_cell_length_b   10.69202576
_cell_length_c   14.76659610
_cell_angle_alpha   89.99985561
_cell_angle_beta   90.00015172
_cell_angle_gamma   90.00002099
_symmetry_Int_Tables_number   1
_chemical_formula_structural   YH15C11O6
_chemical_formula_sum   'Y4 H60 C44 O24'
_cell_volume   1287.48153467
_cell_formula_units_Z   4
loop_
 _symmetry_equiv_pos_site_id
 _symmetry_equiv_pos_as_xyz
  1  'x, y, z'
loop_
 _atom_site_type_symbol
 _atom_site_label
 _atom_site_symmetry_multiplicity
 _atom_site_fract_x
 _atom_site_fract_y
 _atom_site_fract_z
 _atom_site_occupancy
 _atom_site_hle17_bader_spin_density
 _atom_site_hle17_ddec_charge
 _atom_site_hle17_ddec_spin_density
 _atom_site_hle17_ddec_sum_bond_order
 _atom_site_hle17_magmom
 _atom_site_hse06_10hf_bader_spin_density
 _atom_site_hse06_10hf_ddec_charge
 _atom_site_hse06_10hf_ddec_spin_density
 _atom_site_hse06_10hf_ddec_sum_bond_order
 _atom_site_hse06_10hf_magmom
 _atom_site_hse06_bader_spin_density
 _atom_site_hse06_ddec_charge
 _atom_site_hse06_ddec_spin_density
 _atom_site_hse06_ddec_sum_bond_order
 _atom_site_hse06_magmom
 _atom_site_pbe_bader_spin_density
 _atom_site_pbe_cm5_charge
 _atom_site_pbe_ddec_charge
 _atom_site_pbe_ddec_spin_density
 _atom_site_pbe_ddec_sum_bond_order
 _atom_site_pbe_magmom
Y  Y0  1  0.92129429  0.69944859  0.49801257  1  0  2.036033  0  1.946346  0  0  1.835409  0  2.463805  0  0  1.90982  0  2.393934  0  0  1.343893  1.782049  0  2.511484  0
Y  Y1  1  0.57870433  0.30055226  0.99801485  1  0  2.036103  0  1.946242  0  0  1.835451  0  2.463748  0  0  1.909851  0  2.393899  0  0  1.343913  1.782089  0  2.511427  0
Y  Y2  1  0.07870201  0.19945052  0.00198476  1  0  2.036177  0  1.946157  0  0  1.83557  0  2.463541  0  0  1.909995  0  2.393655  0  0  1.343981  1.782215  0  2.511213  0
Y  Y3  1  0.42129564  0.80055002  0.50198662  1  0  2.036061  0  1.946308  0  0  1.83538  0  2.463856  0  0  1.909782  0  2.394009  0  0  1.343932  1.782019  0  2.511537  0
H  H4  1  0.72726228  0.67106718  0.19656925  1  0  0.088635  0  0.928182  0  0  0.099126  0  0.986245  0  0  0.101237  0  0.985502  0  0  0.104299  0.097624  0  0.986862  0
H  H5  1  0.77273489  0.32893284  0.69657041  1  0  0.088627  0  0.92817  0  0  0.099107  0  0.986243  0  0  0.101219  0  0.985499  0  0  0.104291  0.097605  0  0.98686  0
H  H6  1  0.27274259  0.17106906  0.30342813  1  0  0.088674  0  0.928149  0  0  0.099147  0  0.986224  0  0  0.101263  0  0.985478  0  0  0.104324  0.097647  0  0.986842  0
H  H7  1  0.22726019  0.82893137  0.80342898  1  0  0.088643  0  0.928176  0  0  0.099116  0  0.986253  0  0  0.101234  0  0.985505  0  0  0.104316  0.097615  0  0.986871  0
H  H8  1  0.40682333  0.79278208  0.22992324  1  0  0.080142  0  0.941809  0  0  0.098436  0  0.998707  0  0  0.100484  0  0.997739  0  0  0.093402  0.096851  0  0.999514  0
H  H9  1  0.09317174  0.20722047  0.72992571  1  0  0.08015  0  0.941786  0  0  0.098465  0  0.998686  0  0  0.100515  0  0.997716  0  0  0.093397  0.096881  0  0.999493  0
H  H10  1  0.59317546  0.29277857  0.27007324  1  0  0.080071  0  0.941835  0  0  0.098391  0  0.998729  0  0  0.100434  0  0.997764  0  0  0.093352  0.096806  0  0.999535  0
H  H11  1  0.90682083  0.70722774  0.77008067  1  0  0.08009  0  0.941885  0  0  0.098372  0  0.998773  0  0  0.100415  0  0.997809  0  0  0.093365  0.096787  0  0.999584  0
H  H12  1  0.46780369  0.69463246  0.13991346  1  0  0.069698  0  0.947293  0  0  0.088379  0  1.008876  0  0  0.089312  0  1.009038  0  0  0.090598  0.087669  0  1.008801  0
H  H13  1  0.03219340  0.30536760  0.63991567  1  0  0.069688  0  0.947235  0  0  0.088406  0  1.00881  0  0  0.089338  0  1.008971  0  0  0.090609  0.087694  0  1.008739  0
H  H14  1  0.53219751  0.19463423  0.36008387  1  0  0.06969  0  0.947272  0  0  0.088415  0  1.00883  0  0  0.089346  0  1.00899  0  0  0.090603  0.087703  0  1.008761  0
H  H15  1  0.96780779  0.80537364  0.86008918  1  0  0.069753  0  0.947274  0  0  0.088425  0  1.008841  0  0  0.089357  0  1.009001  0  0  0.090625  0.087714  0  1.008768  0
H  H16  1  0.64663870  0.01654001  0.26026829  1  0  0.110573  0  0.951183  0  0  0.133258  0  1.008773  0  0  0.13479  0  1.008981  0  0  0.092021  0.132101  0  1.008712  0
H  H17  1  0.85336367  0.98345698  0.76027175  1  0  0.110564  0  0.951135  0  0  0.133235  0  1.00874  0  0  0.134765  0  1.008949  0  0  0.092022  0.132078  0  1.008678  0
H  H18  1  0.35335997  0.51654254  0.23972937  1  0  0.110602  0  0.951152  0  0  0.133278  0  1.008748  0  0  0.13481  0  1.008956  0  0  0.092032  0.13212  0  1.008687  0
H  H19  1  0.14663515  0.48345530  0.73973074  1  0  0.110586  0  0.95109  0  0  0.13325  0  1.008704  0  0  0.13478  0  1.008917  0  0  0.092019  0.132093  0  1.008642  0
H  H20  1  0.85026945  0.05912604  0.22837412  1  0  0.111126  0  0.95113  0  0  0.132724  0  1.01166  0  0  0.134577  0  1.01141  0  0  0.093371  0.13137  0  1.01186  0
H  H21  1  0.64973155  0.94087761  0.72837533  1  0  0.111194  0  0.951123  0  0  0.13276  0  1.011676  0  0  0.134614  0  1.011424  0  0  0.093396  0.131405  0  1.011878  0
H  H22  1  0.14972433  0.55912653  0.27162618  1  0  0.11112  0  0.951091  0  0  0.132713  0  1.011627  0  0  0.134569  0  1.011376  0  0  0.093338  0.131357  0  1.011828  0
H  H23  1  0.35026971  0.44087027  0.77162724  1  0  0.111126  0  0.951092  0  0  0.132706  0  1.011639  0  0  0.134562  0  1.011384  0  0  0.093332  0.13135  0  1.011839  0
H  H24  1  0.81620918  0.95836520  0.32171705  1  0  0.093735  0  0.971372  0  0  0.114279  0  1.038132  0  0  0.115659  0  1.038187  0  0  0.087387  0.113243  0  1.038162  0
H  H25  1  0.68379227  0.04163532  0.82171929  1  0  0.093688  0  0.97139  0  0  0.11423  0  1.038154  0  0  0.115609  0  1.038212  0  0  0.087363  0.113195  0  1.038183  0
H  H26  1  0.18378355  0.45836936  0.17828251  1  0  0.093737  0  0.971395  0  0  0.114305  0  1.038129  0  0  0.115682  0  1.038189  0  0  0.087396  0.113268  0  1.03816  0
H  H27  1  0.31620881  0.54162776  0.67828401  1  0  0.093733  0  0.971395  0  0  0.114298  0  1.038122  0  0  0.115676  0  1.038179  0  0  0.087402  0.113259  0  1.038155  0
H  H28  1  0.55774093  0.51195628  0.60684392  1  0  0.030445  0  0.909444  0  0  0.039124  0  0.976458  0  0  0.039885  0  0.971728  0  0  0.127834  0.038235  0  0.98011  0
H  H29  1  0.94226193  0.48805247  0.10682784  1  0  0.030397  0  0.909458  0  0  0.039091  0  0.976453  0  0  0.03986  0  0.971706  0  0  0.127877  0.038206  0  0.980099  0
H  H30  1  0.44226136  0.01195977  0.89315469  1  0  0.030464  0  0.909441  0  0  0.039138  0  0.976459  0  0  0.039894  0  0.971733  0  0  0.12787  0.038253  0  0.98011  0
H  H31  1  0.05773571  0.98803754  0.39315948  1  0  0.030443  0  0.909357  0  0  0.039135  0  0.976382  0  0  0.039887  0  0.971647  0  0  0.127833  0.038249  0  0.980029  0
H  H32  1  0.00887434  0.80179243  0.25330545  1  0  0.101753  0  0.967662  0  0  0.120301  0  1.034852  0  0  0.12201  0  1.034619  0  0  0.086824  0.119042  0  1.035037  0
H  H33  1  0.49112697  0.19820537  0.75330649  1  0  0.101777  0  0.967608  0  0  0.120282  0  1.034844  0  0  0.121992  0  1.03461  0  0  0.086809  0.119025  0  1.035029  0
H  H34  1  0.99112445  0.30179754  0.24669508  1  0  0.101785  0  0.967663  0  0  0.120324  0  1.034857  0  0  0.12203  0  1.034626  0  0  0.086838  0.119067  0  1.03504  0
H  H35  1  0.50887296  0.69820324  0.74669179  1  0  0.101786  0  0.967601  0  0  0.120311  0  1.034815  0  0  0.122011  0  1.03459  0  0  0.086806  0.119053  0  1.035001  0
H  H36  1  0.04342658  0.90228806  0.15872637  1  0  0.117213  0  0.947443  0  0  0.137995  0  1.005664  0  0  0.140368  0  1.004663  0  0  0.092666  0.13625  0  1.006434  0
H  H37  1  0.45657551  0.09771194  0.65872754  1  0  0.117191  0  0.947474  0  0  0.137964  0  1.005696  0  0  0.140338  0  1.004695  0  0  0.092647  0.13622  0  1.006466  0
H  H38  1  0.95657716  0.40229096  0.34127194  1  0  0.117187  0  0.947531  0  0  0.137978  0  1.005738  0  0  0.14035  0  1.004737  0  0  0.092662  0.136234  0  1.006507  0
H  H39  1  0.54342437  0.59770763  0.84127159  1  0  0.117206  0  0.947493  0  0  0.137998  0  1.005697  0  0  0.140371  0  1.004695  0  0  0.09266  0.136254  0  1.006466  0
H  H40  1  0.98037080  0.74459781  0.14202599  1  0  0.090874  0  0.972111  0  0  0.11134  0  1.039501  0  0  0.112291  0  1.039886  0  0  0.083105  0.110621  0  1.039256  0
H  H41  1  0.51962855  0.25539959  0.64202488  1  0  0.090822  0  0.972244  0  0  0.111297  0  1.039613  0  0  0.112249  0  1.039998  0  0  0.083083  0.110578  0  1.03937  0
H  H42  1  0.01962674  0.24460037  0.35797261  1  0  0.090929  0  0.972196  0  0  0.111372  0  1.039592  0  0  0.112322  0  1.039977  0  0  0.083108  0.110652  0  1.039351  0
H  H43  1  0.48037017  0.75539801  0.85797125  1  0  0.090909  0  0.972239  0  0  0.111352  0  1.039632  0  0  0.112304  0  1.040015  0  0  0.083124  0.110633  0  1.039389  0
H  H44  1  0.44598383  0.88457790  0.05439323  1  0  0.070958  0  0.960004  0  0  0.088413  0  1.024874  0  0  0.088755  0  1.025764  0  0  0.090425  0.088117  0  1.024286  0
H  H45  1  0.05401775  0.11542339  0.55439717  1  0  0.070987  0  0.96  0  0  0.088424  0  1.024881  0  0  0.088765  0  1.025773  0  0  0.090437  0.088128  0  1.024294  0
H  H46  1  0.55401990  0.38457658  0.44560512  1  0  0.070945  0  0.960035  0  0  0.088378  0  1.024924  0  0  0.088721  0  1.025816  0  0  0.090413  0.088083  0  1.024337  0
H  H47  1  0.94597723  0.61542258  0.94560938  1  0  0.070927  0  0.959934  0  0  0.088396  0  1.024831  0  0  0.088737  0  1.025722  0  0  0.090406  0.0881  0  1.024242  0
H  H48  1  0.47814522  0.97830273  0.15030220  1  0  0.073056  0  0.94107  0  0  0.089915  0  1.000717  0  0  0.091165  0  1.000289  0  0  0.09137  0.088949  0  1.00113  0
H  H49  1  0.02186172  0.02169823  0.65030694  1  0  0.073011  0  0.941101  0  0  0.089891  0  1.000721  0  0  0.091143  0  1.00029  0  0  0.091371  0.088924  0  1.001134  0
H  H50  1  0.52185855  0.47830173  0.34969529  1  0  0.073054  0  0.941096  0  0  0.089929  0  1.000711  0  0  0.091181  0  1.000281  0  0  0.091379  0.088963  0  1.001123  0
H  H51  1  0.97814425  0.52170337  0.84970114  1  0  0.073099  0  0.941084  0  0  0.089973  0  1.000732  0  0  0.091225  0  1.000301  0  0  0.091409  0.089006  0  1.001143  0
H  H52  1  0.88296612  0.80965773  0.00711258  1  0  0.109324  0  0.964327  0  0  0.128875  0  1.027631  0  0  0.130153  0  1.028273  0  0  0.09339  0.127887  0  1.027315  0
H  H53  1  0.61702646  0.19034014  0.50711308  1  0  0.109345  0  0.964169  0  0  0.12888  0  1.027503  0  0  0.130159  0  1.02814  0  0  0.093374  0.127891  0  1.027187  0
H  H54  1  0.11703391  0.30965798  0.49288455  1  0  0.10934  0  0.964282  0  0  0.128891  0  1.027597  0  0  0.130171  0  1.028234  0  0  0.09338  0.127902  0  1.027281  0
H  H55  1  0.38297959  0.69033618  0.99288520  1  0  0.109326  0  0.964254  0  0  0.128862  0  1.027559  0  0  0.130138  0  1.028202  0  0  0.09341  0.127874  0  1.027242  0
H  H56  1  0.68552677  0.82665938  0.95861132  1  0  0.098498  0  0.952047  0  0  0.121723  0  1.012319  0  0  0.122771  0  1.012734  0  0  0.088519  0.120936  0  1.012052  0
H  H57  1  0.81447411  0.17333786  0.45861459  1  0  0.098451  0  0.952016  0  0  0.121732  0  1.012242  0  0  0.122782  0  1.012654  0  0  0.088495  0.120944  0  1.011976  0
H  H58  1  0.31448180  0.32665751  0.54138468  1  0  0.098496  0  0.951992  0  0  0.121747  0  1.012242  0  0  0.122797  0  1.012655  0  0  0.088519  0.12096  0  1.011976  0
H  H59  1  0.18553198  0.67334196  0.04138888  1  0  0.098525  0  0.952003  0  0  0.121751  0  1.012288  0  0  0.1228  0  1.012699  0  0  0.088509  0.120962  0  1.01202  0
H  H60  1  0.71926516  0.70955501  0.04164116  1  0  0.118817  0  0.96879  0  0  0.137477  0  1.033888  0  0  0.139755  0  1.033103  0  0  0.093192  0.13583  0  1.034497  0
H  H61  1  0.78073494  0.29043994  0.54164307  1  0  0.118839  0  0.968744  0  0  0.137485  0  1.033862  0  0  0.139742  0  1.033103  0  0  0.093188  0.135839  0  1.034472  0
H  H62  1  0.28073727  0.20956104  0.45835683  1  0  0.118827  0  0.968769  0  0  0.137473  0  1.033884  0  0  0.139733  0  1.033123  0  0  0.093184  0.135827  0  1.034495  0
H  H63  1  0.21927484  0.79043605  0.95835909  1  0  0.118838  0  0.968709  0  0  0.137485  0  1.033821  0  0  0.139732  0  1.033071  0  0  0.093162  0.135839  0  1.034432  0
C  C64  1  0.67149259  0.74718536  0.32414763  1  0  0.755254  0  3.780932  0  0  0.706433  0  4.075777  0  0  0.742966  0  4.064677  0  0  0.250024  0.681352  0  4.082769  0
C  C65  1  0.82850396  0.25281328  0.82415104  1  0  0.755198  0  3.780928  0  0  0.706332  0  4.075859  0  0  0.742862  0  4.064762  0  0  0.250012  0.681246  0  4.082853  0
C  C66  1  0.32850986  0.24719331  0.17584758  1  0  0.75495  0  3.781379  0  0  0.706247  0  4.07609  0  0  0.742757  0  4.065026  0  0  0.249965  0.681153  0  4.083092  0
C  C67  1  0.17148372  0.75280288  0.67585255  1  0  0.755151  0  3.78095  0  0  0.706368  0  4.075752  0  0  0.742891  0  4.064669  0  0  0.250101  0.681277  0  4.082761  0
C  C68  1  0.67175478  0.75782431  0.22221756  1  0  -0.191618  0  3.558841  0  0  -0.194036  0  3.785545  0  0  -0.201643  0  3.798923  0  0  -0.084076  -0.188939  0  3.776578  0
C  C69  1  0.82824251  0.24217562  0.72221828  1  0  -0.191652  0  3.558739  0  0  -0.19401  0  3.785462  0  0  -0.201617  0  3.798838  0  0  -0.084099  -0.188912  0  3.776497  0
C  C70  1  0.32824522  0.25782910  0.27778169  1  0  -0.191685  0  3.55869  0  0  -0.194072  0  3.785391  0  0  -0.201678  0  3.798765  0  0  -0.084137  -0.188974  0  3.776427  0
C  C71  1  0.17175252  0.74217235  0.77778330  1  0  -0.191525  0  3.558699  0  0  -0.193981  0  3.785539  0  0  -0.201592  0  3.798903  0  0  -0.084099  -0.188881  0  3.776575  0
C  C72  1  0.50191844  0.77845655  0.17848561  1  0  -0.109655  0  3.639122  0  0  -0.159303  0  3.900419  0  0  -0.159306  0  3.912367  0  0  -0.167445  -0.159049  0  3.892113  0
C  C73  1  0.99807863  0.22154446  0.67848797  1  0  -0.109636  0  3.63899  0  0  -0.159408  0  3.900419  0  0  -0.159408  0  3.912361  0  0  -0.167468  -0.159154  0  3.892116  0
C  C74  1  0.49808524  0.27845751  0.32151158  1  0  -0.109572  0  3.638983  0  0  -0.159336  0  3.900393  0  0  -0.159327  0  3.912331  0  0  -0.167426  -0.159081  0  3.892089  0
C  C75  1  0.00191762  0.72154753  0.82151839  1  0  -0.109773  0  3.639343  0  0  -0.159364  0  3.900601  0  0  -0.159354  0  3.912534  0  0  -0.167444  -0.159112  0  3.892297  0
C  C76  1  0.77292772  0.98240472  0.25337695  1  0  -0.348521  0  3.660263  0  0  -0.433341  0  3.899628  0  0  -0.436721  0  3.909937  0  0  -0.245336  -0.430741  0  3.89249  0
C  C77  1  0.72707462  0.01759510  0.75337996  1  0  -0.348553  0  3.660279  0  0  -0.433323  0  3.89966  0  0  -0.4367  0  3.909966  0  0  -0.245363  -0.430722  0  3.892519  0
C  C78  1  0.22706992  0.48240772  0.24662325  1  0  -0.348598  0  3.660211  0  0  -0.433405  0  3.899569  0  0  -0.436789  0  3.909883  0  0  -0.245336  -0.430805  0  3.892429  0
C  C79  1  0.27292400  0.51759010  0.74662406  1  0  -0.348591  0  3.660129  0  0  -0.433379  0  3.899485  0  0  -0.436758  0  3.909795  0  0  -0.245344  -0.430776  0  3.892343  0
C  C80  1  0.66188259  0.56495846  0.57833365  1  0  0.601809  0  3.861676  0  0  0.53211  0  4.162313  0  0  0.566342  0  4.153744  0  0  0.167588  0.508832  0  4.167638  0
C  C81  1  0.83812505  0.43504571  0.07832835  1  0  0.602101  0  3.861336  0  0  0.532423  0  4.161913  0  0  0.566658  0  4.153339  0  0  0.16774  0.50914  0  4.167239  0
C  C82  1  0.33812586  0.06495996  0.92166215  1  0  0.601752  0  3.861344  0  0  0.532046  0  4.162014  0  0  0.566284  0  4.153441  0  0  0.167516  0.508759  0  4.167353  0
C  C83  1  0.16188484  0.93503445  0.42166448  1  0  0.601669  0  3.861904  0  0  0.531924  0  4.162576  0  0  0.566174  0  4.154006  0  0  0.167476  0.508648  0  4.167903  0
C  C84  1  0.78587367  0.86878932  0.18979775  1  0  0.177276  0  3.464437  0  0  0.209039  0  3.686662  0  0  0.209961  0  3.707213  0  0  0.000978  0.208455  0  3.672545  0
C  C85  1  0.71412469  0.13121166  0.68980054  1  0  0.177221  0  3.464539  0  0  0.20897  0  3.686761  0  0  0.209891  0  3.707314  0  0  0.000969  0.208386  0  3.672646  0
C  C86  1  0.21412515  0.36879116  0.31020265  1  0  0.17744  0  3.464288  0  0  0.209107  0  3.686629  0  0  0.21003  0  3.70718  0  0  0.000972  0.208525  0  3.67251  0
C  C87  1  0.28587153  0.63120831  0.81020192  1  0  0.177436  0  3.464329  0  0  0.209154  0  3.686569  0  0  0.210079  0  3.707116  0  0  0.001048  0.20857  0  3.672448  0
C  C88  1  0.96530329  0.82722567  0.18535207  1  0  -0.343278  0  3.680563  0  0  -0.428421  0  3.920817  0  0  -0.431424  0  3.93093  0  0  -0.248053  -0.426067  0  3.913819  0
C  C89  1  0.53469750  0.17277345  0.68535385  1  0  -0.343214  0  3.680675  0  0  -0.428314  0  3.920932  0  0  -0.431318  0  3.931046  0  0  -0.247982  -0.425962  0  3.913935  0
C  C90  1  0.03469552  0.32722838  0.31464773  1  0  -0.343381  0  3.680759  0  0  -0.428474  0  3.921002  0  0  -0.431473  0  3.931117  0  0  -0.248072  -0.426124  0  3.914006  0
C  C91  1  0.46530363  0.67277014  0.81464515  1  0  -0.343364  0  3.680703  0  0  -0.428469  0  3.920964  0  0  -0.43146  0  3.931081  0  0  -0.248046  -0.426119  0  3.913969  0
C  C92  1  0.51964705  0.89271378  0.11616445  1  0  -0.141432  0  3.649755  0  0  -0.188874  0  3.908324  0  0  -0.188853  0  3.921082  0  0  -0.166267  -0.188701  0  3.89946  0
C  C93  1  0.98034973  0.10728652  0.61616767  1  0  -0.141394  0  3.649788  0  0  -0.188782  0  3.908338  0  0  -0.188766  0  3.921101  0  0  -0.16623  -0.188609  0  3.899476  0
C  C94  1  0.48035546  0.39271451  0.38383388  1  0  -0.141381  0  3.64975  0  0  -0.188784  0  3.90828  0  0  -0.188769  0  3.921039  0  0  -0.166243  -0.188612  0  3.899416  0
C  C95  1  0.01964402  0.60729031  0.88383889  1  0  -0.141359  0  3.649664  0  0  -0.188874  0  3.908252  0  0  -0.188856  0  3.921011  0  0  -0.166303  -0.188701  0  3.899385  0
C  C96  1  0.70445644  0.90078247  0.09567847  1  0  -0.024046  0  3.526893  0  0  0.001229  0  3.75266  0  0  -0.004735  0  3.769982  0  0  -0.010935  0.005236  0  3.740779  0
C  C97  1  0.79554269  0.09921509  0.59568279  1  0  -0.023904  0  3.526811  0  0  0.001366  0  3.752578  0  0  -0.004595  0  3.769902  0  0  -0.010888  0.005373  0  3.740698  0
C  C98  1  0.29554607  0.40078495  0.40431916  1  0  -0.024158  0  3.52699  0  0  0.001209  0  3.752689  0  0  -0.004753  0  3.770018  0  0  -0.010893  0.005218  0  3.740804  0
C  C99  1  0.20445719  0.59921700  0.90432311  1  0  -0.024292  0  3.527035  0  0  0.001088  0  3.752707  0  0  -0.004879  0  3.770035  0  0  -0.010966  0.005099  0  3.740817  0
C  C100  1  0.75136373  0.80538908  0.02172181  1  0  -0.324428  0  3.647858  0  0  -0.406817  0  3.886614  0  0  -0.409596  0  3.897226  0  0  -0.240385  -0.40463  0  3.879307  0
C  C101  1  0.74863136  0.19460686  0.52172385  1  0  -0.324485  0  3.647557  0  0  -0.406897  0  3.886333  0  0  -0.409663  0  3.89696  0  0  -0.240345  -0.404707  0  3.879027  0
C  C102  1  0.24863751  0.30539410  0.47827532  1  0  -0.324485  0  3.64782  0  0  -0.406907  0  3.886592  0  0  -0.409678  0  3.897218  0  0  -0.240385  -0.40472  0  3.879286  0
C  C103  1  0.25137469  0.69460573  0.97827916  1  0  -0.32441  0  3.647682  0  0  -0.406789  0  3.886437  0  0  -0.409542  0  3.897071  0  0  -0.240354  -0.404602  0  3.879126  0
C  C104  1  0.75661715  0.02678821  0.05726626  1  0  0.726754  0  3.758218  0  0  0.679199  0  4.04654  0  0  0.714967  0  4.03671  0  0  0.253032  0.654703  0  4.052622  0
C  C105  1  0.74338179  0.97321229  0.55727026  1  0  0.726649  0  3.758277  0  0  0.679174  0  4.046535  0  0  0.714934  0  4.036711  0  0  0.252979  0.654679  0  4.052622  0
C  C106  1  0.24339133  0.52679000  0.44273612  1  0  0.726868  0  3.758243  0  0  0.679258  0  4.04665  0  0  0.715012  0  4.036834  0  0  0.253022  0.654762  0  4.052734  0
C  C107  1  0.25661212  0.47321182  0.94273631  1  0  0.726861  0  3.758213  0  0  0.679284  0  4.046564  0  0  0.715044  0  4.036742  0  0  0.253055  0.654785  0  4.052645  0
O  O108  1  0.79683233  0.69801222  0.36214772  1  0  -0.723872  0  1.980326  0  0  -0.662427  0  2.236801  0  0  -0.692493  0  2.222985  0  0  -0.391658  -0.641322  0  2.245683  0
O  O109  1  0.70317176  0.30198816  0.86215153  1  0  -0.723926  0  1.980362  0  0  -0.662419  0  2.236818  0  0  -0.692483  0  2.223008  0  0  -0.39168  -0.64131  0  2.2457  0
O  O110  1  0.20317623  0.19801372  0.13784622  1  0  -0.723767  0  1.980423  0  0  -0.662362  0  2.236841  0  0  -0.692422  0  2.223036  0  0  -0.391673  -0.641251  0  2.245725  0
O  O111  1  0.29681962  0.80197700  0.63784655  1  0  -0.72384  0  1.980279  0  0  -0.66235  0  2.236689  0  0  -0.692412  0  2.222883  0  0  -0.391654  -0.64124  0  2.245575  0
O  O112  1  0.64186678  0.68257979  0.56172239  1  0  -0.732085  0  2.112785  0  0  -0.656864  0  2.376495  0  0  -0.689346  0  2.364751  0  0  -0.397295  -0.634009  0  2.383701  0
O  O113  1  0.85812973  0.31742537  0.06172478  1  0  -0.732097  0  2.112734  0  0  -0.656926  0  2.376465  0  0  -0.689409  0  2.364714  0  0  -0.397346  -0.634085  0  2.383701  0
O  O114  1  0.35812823  0.18257656  0.93827997  1  0  -0.731979  0  2.112756  0  0  -0.65678  0  2.376486  0  0  -0.689261  0  2.364739  0  0  -0.397231  -0.633918  0  2.383679  0
O  O115  1  0.14186784  0.81741967  0.43827910  1  0  -0.731902  0  2.113008  0  0  -0.656669  0  2.376733  0  0  -0.689153  0  2.364982  0  0  -0.397184  -0.633809  0  2.383918  0
O  O116  1  0.79664024  0.51212474  0.56303170  1  0  -0.581439  0  1.965923  0  0  -0.524094  0  2.197418  0  0  -0.5503  0  2.188505  0  0  -0.323999  -0.505987  0  2.203046  0
O  O117  1  0.70335873  0.48788977  0.06302204  1  0  -0.581648  0  1.96543  0  0  -0.524333  0  2.196945  0  0  -0.550544  0  2.188034  0  0  -0.324147  -0.506222  0  2.202573  0
O  O118  1  0.20335347  0.01211866  0.93696692  1  0  -0.581533  0  1.965522  0  0  -0.524173  0  2.196991  0  0  -0.550382  0  2.188071  0  0  -0.324025  -0.506063  0  2.202623  0
O  O119  1  0.29664137  0.98787383  0.43696731  1  0  -0.581466  0  1.965875  0  0  -0.524096  0  2.197372  0  0  -0.550303  0  2.188448  0  0  -0.324011  -0.505991  0  2.203001  0
O  O120  1  0.55059963  0.78983200  0.36900009  1  0  -0.718138  0  2.03171  0  0  -0.654745  0  2.291427  0  0  -0.685642  0  2.278574  0  0  -0.38544  -0.633026  0  2.2996  0
O  O121  1  0.94939591  0.21016181  0.86899833  1  0  -0.718078  0  2.031724  0  0  -0.654699  0  2.291443  0  0  -0.685597  0  2.278586  0  0  -0.385452  -0.632981  0  2.29962  0
O  O122  1  0.44939302  0.28985044  0.13099775  1  0  -0.71796  0  2.032072  0  0  -0.654665  0  2.291771  0  0  -0.685551  0  2.278927  0  0  -0.38537  -0.632942  0  2.299948  0
O  O123  1  0.05058931  0.71014966  0.63100263  1  0  -0.7181  0  2.031817  0  0  -0.654772  0  2.291535  0  0  -0.685663  0  2.278683  0  0  -0.385547  -0.63305  0  2.299716  0
O  O124  1  0.64652166  0.09867453  0.02498854  1  0  -0.725715  0  2.049353  0  0  -0.666149  0  2.315624  0  0  -0.697059  0  2.30465  0  0  -0.382362  -0.64445  0  2.322489  0
O  O125  1  0.85348204  0.90132608  0.52499079  1  0  -0.725645  0  2.049232  0  0  -0.666126  0  2.315501  0  0  -0.697041  0  2.304532  0  0  -0.382336  -0.644428  0  2.322367  0
O  O126  1  0.35348195  0.59867531  0.47501236  1  0  -0.725718  0  2.049428  0  0  -0.666151  0  2.315751  0  0  -0.697057  0  2.304783  0  0  -0.382383  -0.644454  0  2.322617  0
O  O127  1  0.14652042  0.40132640  0.97501388  1  0  -0.725745  0  2.049293  0  0  -0.666194  0  2.315599  0  0  -0.697107  0  2.304626  0  0  -0.382391  -0.644496  0  2.322464  0
O  O128  1  0.90913915  0.05131586  0.05403744  1  0  -0.697844  0  2.031747  0  0  -0.629733  0  2.280278  0  0  -0.660176  0  2.268069  0  0  -0.380673  -0.608448  0  2.288094  0
O  O129  1  0.59086347  0.94868839  0.55403584  1  0  -0.697715  0  2.031738  0  0  -0.629732  0  2.280349  0  0  -0.660156  0  2.268138  0  0  -0.380655  -0.608448  0  2.288168  0
O  O130  1  0.09086322  0.55131011  0.44596828  1  0  -0.697839  0  2.03165  0  0  -0.629741  0  2.280237  0  0  -0.66016  0  2.268018  0  0  -0.380647  -0.608455  0  2.288054  0
O  O131  1  0.40913657  0.44868796  0.94596536  1  0  -0.697811  0  2.031708  0  0  -0.629737  0  2.280299  0  0  -0.660162  0  2.268086  0  0  -0.380655  -0.608452  0  2.288114  0
