# generated using pymatgen
data_ZnH40C38N3O10
_symmetry_space_group_name_H-M   'P 1'
_cell_length_a   18.75667225
_cell_length_b   19.08323554
_cell_length_c   19.48815107
_cell_angle_alpha   89.16632256
_cell_angle_beta   89.91722133
_cell_angle_gamma   90.20067055
_symmetry_Int_Tables_number   1
_chemical_formula_structural   ZnH40C38N3O10
_chemical_formula_sum   'Zn2 H80 C76 N6 O20'
_cell_volume   6974.76072915
_cell_formula_units_Z   2
loop_
 _symmetry_equiv_pos_site_id
 _symmetry_equiv_pos_as_xyz
  1  'x, y, z'
loop_
 _atom_site_type_symbol
 _atom_site_label
 _atom_site_symmetry_multiplicity
 _atom_site_fract_x
 _atom_site_fract_y
 _atom_site_fract_z
 _atom_site_occupancy
 _atom_site_pbe_bader_charge
 _atom_site_pbe_bader_spin_density
 _atom_site_pbe_cm5_charge
 _atom_site_pbe_ddec_charge
 _atom_site_pbe_ddec_spin_density
 _atom_site_pbe_ddec_sum_bond_order
 _atom_site_pbe_magmom
Zn  Zn0  1  0.41765762  0.50302577  0.50126983  1  1.312679  0  0.684876  0.910133  0  2.264172  0
Zn  Zn1  1  0.58115886  0.50035015  0.50418531  1  1.348642  0  0.686655  0.909738  0  2.294805  0
H  H2  1  0.40720135  0.28794955  0.45853875  1  0.100089  0  0.107893  0.115083  0  1.006233  0
H  H3  1  0.36626776  0.48767965  0.71980733  1  0.079674  0  0.099931  0.10223  0  1.009882  0
H  H4  1  0.58839034  0.53931646  0.71481093  1  0.108227  0  0.105616  0.110757  0  1.007553  0
H  H5  1  0.37256848  0.50727451  0.28420290  1  0.098097  0  0.100502  0.103571  0  1.009309  0
H  H6  1  0.60025468  0.45689869  0.16384571  1  0.069193  0  0.096777  0.094432  0  1.007984  0
H  H7  1  0.36873402  0.48355479  0.84714349  1  0.03367  0  0.096078  0.093018  0  1.018744  0
H  H8  1  0.59339115  0.53291323  0.84215744  1  0.022046  0  0.095962  0.091207  0  1.020729  0
H  H9  1  0.37532399  0.50076938  0.15611245  1  0.07494  0  0.096576  0.0946  0  1.010628  0
H  H10  1  0.39434166  0.41899332  0.06341902  1  0.086452  0  0.099774  0.098656  0  1.001895  0
H  H11  1  0.58062506  0.55942128  0.94342679  1  0.049924  0  0.098806  0.096578  0  1.013632  0
H  H12  1  0.39183154  0.43004069  0.93766152  1  0.061837  0  0.098723  0.096444  0  1.013941  0
H  H13  1  0.63098516  0.71760927  0.45646380  1  0.100622  0  0.101734  0.104273  0  1.016732  0
H  H14  1  0.58490061  0.54490653  0.06876393  1  0.06016  0  0.099156  0.098055  0  1.005068  0
H  H15  1  0.23551124  0.67300802  0.41078073  1  0.054236  0  0.097135  0.05588  0  0.997993  0
H  H16  1  0.28757919  0.60587036  0.37173905  1  0.034464  0  0.099281  0.058421  0  0.979699  0
H  H17  1  0.39849955  0.67665527  0.38900166  1  0.074239  0  0.097103  0.142118  0  0.991523  0
H  H18  1  0.33492153  0.72298814  0.33757462  1  0.052049  0  0.093479  0.122837  0  0.993619  0
H  H19  1  0.34741476  0.74561059  0.42492407  1  0.025745  0  0.089594  0.123304  0  1.011085  0
H  H20  1  0.75957839  0.40848687  0.67227931  1  0.056155  0  0.097087  0.055678  0  0.999032  0
H  H21  1  0.70698271  0.36801906  0.60706624  1  0.040402  0  0.099498  0.059721  0  0.980949  0
H  H22  1  0.59609899  0.38919946  0.67504972  1  0.05307  0  0.097855  0.144172  0  0.98855  0
H  H23  1  0.65849575  0.33718617  0.72242539  1  0.033076  0  0.093093  0.122775  0  0.994778  0
H  H24  1  0.41775845  0.72609998  0.53444036  1  0.136088  0  0.1089  0.115779  0  0.994393  0
H  H25  1  0.64732031  0.42724311  0.74175522  1  0.009063  0  0.088833  0.12189  0  1.017248  0
H  H26  1  0.23596576  0.32612250  0.58615328  1  0.050582  0  0.097082  0.055846  0  0.998114  0
H  H27  1  0.28755283  0.39339945  0.62590359  1  0.026762  0  0.099629  0.059003  0  0.980631  0
H  H28  1  0.39899661  0.32489684  0.60773612  1  0.068111  0  0.097459  0.142952  0  0.991896  0
H  H29  1  0.33560230  0.27576394  0.65746488  1  0.023776  0  0.092717  0.122072  0  0.995186  0
H  H30  1  0.34918439  0.25609686  0.56944990  1  0.057166  0  0.089651  0.122745  0  1.010177  0
H  H31  1  0.76272829  0.59340034  0.33423590  1  0.060658  0  0.097172  0.056816  0  0.997948  0
H  H32  1  0.71121877  0.63120258  0.40156735  1  0.017787  0  0.09841  0.056723  0  0.990028  0
H  H33  1  0.59980948  0.61641867  0.33302493  1  0.090616  0  0.097302  0.142306  0  0.990512  0
H  H34  1  0.66395069  0.66897926  0.28797374  1  0.046736  0  0.092621  0.122281  0  0.994129  0
H  H35  1  0.62997653  0.27946706  0.50512541  1  0.088517  0  0.10274  0.106861  0  1.005881  0
H  H36  1  0.64964124  0.58034126  0.26428504  1  0.057079  0  0.088595  0.12153  0  1.01531  0
H  H37  1  0.23924886  0.68063042  0.55618870  1  0.079472  0  0.101504  0.064788  0  0.999358  0
H  H38  1  0.17158336  0.64302208  0.61013959  1  0.02304  0  0.095663  0.054374  0  0.96647  0
H  H39  1  0.08196277  0.72765368  0.55998812  1  0.052424  0  0.091032  0.122225  0  1.000759  0
H  H40  1  0.15496177  0.77351617  0.59728683  1  0.026969  0  0.095051  0.126134  0  0.993747  0
H  H41  1  0.14973342  0.76502139  0.50656185  1  0.032484  0  0.093287  0.126128  0  0.992514  0
H  H42  1  0.76061897  0.55776672  0.67728883  1  0.072635  0  0.100933  0.063647  0  0.997096  0
H  H43  1  0.83095121  0.60949844  0.64040436  1  0.039377  0  0.095939  0.054623  0  0.966603  0
H  H44  1  0.91759174  0.55481236  0.72457267  1  -0.000433  0  0.091403  0.122535  0  1.000967  0
H  H45  1  0.84700996  0.59850786  0.76771396  1  0.033212  0  0.094565  0.124638  0  0.995732  0
H  H46  1  0.40630633  0.15778708  0.43737109  1  0.092079  0  0.102236  0.098993  0  1.017909  0
H  H47  1  0.84647111  0.50540544  0.76221856  1  0.032583  0  0.092048  0.123797  0  0.995314  0
H  H48  1  0.23783402  0.32072898  0.44190246  1  0.039837  0  0.101519  0.064207  0  1.000441  0
H  H49  1  0.16927913  0.35776337  0.38915354  1  0.051792  0  0.095343  0.053741  0  0.96783  0
H  H50  1  0.08053783  0.27250332  0.44048122  1  0.023804  0  0.090954  0.122236  0  0.99987  0
H  H51  1  0.15337003  0.22686463  0.40300183  1  0.040996  0  0.095573  0.127035  0  0.992986  0
H  H52  1  0.14867857  0.23620856  0.49365621  1  0.06784  0  0.09304  0.125704  0  0.992587  0
H  H53  1  0.76127535  0.43972012  0.32694606  1  0.085304  0  0.101408  0.06458  0  0.995701  0
H  H54  1  0.83205275  0.38859915  0.36306913  1  0.01115  0  0.095254  0.053501  0  0.967835  0
H  H55  1  0.91799898  0.44480836  0.27859095  1  -0.004207  0  0.091164  0.122266  0  1.001698  0
H  H56  1  0.84752840  0.40039614  0.23573848  1  0.03926  0  0.094909  0.125921  0  0.994627  0
H  H57  1  0.63073509  0.84821759  0.43700414  1  0.09602  0  0.102328  0.099569  0  1.019893  0
H  H58  1  0.84641424  0.49345507  0.24163619  1  0.029659  0  0.09233  0.124518  0  0.994019  0
H  H59  1  0.00391974  0.43057817  0.67856363  1  0.067134  0  0.098107  0.060423  0  0.996609  0
H  H60  1  0.07300607  0.49503621  0.67009789  1  0.014991  0  0.093107  0.049368  0  0.972484  0
H  H61  1  0.16510890  0.40348139  0.69752348  1  0.034984  0  0.090843  0.121855  0  1.009022  0
H  H62  1  0.10139019  0.40915748  0.76518238  1  0.023845  0  0.092533  0.122778  0  0.997115  0
H  H63  1  0.09679809  0.33882136  0.70617503  1  0.034725  0  0.09218  0.12539  0  0.992719  0
H  H64  1  0.99762619  0.68036661  0.43142660  1  0.054443  0  0.098895  0.062175  0  1.000749  0
H  H65  1  0.92935685  0.67569616  0.49553916  1  0.016053  0  0.093335  0.050083  0  0.972752  0
H  H66  1  0.83681604  0.70508366  0.40697475  1  0.014375  0  0.090797  0.12204  0  1.006572  0
H  H67  1  0.90398423  0.77135391  0.40796162  1  0.04215  0  0.094059  0.125014  0  0.995606  0
H  H68  1  0.41676084  0.85709328  0.51631420  1  0.083494  0  0.102768  0.100177  0  1.01395  0
H  H69  1  0.90360926  0.70781927  0.34190943  1  0.039497  0  0.091979  0.124499  0  0.993156  0
H  H70  1  0.00281709  0.56465067  0.32383300  1  0.058516  0  0.098513  0.060783  0  0.995327  0
H  H71  1  0.07551624  0.50465540  0.33225740  1  0.014507  0  0.092895  0.048973  0  0.972663  0
H  H72  1  0.16190575  0.60239558  0.30393410  1  0.033751  0  0.091585  0.122684  0  1.009304  0
H  H73  1  0.09956914  0.59025925  0.23613735  1  0.043228  0  0.092983  0.12324  0  0.996543  0
H  H74  1  0.08935836  0.66154879  0.29333608  1  0.067443  0  0.09248  0.125496  0  0.993056  0
H  H75  1  0.99442332  0.31788342  0.56415570  1  0.045243  0  0.097942  0.060397  0  0.994139  0
H  H76  1  0.92255990  0.32799342  0.50455243  1  0.059699  0  0.092705  0.048747  0  0.973157  0
H  H77  1  0.83451094  0.29844217  0.59807513  1  0.03255  0  0.091026  0.12214  0  1.00861  0
H  H78  1  0.89691185  0.22910146  0.58797962  1  0.00651  0  0.093715  0.124144  0  0.996061  0
H  H79  1  0.63063613  0.14991789  0.48268409  1  0.08239  0  0.102365  0.101084  0  1.013221  0
H  H80  1  0.90562822  0.28783867  0.65773602  1  0.038508  0  0.092  0.124651  0  0.992447  0
H  H81  1  0.59607387  0.46347346  0.29231607  1  0.102921  0  0.105294  0.110465  0  1.011336  0
C  C82  1  0.47814530  0.50793833  0.63296129  1  1.57947  0  0.211366  0.589154  0  4.18564  0
C  C83  1  0.54265769  0.51923605  0.03990172  1  -0.046177  0  -0.094611  -0.131791  0  4.011158  0
C  C84  1  0.48516970  0.49691303  0.93013199  1  -0.015401  0  -0.010902  0.062856  0  4.007313  0
C  C85  1  0.48936862  0.48173933  0.07556854  1  -0.06439  0  -0.010459  0.065845  0  4.01844  0
C  C86  1  0.26664771  0.56084895  0.49123838  1  1.1224  0  0.197891  0.278514  0  4.115077  0
C  C87  1  0.73118582  0.48987517  0.56071149  1  1.102076  0  0.198669  0.280296  0  4.11258  0
C  C88  1  0.26656520  0.44038428  0.50700335  1  1.039031  0  0.198011  0.279077  0  4.113086  0
C  C89  1  0.73156843  0.50858257  0.44298770  1  1.108166  0  0.200131  0.284014  0  4.10714  0
C  C90  1  0.19225560  0.56371994  0.50005975  1  0.554565  0  0.074855  0.054682  0  4.073966  0
C  C91  1  0.80571627  0.49777604  0.56388122  1  0.550222  0  0.074319  0.053591  0  4.071447  0
C  C92  1  0.19205211  0.43727404  0.49908590  1  0.631125  0  0.074546  0.054825  0  4.07144  0
C  C93  1  0.48349948  0.49513555  0.37169625  1  1.594608  0  0.210878  0.588111  0  4.184625  0
C  C94  1  0.80599277  0.50007282  0.44004643  1  0.557109  0  0.074293  0.052725  0  4.071431  0
C  C95  1  0.15322245  0.50041672  0.49994454  1  -0.072402  0  -0.005885  -0.029967  0  4.004826  0
C  C96  1  0.84485422  0.49904203  0.50197793  1  0.064707  0  -0.004762  -0.027317  0  4.003611  0
C  C97  1  0.03668345  0.45700093  0.54730615  1  0.51511  0  0.069994  0.099516  0  4.071884  0
C  C98  1  0.96144764  0.54774030  0.45976934  1  0.541046  0  0.07061  0.101147  0  4.069758  0
C  C99  1  0.03604882  0.54334492  0.45484052  1  0.541796  0  0.069911  0.099895  0  4.068895  0
C  C100  1  0.96202445  0.45236573  0.54345606  1  0.544906  0  0.070177  0.100803  0  4.072313  0
C  C101  1  0.92338871  0.49975748  0.50179937  1  0.031659  0  -0.022863  -0.084369  0  4.024474  0
C  C102  1  0.07468681  0.50026154  0.50072397  1  0.038436  0  -0.022139  -0.081513  0  4.025162  0
C  C103  1  0.51758936  0.36740931  0.49877004  1  1.577026  0  0.210808  0.58205  0  4.191773  0
C  C104  1  0.48813734  0.47946517  0.15120533  1  0.02828  0  -0.008064  0.071842  0  4.016716  0
C  C105  1  0.52160510  0.63608953  0.49927843  1  1.591744  0  0.211398  0.582786  0  4.188673  0
C  C106  1  0.45527755  0.25648280  0.46416511  1  -0.001829  0  -0.08062  -0.089872  0  3.970218  0
C  C107  1  0.58462227  0.74907663  0.46936169  1  0.010395  0  -0.084908  -0.093026  0  3.981481  0
C  C108  1  0.46397263  0.75397366  0.51365286  1  -0.063709  0  -0.079696  -0.090579  0  3.976703  0
C  C109  1  0.58152232  0.25190477  0.49035331  1  0.013754  0  -0.084221  -0.091925  0  3.979158  0
C  C110  1  0.45494993  0.18484922  0.45242938  1  -0.058555  0  -0.085218  -0.112736  0  3.976349  0
C  C111  1  0.58457880  0.82120374  0.45887505  1  -0.048052  0  -0.08616  -0.111453  0  3.98065  0
C  C112  1  0.46353718  0.82619648  0.50343640  1  -0.008861  0  -0.084522  -0.11341  0  3.979662  0
C  C113  1  0.58181363  0.18039808  0.47790922  1  -0.025406  0  -0.08601  -0.113474  0  3.983395  0
C  C114  1  0.51827238  0.14614193  0.45961279  1  -0.019848  0  -0.009006  0.014752  0  4.015742  0
C  C115  1  0.48188063  0.50544758  0.85474015  1  -0.037346  0  -0.009092  0.070169  0  4.004689  0
C  C116  1  0.52326855  0.86017513  0.47439006  1  -0.054085  0  -0.009728  0.013372  0  4.013235  0
C  C117  1  0.51822045  0.29029987  0.48419040  1  -0.087966  0  -0.008588  -0.010425  0  3.932515  0
C  C118  1  0.52381037  0.71474989  0.49514552  1  -0.051469  0  -0.008327  -0.011982  0  3.938516  0
C  C119  1  0.52084333  0.93526812  0.45845510  1  0.909057  0  0.236424  0.247509  0  3.997433  0
C  C120  1  0.51830829  0.07030091  0.45001278  1  0.971599  0  0.237303  0.249018  0  3.997455  0
C  C121  1  0.54835275  0.47171802  0.26140314  1  -0.075961  0  -0.08353  -0.085527  0  3.988298  0
C  C122  1  0.41575395  0.49728696  0.74744996  1  0.002818  0  -0.089175  -0.092534  0  4.004726  0
C  C123  1  0.54083462  0.52696537  0.74487947  1  0.006529  0  -0.084022  -0.087822  0  3.99752  0
C  C124  1  0.42194775  0.49584956  0.25708731  1  -0.02932  0  -0.088824  -0.091044  0  4.001867  0
C  C125  1  0.55030074  0.46852916  0.19010818  1  -0.029334  0  -0.096915  -0.146432  0  4.003285  0
C  C126  1  0.48448033  0.48689349  0.29537148  1  -0.0604  0  -0.019764  -0.033762  0  3.96617  0
C  C127  1  0.41777447  0.49445018  0.81876194  1  -0.072854  0  -0.097909  -0.142698  0  4.001545  0
C  C128  1  0.54289435  0.52354174  0.81611965  1  -0.087059  0  -0.095904  -0.141219  0  3.999835  0
C  C129  1  0.42370593  0.49172203  0.18595205  1  -0.084684  0  -0.097331  -0.142975  0  4.0058  0
C  C130  1  0.28885366  0.64919676  0.40845982  1  0.374193  0  -0.063955  0.088294  0  3.880906  0
C  C131  1  0.34599496  0.70175339  0.38919594  1  -0.062868  0  -0.2431  -0.388975  0  3.961241  0
C  C132  1  0.70639946  0.40661775  0.64851372  1  0.374944  0  -0.064826  0.087334  0  3.88297  0
C  C133  1  0.64848632  0.38939869  0.69996262  1  -0.010996  0  -0.244092  -0.391735  0  3.96451  0
C  C134  1  0.28908986  0.35075658  0.58844577  1  0.387556  0  -0.063661  0.089725  0  3.878449  0
C  C135  1  0.34684149  0.29877781  0.60651786  1  -0.063668  0  -0.243346  -0.391494  0  3.964907  0
C  C136  1  0.70958047  0.59485062  0.35821513  1  0.392671  0  -0.064445  0.088509  0  3.881627  0
C  C137  1  0.47776993  0.51181730  0.70965126  1  -0.001413  0  -0.019429  -0.032445  0  3.968426  0
C  C138  1  0.65214862  0.61597601  0.30788816  1  -0.113935  0  -0.244045  -0.391888  0  3.965558  0
C  C139  1  0.18159809  0.67084339  0.56101257  1  0.386064  0  -0.067918  0.078244  0  3.907162  0
C  C140  1  0.13944129  0.73816029  0.55584260  1  -0.05186  0  -0.242048  -0.389994  0  3.986254  0
C  C141  1  0.81850917  0.56016603  0.66819136  1  0.386333  0  -0.067729  0.079656  0  3.907185  0
C  C142  1  0.85994129  0.55423780  0.73454919  1  -0.017036  0  -0.242182  -0.388234  0  3.987525  0
C  C143  1  0.18011059  0.33011868  0.43814799  1  0.411198  0  -0.06856  0.07791  0  3.908207  0
C  C144  1  0.13805466  0.26250685  0.44422623  1  -0.082275  0  -0.241988  -0.389914  0  3.983794  0
C  C145  1  0.81920692  0.43795272  0.33565449  1  0.395881  0  -0.067821  0.078862  0  3.906909  0
C  C146  1  0.86030320  0.44468260  0.26901236  1  -0.009567  0  -0.242016  -0.389043  0  3.986167  0
C  C147  1  0.06059074  0.43867355  0.66574857  1  0.415502  0  -0.068886  0.084549  0  3.906599  0
C  C148  1  0.43508535  0.45024397  0.03702848  1  -0.081066  0  -0.094764  -0.132201  0  4.012143  0
C  C149  1  0.10889563  0.39487055  0.71122339  1  -0.049324  0  -0.242793  -0.390543  0  3.984912  0
C  C150  1  0.94068414  0.66934265  0.44037245  1  0.427777  0  -0.069322  0.082007  0  3.908137  0
C  C151  1  0.89339148  0.71603759  0.39672069  1  -0.051372  0  -0.242524  -0.389369  0  3.983796  0
C  C152  1  0.05995835  0.56021395  0.33612941  1  0.423525  0  -0.068802  0.083753  0  3.907331  0
C  C153  1  0.10539667  0.60642556  0.28973057  1  -0.101231  0  -0.242845  -0.390018  0  3.983787  0
C  C154  1  0.93751602  0.33114451  0.55921469  1  0.384363  0  -0.068083  0.084823  0  3.905919  0
C  C155  1  0.89085280  0.28390062  0.60340797  1  -0.024038  0  -0.242571  -0.389077  0  3.98341  0
C  C156  1  0.54011071  0.52727326  0.96893486  1  -0.073753  0  -0.094826  -0.129181  0  4.005969  0
C  C157  1  0.43351190  0.45706035  0.96595885  1  -0.059663  0  -0.094132  -0.128285  0  4.004641  0
N  N158  1  0.58103963  0.03789029  0.43670212  1  -0.509266  0  -0.165183  -0.162935  0  3.21981  0
N  N159  1  0.45623792  0.96673138  0.45296705  1  -0.58831  0  -0.165113  -0.162467  0  3.221787  0
N  N160  1  0.58220934  0.96910410  0.44196701  1  -0.584873  0  -0.159845  -0.151467  0  3.232344  0
N  N161  1  0.45525323  0.03563327  0.44957447  1  -0.557298  0  -0.160613  -0.153402  0  3.231662  0
N  N162  1  0.30262939  0.50071788  0.49903036  1  -1.218488  0  -0.317138  -0.355955  0  3.512309  0
N  N163  1  0.69542528  0.49933514  0.50182154  1  -1.27412  0  -0.318364  -0.355579  0  3.516735  0
O  O164  1  0.41772132  0.49821817  0.60391926  1  -1.152145  0  -0.326894  -0.553859  0  2.319675  0
O  O165  1  0.69100915  0.47509544  0.61728271  1  -1.064036  0  -0.182448  -0.224198  0  2.509316  0
O  O166  1  0.30583878  0.38225555  0.52142936  1  -1.050614  0  -0.183895  -0.225456  0  2.510601  0
O  O167  1  0.69267410  0.52516696  0.38620600  1  -1.063595  0  -0.182923  -0.225121  0  2.504315  0
O  O168  1  0.15761348  0.62641107  0.50564922  1  -1.058364  0  -0.189823  -0.203466  0  2.588838  0
O  O169  1  0.84012486  0.50208898  0.62566442  1  -1.052866  0  -0.190907  -0.204918  0  2.588183  0
O  O170  1  0.15705759  0.37448096  0.49385892  1  -1.059599  0  -0.189282  -0.203629  0  2.587846  0
O  O171  1  0.84070244  0.49606056  0.37831154  1  -1.052735  0  -0.190662  -0.204548  0  2.587874  0
O  O172  1  0.07336595  0.41803599  0.59549078  1  -1.060333  0  -0.19548  -0.217564  0  2.567263  0
O  O173  1  0.92484504  0.59744960  0.42228883  1  -1.066444  0  -0.194177  -0.216374  0  2.572349  0
O  O174  1  0.07215084  0.58239688  0.40596528  1  -1.061112  0  -0.195506  -0.218562  0  2.573236  0
O  O175  1  0.54215801  0.48848146  0.40314338  1  -1.178065  0  -0.30983  -0.558577  0  2.372941  0
O  O176  1  0.92600292  0.40234945  0.58161392  1  -1.069364  0  -0.19527  -0.218264  0  2.573448  0
O  O177  1  0.42294721  0.50902883  0.39873915  1  -1.159262  0  -0.324989  -0.553128  0  2.324283  0
O  O178  1  0.53809506  0.51294648  0.60327981  1  -1.175301  0  -0.310745  -0.560127  0  2.372275  0
O  O179  1  0.45821403  0.39843887  0.49489226  1  -1.169488  0  -0.307027  -0.557645  0  2.365834  0
O  O180  1  0.58156914  0.60521833  0.49221917  1  -1.163457  0  -0.323871  -0.551874  0  2.329527  0
O  O181  1  0.46127694  0.60737023  0.50758389  1  -1.168338  0  -0.307265  -0.554577  0  2.342716  0
O  O182  1  0.57774063  0.39503295  0.51386272  1  -1.16518  0  -0.324718  -0.553565  0  2.321042  0
O  O183  1  0.30606439  0.61898567  0.47591082  1  -1.054699  0  -0.183632  -0.224964  0  2.500524  0
