# generated using pymatgen
data_ZnH7C12N5O4
_symmetry_space_group_name_H-M   'P 1'
_cell_length_a   10.66522310
_cell_length_b   16.21175475
_cell_length_c   19.40365908
_cell_angle_alpha   90.00005560
_cell_angle_beta   101.55589769
_cell_angle_gamma   89.99996763
_symmetry_Int_Tables_number   1
_chemical_formula_structural   ZnH7C12N5O4
_chemical_formula_sum   'Zn8 H56 C96 N40 O32'
_cell_volume   3286.92575841
_cell_formula_units_Z   8
loop_
 _symmetry_equiv_pos_site_id
 _symmetry_equiv_pos_as_xyz
  1  'x, y, z'
loop_
 _atom_site_type_symbol
 _atom_site_label
 _atom_site_symmetry_multiplicity
 _atom_site_fract_x
 _atom_site_fract_y
 _atom_site_fract_z
 _atom_site_occupancy
 _atom_site_pbe_bader_charge
 _atom_site_pbe_bader_spin_density
 _atom_site_pbe_cm5_charge
 _atom_site_pbe_ddec_charge
 _atom_site_pbe_ddec_spin_density
 _atom_site_pbe_ddec_sum_bond_order
 _atom_site_pbe_magmom
Zn  Zn0  1  0.95178350  0.34268631  0.99003160  1  1.261744  0  0.711073  0.783941  0  2.41756  0
Zn  Zn1  1  0.98933399  0.34599350  0.50193454  1  1.271602  0  0.715605  0.793121  0  2.414368  0
Zn  Zn2  1  0.54821533  0.84268660  0.00996767  1  1.261733  0  0.711065  0.783921  0  2.417631  0
Zn  Zn3  1  0.51066675  0.84599436  0.49806494  1  1.271597  0  0.715614  0.793139  0  2.41435  0
Zn  Zn4  1  0.04821446  0.65731441  0.00996662  1  1.261721  0  0.711072  0.783911  0  2.417637  0
Zn  Zn5  1  0.01066589  0.65400599  0.49806441  1  1.271565  0  0.715627  0.793178  0  2.414401  0
Zn  Zn6  1  0.45178455  0.15731350  0.99003282  1  1.26169  0  0.711067  0.783874  0  2.417691  0
Zn  Zn7  1  0.48933504  0.15400635  0.50193628  1  1.271565  0  0.71563  0.793132  0  2.414458  0
H  H8  1  0.73129806  0.10409101  0.01034600  1  0.214479  0  0.13051  0.153384  0  1.01759  0
H  H9  1  0.87715965  0.15251136  0.99901005  1  0.147517  0  0.123978  0.116466  0  1.032658  0
H  H10  1  0.81613306  0.21435839  0.85902182  1  0.22285  0  0.133326  0.133926  0  1.044903  0
H  H11  1  0.82889792  0.14371760  0.74778599  1  0.142168  0  0.130727  0.145604  0  0.957634  0
H  H12  1  0.72943887  0.91530226  0.84105408  1  0.122395  0  0.123766  0.136691  0  0.991003  0
H  H13  1  0.71938465  0.99332842  0.94793029  1  0.191329  0  0.140987  0.124026  0  1.007313  0
H  H14  1  0.74115464  0.07892383  0.64602278  1  0.17051  0  0.120111  0.131817  0  1.028797  0
H  H15  1  0.08723572  0.63586222  0.27818745  1  0.097735  0  0.10543  0.116834  0  0.995243  0
H  H16  1  0.01664971  0.33726467  0.23166244  1  0.094004  0  0.103209  0.11144  0  0.999378  0
H  H17  1  0.77296154  0.00119128  0.54242082  1  0.251305  0  0.138594  0.12533  0  1.033148  0
H  H18  1  0.88660892  0.78939595  0.66134938  1  0.263706  0  0.13476  0.136786  0  1.041097  0
H  H19  1  0.85310653  0.85893692  0.77108177  1  0.115296  0  0.125939  0.136619  0  0.968294  0
H  H20  1  0.96347916  0.83724448  0.54619032  1  0.142139  0  0.128421  0.129049  0  0.993568  0
H  H21  1  0.84064758  0.89803185  0.49302391  1  0.171911  0  0.13531  0.15278  0  0.982848  0
H  H22  1  0.76869900  0.60409111  0.98965392  1  0.214485  0  0.130513  0.153375  0  1.017582  0
H  H23  1  0.62283834  0.65251037  0.00099052  1  0.14749  0  0.12398  0.116452  0  1.032632  0
H  H24  1  0.68386776  0.71435878  0.14097911  1  0.222694  0  0.133325  0.133938  0  1.044881  0
H  H25  1  0.67110391  0.64371627  0.25221500  1  0.14219  0  0.130706  0.145557  0  0.957612  0
H  H26  1  0.77056279  0.41530108  0.15894505  1  0.122368  0  0.123771  0.136695  0  0.990979  0
H  H27  1  0.78061601  0.49332896  0.05206931  1  0.19135  0  0.140992  0.124024  0  1.007329  0
H  H28  1  0.75884722  0.57892382  0.35397712  1  0.170514  0  0.120098  0.131804  0  1.028799  0
H  H29  1  0.41276713  0.13586102  0.72181292  1  0.097778  0  0.105445  0.116849  0  0.995221  0
H  H30  1  0.48334537  0.83726197  0.76833620  1  0.094203  0  0.10323  0.111488  0  0.99932  0
H  H31  1  0.72703845  0.50119202  0.45757985  1  0.251679  0  0.13861  0.125335  0  1.033087  0
H  H32  1  0.61339569  0.28939689  0.33865100  1  0.263732  0  0.134779  0.136793  0  1.041097  0
H  H33  1  0.64689899  0.35893525  0.22891928  1  0.115255  0  0.125943  0.136609  0  0.968275  0
H  H34  1  0.53652063  0.33724373  0.45380905  1  0.142141  0  0.128419  0.129074  0  0.993563  0
H  H35  1  0.65935122  0.39803296  0.50697644  1  0.171903  0  0.135301  0.152821  0  0.982811  0
H  H36  1  0.26870182  0.89591033  0.98965553  1  0.214637  0  0.130535  0.153406  0  1.01753  0
H  H37  1  0.12284023  0.84748998  0.00099096  1  0.147537  0  0.123966  0.116433  0  1.032665  0
H  H38  1  0.18386777  0.78564110  0.14097878  1  0.222859  0  0.13333  0.133984  0  1.04485  0
H  H39  1  0.17110292  0.85628188  0.25221564  1  0.14215  0  0.130719  0.145595  0  0.957598  0
H  H40  1  0.27056197  0.08469661  0.15894703  1  0.122404  0  0.123774  0.136687  0  0.991039  0
H  H41  1  0.28061523  0.00667168  0.05207072  1  0.191355  0  0.141001  0.124044  0  1.007309  0
H  H42  1  0.25885194  0.92107565  0.35397845  1  0.170471  0  0.12011  0.131818  0  1.028779  0
H  H43  1  0.91276416  0.36414035  0.72181202  1  0.0978  0  0.105452  0.11685  0  0.995224  0
H  H44  1  0.98335017  0.66273851  0.76833547  1  0.09407  0  0.103316  0.111586  0  0.999271  0
H  H45  1  0.22704408  0.99880697  0.45758083  1  0.251592  0  0.138627  0.125422  0  1.032968  0
H  H46  1  0.11339000  0.21060107  0.33865152  1  0.263765  0  0.134769  0.136782  0  1.041087  0
H  H47  1  0.14689526  0.14106195  0.22891997  1  0.115328  0  0.125923  0.136565  0  0.968246  0
H  H48  1  0.03652072  0.16275500  0.45380914  1  0.142157  0  0.128425  0.129044  0  0.993528  0
H  H49  1  0.15935135  0.10196640  0.50697752  1  0.17187  0  0.135279  0.152731  0  0.982824  0
H  H50  1  0.23129705  0.39591022  0.01034461  1  0.214624  0  0.130512  0.153372  0  1.017566  0
H  H51  1  0.37715963  0.34749096  0.99900977  1  0.147545  0  0.123988  0.116461  0  1.032603  0
H  H52  1  0.31612925  0.28564009  0.85902107  1  0.222689  0  0.133337  0.134042  0  1.044725  0
H  H53  1  0.32889597  0.35628259  0.74778447  1  0.142161  0  0.13072  0.145599  0  0.957617  0
H  H54  1  0.22943996  0.58469841  0.84105422  1  0.12238  0  0.123751  0.136661  0  0.99103  0
H  H55  1  0.21938578  0.50667176  0.94792933  1  0.191356  0  0.140991  0.124038  0  1.007327  0
H  H56  1  0.24115075  0.42107504  0.64602265  1  0.170473  0  0.120112  0.131816  0  1.028785  0
H  H57  1  0.58723657  0.86413970  0.27818851  1  0.097785  0  0.105452  0.116852  0  0.99523  0
H  H58  1  0.51664973  0.16273751  0.23166429  1  0.094095  0  0.103225  0.111455  0  0.999306  0
H  H59  1  0.27295760  0.49880746  0.54241919  1  0.251609  0  0.138621  0.125404  0  1.032991  0
H  H60  1  0.38660898  0.71060137  0.66134899  1  0.263749  0  0.13478  0.136796  0  1.041112  0
H  H61  1  0.35310376  0.64106300  0.77108050  1  0.115304  0  0.125926  0.136582  0  0.968224  0
H  H62  1  0.46347829  0.66275452  0.54619082  1  0.142202  0  0.128431  0.129062  0  0.993558  0
H  H63  1  0.34064866  0.60196714  0.49302302  1  0.171886  0  0.135283  0.152773  0  0.982797  0
C  C64  1  0.71063958  0.22765007  0.97620267  1  0.997149  0  0.229723  0.299357  0  3.968483  0
C  C65  1  0.77424694  0.14585940  0.97682492  1  0.224075  0  -0.042595  -0.194526  0  3.833606  0
C  C66  1  0.79608449  0.14830632  0.85204288  1  0.34839  0  0.07411  0.047705  0  3.784033  0
C  C67  1  0.80332553  0.10762839  0.79022236  1  0.052481  0  -0.053847  -0.129269  0  3.872422  0
C  C68  1  0.78339291  0.02185667  0.78396063  1  -0.076604  0  0.034561  0.116269  0  3.928491  0
C  C69  1  0.75196081  0.98076340  0.84186885  1  0.110262  0  -0.057497  -0.143816  0  3.910583  0
C  C70  1  0.74382633  0.02372823  0.90245152  1  0.440315  0  0.08509  0.072518  0  3.801659  0
C  C71  1  0.79736579  0.97681741  0.71948962  1  0.007959  0  0.031714  0.113044  0  3.9317  0
C  C72  1  0.77660626  0.01605834  0.65388359  1  0.062123  0  -0.056283  -0.134454  0  3.897499  0
C  C73  1  0.07206073  0.53986578  0.20136284  1  0.031704  0  -0.014315  -0.048289  0  3.956866  0
C  C74  1  0.07321273  0.56987429  0.26892030  1  -0.091224  0  -0.084937  -0.126614  0  3.961625  0
C  C75  1  0.05569380  0.51755427  0.32325055  1  -0.004191  0  -0.006529  -0.02329  0  3.934692  0
C  C76  1  0.03231031  0.43322410  0.30879746  1  0.027384  0  -0.018715  -0.057231  0  3.970662  0
C  C77  1  0.03445339  0.40286584  0.24162967  1  -0.099259  0  -0.087542  -0.130833  0  3.973332  0
C  C78  1  0.05606185  0.45476457  0.18784164  1  -0.004098  0  -0.007053  -0.028319  0  3.941023  0
C  C79  1  0.07857156  0.60115646  0.14435673  1  1.556894  0  0.196994  0.569748  0  4.223108  0
C  C80  1  0.06974196  0.55451206  0.39542356  1  1.621394  0  0.205451  0.603094  0  4.221567  0
C  C81  1  0.00083803  0.37600392  0.36347879  1  1.569022  0  0.196426  0.5624  0  4.240045  0
C  C82  1  0.79282331  0.97324278  0.59449744  1  0.384991  0  0.086273  0.078096  0  3.784395  0
C  C83  1  0.85162572  0.85292517  0.66173428  1  0.335068  0  0.073465  0.056436  0  3.776306  0
C  C84  1  0.83389669  0.89315898  0.72182601  1  0.025945  0  -0.058955  -0.140018  0  3.902458  0
C  C85  1  0.86127189  0.85255746  0.53572675  1  0.248112  0  -0.03119  -0.179365  0  3.823097  0
C  C86  1  0.78526505  0.77652066  0.51285596  1  1.035218  0  0.233836  0.307908  0  3.963774  0
C  C87  1  0.06300778  0.41695986  0.11785885  1  1.6253  0  0.201304  0.595234  0  4.234345  0
C  C88  1  0.78935932  0.72765028  0.02379652  1  0.996983  0  0.229738  0.299376  0  3.968458  0
C  C89  1  0.72575105  0.64585902  0.02317462  1  0.224254  0  -0.042617  -0.194507  0  3.833533  0
C  C90  1  0.70391637  0.64830547  0.14795749  1  0.348573  0  0.074082  0.047638  0  3.784073  0
C  C91  1  0.69667440  0.60762700  0.20977685  1  0.052362  0  -0.053787  -0.129157  0  3.872415  0
C  C92  1  0.71660898  0.52185590  0.21603975  1  -0.076566  0  0.034538  0.116246  0  3.928533  0
C  C93  1  0.74803986  0.48076284  0.15813074  1  0.110345  0  -0.057517  -0.14383  0  3.910571  0
C  C94  1  0.75617461  0.52372731  0.09754824  1  0.440255  0  0.08508  0.072489  0  3.801719  0
C  C95  1  0.70263584  0.47681640  0.28051007  1  0.007441  0  0.031686  0.112928  0  3.931737  0
C  C96  1  0.72339467  0.51605771  0.34611617  1  0.06214  0  -0.056194  -0.134334  0  3.897436  0
C  C97  1  0.42794218  0.03986405  0.79863797  1  0.031693  0  -0.014357  -0.048236  0  3.956862  0
C  C98  1  0.42678825  0.06987248  0.73108084  1  -0.091192  0  -0.084908  -0.126594  0  3.961606  0
C  C99  1  0.44430530  0.01755301  0.67674931  1  -0.004154  0  -0.006532  -0.023282  0  3.934665  0
C  C100  1  0.46768758  0.93322255  0.69120208  1  0.027365  0  -0.018776  -0.057276  0  3.970727  0
C  C101  1  0.46554547  0.90286499  0.75836996  1  -0.099215  0  -0.087522  -0.130864  0  3.973329  0
C  C102  1  0.44393603  0.95476255  0.81215792  1  -0.004417  0  -0.00712  -0.028486  0  3.941173  0
C  C103  1  0.42143036  0.10115541  0.85564402  1  1.557036  0  0.196962  0.569667  0  4.223173  0
C  C104  1  0.43025711  0.05451133  0.60457633  1  1.621384  0  0.205427  0.603079  0  4.221631  0
C  C105  1  0.49915990  0.87600354  0.63652020  1  1.569031  0  0.196488  0.562453  0  4.240099  0
C  C106  1  0.70717640  0.47324252  0.40550204  1  0.384634  0  0.08623  0.078053  0  3.784327  0
C  C107  1  0.64837789  0.35292424  0.33826605  1  0.334815  0  0.073449  0.05637  0  3.776304  0
C  C108  1  0.66610786  0.39315797  0.27817393  1  0.026568  0  -0.058962  -0.139922  0  3.90233  0
C  C109  1  0.63872885  0.35255730  0.46427275  1  0.248135  0  -0.031227  -0.179521  0  3.823239  0
C  C110  1  0.71473573  0.27652049  0.48714554  1  1.035244  0  0.23388  0.307965  0  3.963973  0
C  C111  1  0.43699204  0.91695854  0.88214141  1  1.625336  0  0.201359  0.595412  0  4.23419  0
C  C112  1  0.28936126  0.77235004  0.02379742  1  0.997205  0  0.22976  0.299462  0  3.968406  0
C  C113  1  0.22575485  0.85414070  0.02317631  1  0.223875  0  -0.04259  -0.194446  0  3.833532  0
C  C114  1  0.20391730  0.85169255  0.14795886  1  0.348326  0  0.07406  0.04763  0  3.784045  0
C  C115  1  0.19667531  0.89237171  0.20977773  1  0.052464  0  -0.053828  -0.129239  0  3.872476  0
C  C116  1  0.21660888  0.97814158  0.21604008  1  -0.076557  0  0.034525  0.116239  0  3.928511  0
C  C117  1  0.24804003  0.01923670  0.15813227  1  0.110168  0  -0.057466  -0.143802  0  3.910611  0
C  C118  1  0.25617451  0.97627249  0.09755011  1  0.440317  0  0.085066  0.072547  0  3.801671  0
C  C119  1  0.20263888  0.02318145  0.28051192  1  0.007909  0  0.03169  0.112888  0  3.931692  0
C  C120  1  0.22339840  0.98394053  0.34611743  1  0.062354  0  -0.056191  -0.134312  0  3.897474  0
C  C121  1  0.92793819  0.46013740  0.79863600  1  0.03179  0  -0.014473  -0.048581  0  3.956809  0
C  C122  1  0.92678523  0.43012889  0.73107844  1  -0.091224  0  -0.084907  -0.126532  0  3.961604  0
C  C123  1  0.94430704  0.48244768  0.67674954  1  -0.004229  0  -0.006579  -0.023271  0  3.934683  0
C  C124  1  0.96769052  0.56677786  0.69120056  1  0.02756  0  -0.018809  -0.057383  0  3.970788  0
C  C125  1  0.96554553  0.59713673  0.75836969  1  -0.099229  0  -0.087587  -0.130956  0  3.973378  0
C  C126  1  0.94393803  0.54523924  0.81215577  1  -0.004523  0  -0.006936  -0.028081  0  3.940873  0
C  C127  1  0.92142641  0.39884364  0.85564304  1  1.557252  0  0.197056  0.569812  0  4.223073  0
C  C128  1  0.93025792  0.44548804  0.60457642  1  1.621418  0  0.205444  0.603098  0  4.221575  0
C  C129  1  0.99916281  0.62399741  0.63651975  1  1.569021  0  0.196588  0.562581  0  4.23996  0
C  C130  1  0.20718040  0.02675486  0.40550399  1  0.384615  0  0.086181  0.077895  0  3.784341  0
C  C131  1  0.14837512  0.14707247  0.33826736  1  0.334929  0  0.07348  0.056367  0  3.776242  0
C  C132  1  0.16610511  0.10683989  0.27817573  1  0.025901  0  -0.058948  -0.139805  0  3.902129  0
C  C133  1  0.13872990  0.14744141  0.46427344  1  0.24814  0  -0.031164  -0.179274  0  3.822809  0
C  C134  1  0.21473674  0.22347821  0.48714527  1  1.035221  0  0.233796  0.30791  0  3.963791  0
C  C135  1  0.93699210  0.58304333  0.88213907  1  1.625333  0  0.201268  0.595082  0  4.234489  0
C  C136  1  0.21063768  0.27235044  0.97620315  1  0.997199  0  0.229722  0.299337  0  3.968569  0
C  C137  1  0.27424405  0.35414108  0.97682380  1  0.22387  0  -0.042618  -0.194459  0  3.833594  0
C  C138  1  0.29607872  0.35169402  0.85204093  1  0.34872  0  0.074054  0.047583  0  3.784017  0
C  C139  1  0.30332165  0.39237064  0.79022220  1  0.052294  0  -0.053785  -0.129164  0  3.872468  0
C  C140  1  0.28338994  0.47814358  0.78396012  1  -0.076702  0  0.034522  0.11621  0  3.928576  0
C  C141  1  0.25196097  0.51923726  0.84186728  1  0.110301  0  -0.057472  -0.143744  0  3.910566  0
C  C142  1  0.24382527  0.47627280  0.90245019  1  0.440386  0  0.085076  0.072534  0  3.801666  0
C  C143  1  0.29736500  0.52318123  0.71948950  1  0.008004  0  0.031711  0.112919  0  3.931786  0
C  C144  1  0.27660521  0.48394054  0.65388381  1  0.062042  0  -0.056243  -0.134391  0  3.897489  0
C  C145  1  0.57206058  0.96013667  0.20136439  1  0.031733  0  -0.014418  -0.048414  0  3.956948  0
C  C146  1  0.57321451  0.93012823  0.26892152  1  -0.091227  0  -0.084919  -0.126565  0  3.96161  0
C  C147  1  0.55569458  0.98244771  0.32325067  1  -0.00423  0  -0.006582  -0.023313  0  3.934747  0
C  C148  1  0.53231134  0.06677755  0.30879934  1  0.027531  0  -0.018821  -0.057447  0  3.97104  0
C  C149  1  0.53445345  0.09713635  0.24163198  1  -0.099112  0  -0.087485  -0.130705  0  3.973428  0
C  C150  1  0.55606002  0.04523817  0.18784370  1  -0.004598  0  -0.006932  -0.028202  0  3.941003  0
C  C151  1  0.57857144  0.89884530  0.14435772  1  1.557225  0  0.197022  0.569692  0  4.22321  0
C  C152  1  0.56974373  0.94548815  0.39542376  1  1.621424  0  0.205454  0.60314  0  4.221462  0
C  C153  1  0.50083903  0.12399718  0.36348071  1  1.569044  0  0.196591  0.562563  0  4.24009  0
C  C154  1  0.29282061  0.52675635  0.59449711  1  0.384682  0  0.086235  0.077977  0  3.784333  0
C  C155  1  0.35162485  0.64707339  0.66173322  1  0.334953  0  0.073457  0.056368  0  3.776222  0
C  C156  1  0.33389489  0.60684028  0.72182482  1  0.026119  0  -0.058938  -0.139854  0  3.902216  0
C  C157  1  0.36127103  0.64744095  0.53572723  1  0.248067  0  -0.031187  -0.179368  0  3.823041  0
C  C158  1  0.28526415  0.72347899  0.51285547  1  1.035244  0  0.233857  0.307936  0  3.96379  0
C  C159  1  0.56300785  0.08304218  0.11786063  1  1.625318  0  0.201226  0.595076  0  4.234563  0
N  N160  1  0.58828608  0.24042416  0.98126791  1  -0.763277  0  -0.234941  -0.255636  0  3.532075  0
N  N161  1  0.57278224  0.32274159  0.98565749  1  -0.108477  0  -0.087313  -0.072892  0  3.277018  0
N  N162  1  0.68139384  0.35935204  0.98398658  1  -0.082206  0  -0.08573  -0.058486  0  3.203203  0
N  N163  1  0.76924383  0.30107456  0.97827188  1  -0.771211  0  -0.230282  -0.241812  0  3.493136  0
N  N164  1  0.65766026  0.76804473  0.50205598  1  -0.792786  0  -0.242974  -0.269151  0  3.533809  0
N  N165  1  0.63001057  0.69099445  0.47631240  1  -0.104211  0  -0.096409  -0.087713  0  3.232609  0
N  N166  1  0.73639343  0.65443515  0.47084568  1  -0.101871  0  -0.077564  -0.04216  0  3.243675  0
N  N167  1  0.83536929  0.70641348  0.49344435  1  -0.756317  0  -0.232218  -0.252044  0  3.464995  0
N  N168  1  0.76714847  0.10579152  0.90709148  1  -1.207102  0  -0.191976  0.127108  0  3.697537  0
N  N169  1  0.83195114  0.89366780  0.59927643  1  -1.204707  0  -0.193071  0.122914  0  3.686578  0
N  N170  1  0.91171281  0.74042432  0.01873180  1  -0.763284  0  -0.234931  -0.255637  0  3.532194  0
N  N171  1  0.92721469  0.82274051  0.01434259  1  -0.10844  0  -0.087341  -0.072921  0  3.277214  0
N  N172  1  0.81860403  0.85935100  0.01601312  1  -0.082191  0  -0.085701  -0.058467  0  3.203283  0
N  N173  1  0.73075407  0.80107541  0.02172726  1  -0.771255  0  -0.230291  -0.241812  0  3.493196  0
N  N174  1  0.84234053  0.26804514  0.49794551  1  -0.792807  0  -0.242924  -0.269071  0  3.533936  0
N  N175  1  0.86998931  0.19099551  0.52368790  1  -0.104217  0  -0.09643  -0.087754  0  3.232578  0
N  N176  1  0.76360647  0.15443502  0.52915459  1  -0.101872  0  -0.077579  -0.042212  0  3.243606  0
N  N177  1  0.66463058  0.20641274  0.50655596  1  -0.75632  0  -0.232206  -0.251977  0  3.465059  0
N  N178  1  0.73285146  0.60579122  0.09290824  1  -1.207081  0  -0.191965  0.127137  0  3.697493  0
N  N179  1  0.66804957  0.39366755  0.40072361  1  -1.204606  0  -0.193091  0.122948  0  3.686605  0
N  N180  1  0.41171379  0.75957656  0.01873207  1  -0.763329  0  -0.234957  -0.25572  0  3.532206  0
N  N181  1  0.42721476  0.67725974  0.01434011  1  -0.108474  0  -0.087314  -0.072823  0  3.277172  0
N  N182  1  0.31860412  0.64065053  0.01600959  1  -0.082122  0  -0.085696  -0.058503  0  3.203241  0
N  N183  1  0.23075317  0.69892616  0.02172573  1  -0.771241  0  -0.230335  -0.241899  0  3.493095  0
N  N184  1  0.34234058  0.23195414  0.49794617  1  -0.79283  0  -0.242915  -0.269127  0  3.533962  0
N  N185  1  0.36998931  0.30900380  0.52368913  1  -0.105436  0  -0.096437  -0.087768  0  3.232646  0
N  N186  1  0.26360645  0.34556371  0.52915431  1  -0.100599  0  -0.077555  -0.042108  0  3.243672  0
N  N187  1  0.16463059  0.29358539  0.50655563  1  -0.756328  0  -0.23224  -0.252108  0  3.465105  0
N  N188  1  0.23285237  0.89420858  0.09291016  1  -1.207056  0  -0.191953  0.127025  0  3.697486  0
N  N189  1  0.16805065  0.10632984  0.40072428  1  -1.204675  0  -0.193064  0.122961  0  3.686463  0
N  N190  1  0.08828515  0.25957702  0.98126694  1  -0.763381  0  -0.234969  -0.255696  0  3.532276  0
N  N191  1  0.07278328  0.17726083  0.98565718  1  -0.108491  0  -0.087326  -0.072928  0  3.277183  0
N  N192  1  0.18139585  0.14065095  0.98398686  1  -0.082048  0  -0.085694  -0.058433  0  3.20316  0
N  N193  1  0.26924581  0.19892593  0.97827323  1  -0.771234  0  -0.230251  -0.241734  0  3.493014  0
N  N194  1  0.15765935  0.73195434  0.50205344  1  -0.792796  0  -0.242925  -0.269137  0  3.533904  0
N  N195  1  0.13001153  0.80900460  0.47631115  1  -0.104204  0  -0.096468  -0.087779  0  3.232661  0
N  N196  1  0.23639437  0.84556446  0.47084549  1  -0.101873  0  -0.077562  -0.042162  0  3.243648  0
N  N197  1  0.33536930  0.79358674  0.49344454  1  -0.756317  0  -0.232218  -0.25203  0  3.465026  0
N  N198  1  0.26714459  0.39420950  0.90709080  1  -1.20715  0  -0.191979  0.126962  0  3.697544  0
N  N199  1  0.33195030  0.60633070  0.59927482  1  -1.204746  0  -0.193098  0.122951  0  3.686527  0
O  O200  1  0.95484321  0.38658850  0.08436397  1  -1.169169  0  -0.343335  -0.577774  0  2.337335  0
O  O201  1  0.16742212  0.41269564  0.09884065  1  -1.177996  0  -0.330238  -0.547969  0  2.116544  0
O  O202  1  0.00255363  0.29932006  0.35551841  1  -1.207863  0  -0.336441  -0.578271  0  2.17618  0
O  O203  1  0.97068558  0.41307564  0.41720993  1  -1.158501  0  -0.323982  -0.541231  0  2.390497  0
O  O204  1  0.17126596  0.54335226  0.43933219  1  -1.19142  0  -0.326534  -0.567685  0  2.164851  0
O  O205  1  0.97715603  0.60235311  0.40455862  1  -1.166121  0  -0.3337  -0.556585  0  2.316248  0
O  O206  1  0.12177433  0.67212904  0.15930398  1  -1.188941  0  -0.335819  -0.574206  0  2.150622  0
O  O207  1  0.03120319  0.57506734  0.08106536  1  -1.156883  0  -0.328701  -0.539986  0  2.334286  0
O  O208  1  0.54515751  0.88658860  0.91563606  1  -1.169185  0  -0.343323  -0.577787  0  2.337322  0
O  O209  1  0.33257578  0.91269500  0.90115991  1  -1.178023  0  -0.330276  -0.548064  0  2.11641  0
O  O210  1  0.49744530  0.79931906  0.64448114  1  -1.207882  0  -0.336474  -0.578307  0  2.176179  0
O  O211  1  0.52931130  0.91307660  0.58278867  1  -1.158513  0  -0.323981  -0.541225  0  2.390516  0
O  O212  1  0.32873120  0.04335091  0.56066748  1  -1.191467  0  -0.326509  -0.567689  0  2.16488  0
O  O213  1  0.52284390  0.10235129  0.59544109  1  -1.166082  0  -0.333683  -0.556538  0  2.316306  0
O  O214  1  0.37822946  0.17212737  0.84069704  1  -1.189118  0  -0.335769  -0.574175  0  2.150679  0
O  O215  1  0.46879970  0.07506450  0.91893547  1  -1.156814  0  -0.328709  -0.539975  0  2.334296  0
O  O216  1  0.04515667  0.61341407  0.91563343  1  -1.169171  0  -0.343332  -0.577706  0  2.337394  0
O  O217  1  0.83257775  0.58730570  0.90115727  1  -1.177965  0  -0.330237  -0.547939  0  2.116536  0
O  O218  1  0.99744816  0.70068066  0.64447817  1  -1.207886  0  -0.336487  -0.578276  0  2.176128  0
O  O219  1  0.02931525  0.58692261  0.58278809  1  -1.158557  0  -0.324042  -0.541361  0  2.390469  0
O  O220  1  0.82873105  0.45665031  0.56066593  1  -1.191463  0  -0.326537  -0.567735  0  2.164833  0
O  O221  1  0.02284193  0.39764761  0.59544012  1  -1.166078  0  -0.333685  -0.556543  0  2.316261  0
O  O222  1  0.87822459  0.32787353  0.84069384  1  -1.189261  0  -0.33584  -0.574216  0  2.150603  0
O  O223  1  0.96879669  0.42493523  0.91893307  1  -1.156881  0  -0.32874  -0.540012  0  2.334318  0
O  O224  1  0.45484333  0.11341335  0.08436557  1  -1.169147  0  -0.343337  -0.577711  0  2.337432  0
O  O225  1  0.66742123  0.08730449  0.09884285  1  -1.177953  0  -0.33021  -0.547923  0  2.116583  0
O  O226  1  0.50255363  0.20068104  0.35552080  1  -1.207878  0  -0.336472  -0.578283  0  2.176162  0
O  O227  1  0.47068763  0.08692227  0.41721276  1  -1.158555  0  -0.324063  -0.541311  0  2.390552  0
O  O228  1  0.67127059  0.95665104  0.43933426  1  -1.191501  0  -0.326552  -0.567745  0  2.164728  0
O  O229  1  0.47715789  0.89764819  0.40455961  1  -1.16606  0  -0.333672  -0.556549  0  2.316258  0
O  O230  1  0.62177329  0.82787273  0.15930481  1  -1.189208  0  -0.335799  -0.574137  0  2.150655  0
O  O231  1  0.53120018  0.92493437  0.08106657  1  -1.156873  0  -0.328768  -0.540024  0  2.334238  0
