# generated using pymatgen
data_FeH8Au2C14(BrN3)2
_symmetry_space_group_name_H-M   'P 1'
_cell_length_a   10.04096130
_cell_length_b   10.04095173
_cell_length_c   10.17921956
_cell_angle_alpha   75.98332055
_cell_angle_beta   75.98330630
_cell_angle_gamma   79.85885078
_symmetry_Int_Tables_number   1
_chemical_formula_structural   FeH8Au2C14(BrN3)2
_chemical_formula_sum   'Fe2 H16 Au4 C28 Br4 N12'
_cell_volume   958.52859427
_cell_formula_units_Z   2
loop_
 _symmetry_equiv_pos_site_id
 _symmetry_equiv_pos_as_xyz
  1  'x, y, z'
loop_
 _atom_site_type_symbol
 _atom_site_label
 _atom_site_symmetry_multiplicity
 _atom_site_fract_x
 _atom_site_fract_y
 _atom_site_fract_z
 _atom_site_occupancy
 _atom_site_pbe_bader_spin_density
 _atom_site_pbe_cm5_charge
 _atom_site_pbe_ddec_charge
 _atom_site_pbe_ddec_spin_density
 _atom_site_pbe_ddec_sum_bond_order
 _atom_site_pbe_magmom
Fe  Fe0  1  0.75748500  0.75748588  0.34406838  1  0  0.898389  0.57678  0  3.966503  0
Fe  Fe1  1  0.24251314  0.24251355  0.65593149  1  0  0.898386  0.576884  0  3.966276  0
H  H2  1  0.64806517  0.96906959  0.12884683  1  0  0.12229  0.09706  0  0.998855  0
H  H3  1  0.03093143  0.35193463  0.87115233  1  0  0.122272  0.097046  0  0.998867  0
H  H4  1  0.35193490  0.03093088  0.87115331  1  0  0.122287  0.097053  0  0.998873  0
H  H5  1  0.96906965  0.64806583  0.12884658  1  0  0.122285  0.097064  0  0.998847  0
H  H6  1  0.69398383  0.02967931  0.87050746  1  0  0.092087  0.113031  0  1.052832  0
H  H7  1  0.97032265  0.30601637  0.12949214  1  0  0.092079  0.112977  0  1.05288  0
H  H8  1  0.30601713  0.97032219  0.12949222  1  0  0.092093  0.113001  0  1.052849  0
H  H9  1  0.02967844  0.69398410  0.87050776  1  0  0.092063  0.112975  0  1.052856  0
H  H10  1  0.54290308  0.86461927  0.56069037  1  0  0.120705  0.09898  0  1.005434  0
H  H11  1  0.13537946  0.45709541  0.43930967  1  0  0.120698  0.09896  0  1.005464  0
H  H12  1  0.45709506  0.13538016  0.43930951  1  0  0.120703  0.098968  0  1.005456  0
H  H13  1  0.86461984  0.54290298  0.56069018  1  0  0.120707  0.098971  0  1.005446  0
H  H14  1  0.47930373  0.81504819  0.81732576  1  0  0.106218  0.125745  0  1.00691  0
H  H15  1  0.18495383  0.52069782  0.18267373  1  0  0.106228  0.125768  0  1.006914  0
H  H16  1  0.52069825  0.18495331  0.18267368  1  0  0.10622  0.125761  0  1.006887  0
H  H17  1  0.81504828  0.47930265  0.81732592  1  0  0.106222  0.125749  0  1.00694  0
Au  Au18  1  0.25861775  0.75275180  0.34497001  1  0  0.26512  0.003806  0  3.134358  0
Au  Au19  1  0.24724625  0.74137814  0.65502791  1  0  0.265129  0.003769  0  3.134231  0
Au  Au20  1  0.74137846  0.24724659  0.65502862  1  0  0.26513  0.003776  0  3.13417  0
Au  Au21  1  0.75275291  0.25862129  0.34497074  1  0  0.265135  0.003796  0  3.134116  0
C  C22  1  0.45429278  0.76582016  0.33610454  1  0  -0.014571  0.030322  0  3.924127  0
C  C23  1  0.23417913  0.54570610  0.66389723  1  0  -0.014549  0.030358  0  3.924135  0
C  C24  1  0.54570549  0.23417824  0.66389653  1  0  -0.014533  0.030356  0  3.924192  0
C  C25  1  0.76581888  0.45429437  0.33610341  1  0  -0.014567  0.030332  0  3.924169  0
C  C26  1  0.06322529  0.74307256  0.34779112  1  0  -0.012029  0.026107  0  3.920746  0
C  C27  1  0.25692238  0.93677904  0.65220360  1  0  -0.011946  0.026281  0  3.921095  0
C  C28  1  0.93677952  0.25692273  0.65220422  1  0  -0.011939  0.026296  0  3.921066  0
C  C29  1  0.74307794  0.06321936  0.34779404  1  0  -0.011964  0.026214  0  3.921177  0
C  C30  1  0.73216988  0.91160197  0.06764690  1  0  0.049509  0.099283  0  3.906216  0
C  C31  1  0.08839891  0.26783149  0.93235091  1  0  0.049496  0.099261  0  3.906161  0
C  C32  1  0.26783121  0.08839849  0.93235104  1  0  0.049499  0.099281  0  3.906178  0
C  C33  1  0.91160205  0.73217001  0.06764680  1  0  0.0495  0.099234  0  3.906199  0
C  C34  1  0.75764384  0.94438585  0.92401511  1  0  -0.098052  -0.185481  0  3.984193  0
C  C35  1  0.05561600  0.24235698  0.07598555  1  0  -0.098062  -0.185414  0  3.984178  0
C  C36  1  0.24235712  0.05561566  0.07598556  1  0  -0.098083  -0.18547  0  3.984214  0
C  C37  1  0.94438509  0.75764349  0.92401533  1  0  -0.098053  -0.185416  0  3.984183  0
C  C38  1  0.86565148  0.86565100  0.85095754  1  0  -0.004073  0.141224  0  3.959187  0
C  C39  1  0.13435050  0.13435050  0.14904091  1  0  -0.004055  0.141224  0  3.959227  0
C  C40  1  0.60075281  0.78022333  0.62105893  1  0  0.047809  0.098448  0  3.911501  0
C  C41  1  0.21977642  0.39924736  0.37894239  1  0  0.047809  0.098493  0  3.911534  0
C  C42  1  0.39924739  0.21977610  0.37894242  1  0  0.047802  0.09848  0  3.911553  0
C  C43  1  0.78022377  0.60075207  0.62105895  1  0  0.047802  0.098454  0  3.911508  0
C  C44  1  0.56598711  0.75244043  0.76488971  1  0  -0.097646  -0.194248  0  4.005518  0
C  C45  1  0.24756021  0.43401491  0.23511095  1  0  -0.097662  -0.194281  0  4.005491  0
C  C46  1  0.43401488  0.24756108  0.23511070  1  0  -0.097653  -0.194286  0  4.005515  0
C  C47  1  0.75244075  0.56598660  0.76488971  1  0  -0.097647  -0.194263  0  4.005539  0
C  C48  1  0.64439338  0.64439259  0.83815477  1  0  -0.00907  0.12993  0  4.005752  0
C  C49  1  0.35560874  0.35560788  0.16184782  1  0  -0.009083  0.129913  0  4.005733  0
Br  Br50  1  0.90078829  0.90078810  0.65584685  1  0  0.090869  0.019643  0  1.762237  0
Br  Br51  1  0.09921280  0.09921237  0.34415206  1  0  0.090873  0.019655  0  1.762226  0
Br  Br52  1  0.60781892  0.60781829  0.03357715  1  0  0.068665  -0.018102  0  1.62826  0
Br  Br53  1  0.39218320  0.39218218  0.96642643  1  0  0.068676  -0.018094  0  1.628255  0
N  N54  1  0.56970048  0.77107657  0.33729192  1  0  -0.387534  -0.291079  0  3.628034  0
N  N55  1  0.22892361  0.43029635  0.66270912  1  0  -0.387592  -0.291151  0  3.628016  0
N  N56  1  0.43029651  0.22892389  0.66270897  1  0  -0.387597  -0.291153  0  3.628057  0
N  N57  1  0.77107555  0.56970308  0.33729149  1  0  -0.3876  -0.29115  0  3.628119  0
N  N58  1  0.94610078  0.74229612  0.34969046  1  0  -0.38672  -0.294637  0  3.620891  0
N  N59  1  0.25770276  0.05388922  0.65030851  1  0  -0.386779  -0.294805  0  3.621397  0
N  N60  1  0.05388927  0.25770226  0.65030866  1  0  -0.386774  -0.294808  0  3.621401  0
N  N61  1  0.74229730  0.94611124  0.34969164  1  0  -0.386739  -0.294703  0  3.621492  0
N  N62  1  0.80675136  0.80675151  0.13971988  1  0  -0.330751  -0.153685  0  3.612671  0
N  N63  1  0.19324883  0.19324792  0.86027950  1  0  -0.330716  -0.153676  0  3.612583  0
N  N64  1  0.70701019  0.70701040  0.54911526  1  0  -0.328371  -0.150393  0  3.594272  0
N  N65  1  0.29298898  0.29298904  0.45088535  1  0  -0.328344  -0.150415  0  3.59434  0
