# generated using pymatgen
data_Ag2H4C5SN2O7
_symmetry_space_group_name_H-M   'P 1'
_cell_length_a   5.47370408
_cell_length_b   9.49833922
_cell_length_c   19.01364014
_cell_angle_alpha   90.00029431
_cell_angle_beta   89.99965956
_cell_angle_gamma   99.39648300
_symmetry_Int_Tables_number   1
_chemical_formula_structural   Ag2H4C5SN2O7
_chemical_formula_sum   'Ag8 H16 C20 S4 N8 O28'
_cell_volume   975.27598426
_cell_formula_units_Z   4
loop_
 _symmetry_equiv_pos_site_id
 _symmetry_equiv_pos_as_xyz
  1  'x, y, z'
loop_
 _atom_site_type_symbol
 _atom_site_label
 _atom_site_symmetry_multiplicity
 _atom_site_fract_x
 _atom_site_fract_y
 _atom_site_fract_z
 _atom_site_occupancy
 _atom_site_hle17_bader_spin_density
 _atom_site_hle17_ddec_charge
 _atom_site_hle17_ddec_spin_density
 _atom_site_hle17_ddec_sum_bond_order
 _atom_site_hle17_magmom
 _atom_site_hse06_10hf_bader_spin_density
 _atom_site_hse06_10hf_ddec_charge
 _atom_site_hse06_10hf_ddec_spin_density
 _atom_site_hse06_10hf_ddec_sum_bond_order
 _atom_site_hse06_10hf_magmom
 _atom_site_hse06_bader_spin_density
 _atom_site_hse06_ddec_charge
 _atom_site_hse06_ddec_spin_density
 _atom_site_hse06_ddec_sum_bond_order
 _atom_site_hse06_magmom
 _atom_site_pbe_bader_spin_density
 _atom_site_pbe_cm5_charge
 _atom_site_pbe_ddec_charge
 _atom_site_pbe_ddec_spin_density
 _atom_site_pbe_ddec_sum_bond_order
 _atom_site_pbe_magmom
Ag  Ag0  1  0.74466850  0.60169080  0.52021086  1  0  0.697213  0  1.30018  0  0  0.598949  0  1.719586  0  0  0.627939  0  1.662634  0  0  0.449966  0.57778  0  1.759811  0
Ag  Ag1  1  0.25532908  0.89831021  0.02021272  1  0  0.697228  0  1.300192  0  0  0.598982  0  1.719605  0  0  0.627969  0  1.66265  0  0  0.449972  0.577816  0  1.759833  0
Ag  Ag2  1  0.25532742  0.39831082  0.47978795  1  0  0.697247  0  1.300127  0  0  0.598997  0  1.719522  0  0  0.627983  0  1.66257  0  0  0.449982  0.577832  0  1.759749  0
Ag  Ag3  1  0.74466709  0.10168503  0.97979029  1  0  0.697186  0  1.300215  0  0  0.598939  0  1.719628  0  0  0.627926  0  1.662675  0  0  0.449953  0.577773  0  1.759856  0
Ag  Ag4  1  0.73001559  0.20437942  0.52344541  1  0  0.686685  0  1.186242  0  0  0.566949  0  1.603648  0  0  0.600103  0  1.547962  0  0  0.445081  0.54298  0  1.643105  0
Ag  Ag5  1  0.26998718  0.29562095  0.02344594  1  0  0.686703  0  1.186259  0  0  0.566952  0  1.603678  0  0  0.600107  0  1.547991  0  0  0.445089  0.542985  0  1.643132  0
Ag  Ag6  1  0.26998188  0.79561370  0.47655287  1  0  0.686674  0  1.186332  0  0  0.566918  0  1.603737  0  0  0.600072  0  1.54805  0  0  0.445074  0.542951  0  1.643192  0
Ag  Ag7  1  0.73001791  0.70438077  0.97655339  1  0  0.686688  0  1.18629  0  0  0.566944  0  1.603713  0  0  0.600095  0  1.548025  0  0  0.445084  0.542977  0  1.643168  0
H  H8  1  0.51518082  0.56167533  0.15326602  1  0  0.311615  0  0.88693  0  0  0.290696  0  0.949143  0  0  0.299079  0  0.942651  0  0  0.322324  0.284804  0  0.953737  0
H  H9  1  0.48482727  0.93832699  0.65326757  1  0  0.311539  0  0.886972  0  0  0.290721  0  0.949061  0  0  0.299103  0  0.942577  0  0  0.322301  0.284824  0  0.953663  0
H  H10  1  0.48483317  0.43832544  0.84673173  1  0  0.311664  0  0.886859  0  0  0.290779  0  0.949019  0  0  0.299156  0  0.942541  0  0  0.322348  0.284886  0  0.953617  0
H  H11  1  0.51517259  0.06167573  0.34673228  1  0  0.311645  0  0.886926  0  0  0.290729  0  0.949129  0  0  0.299109  0  0.942642  0  0  0.322328  0.284838  0  0.953722  0
H  H12  1  0.74714667  0.43553143  0.22262901  1  0  0.108426  0  0.962201  0  0  0.112747  0  1.031737  0  0  0.116307  0  1.027861  0  0  0.12806  0.109954  0  1.035109  0
H  H13  1  0.25286388  0.06447188  0.72263476  1  0  0.10839  0  0.96228  0  0  0.112765  0  1.031777  0  0  0.116293  0  1.027933  0  0  0.128057  0.109951  0  1.035165  0
H  H14  1  0.25286025  0.56447031  0.77736926  1  0  0.108385  0  0.962261  0  0  0.112691  0  1.031822  0  0  0.116269  0  1.027928  0  0  0.128054  0.109917  0  1.035172  0
H  H15  1  0.74713728  0.93552874  0.27736720  1  0  0.108382  0  0.962273  0  0  0.112722  0  1.031803  0  0  0.11627  0  1.027939  0  0  0.128054  0.109926  0  1.035174  0
H  H16  1  0.19825158  0.74385722  0.32569012  1  0  0.136476  0  0.950363  0  0  0.142697  0  1.016544  0  0  0.14698  0  1.014525  0  0  0.108901  0.13964  0  1.018292  0
H  H17  1  0.80173512  0.75613150  0.82568907  1  0  0.136407  0  0.950387  0  0  0.142659  0  1.016532  0  0  0.146941  0  1.014513  0  0  0.108866  0.139603  0  1.018282  0
H  H18  1  0.80174539  0.25614122  0.67430606  1  0  0.136437  0  0.950491  0  0  0.142685  0  1.016641  0  0  0.146968  0  1.014622  0  0  0.10889  0.139628  0  1.018384  0
H  H19  1  0.19826027  0.24386798  0.17431079  1  0  0.136463  0  0.950387  0  0  0.142705  0  1.016533  0  0  0.146988  0  1.014515  0  0  0.1089  0.139649  0  1.018282  0
H  H20  1  0.22751799  0.70622054  0.19570757  1  0  0.114444  0  0.94214  0  0  0.122297  0  1.004423  0  0  0.125786  0  1.000536  0  0  0.127539  0.11975  0  1.00731  0
H  H21  1  0.77247940  0.79377884  0.69570877  1  0  0.114474  0  0.942231  0  0  0.122331  0  1.00449  0  0  0.12582  0  1.000604  0  0  0.127549  0.119783  0  1.007377  0
H  H22  1  0.77248657  0.29377904  0.80428755  1  0  0.114492  0  0.942141  0  0  0.122316  0  1.004452  0  0  0.125803  0  1.000569  0  0  0.127568  0.119767  0  1.00734  0
H  H23  1  0.22751809  0.20622173  0.30429161  1  0  0.114474  0  0.942234  0  0  0.122327  0  1.004497  0  0  0.125815  0  1.000611  0  0  0.127554  0.119781  0  1.007385  0
C  C24  1  0.62751927  0.50038230  0.24858741  1  0  0.155083  0  3.680133  0  0  0.100374  0  3.936803  0  0  0.11439  0  3.951478  0  0  0.05875  0.090836  0  3.928098  0
C  C25  1  0.37248479  0.99961870  0.74858774  1  0  0.155027  0  3.680159  0  0  0.100242  0  3.936901  0  0  0.114279  0  3.951597  0  0  0.058737  0.090724  0  3.928193  0
C  C26  1  0.37248373  0.49961833  0.75141139  1  0  0.155064  0  3.680196  0  0  0.100361  0  3.936916  0  0  0.11436  0  3.951583  0  0  0.058741  0.090809  0  3.928199  0
C  C27  1  0.62751270  0.00038187  0.25141159  1  0  0.155157  0  3.680249  0  0  0.100412  0  3.936958  0  0  0.114436  0  3.951642  0  0  0.05879  0.090876  0  3.92825  0
C  C28  1  0.61548579  0.51231732  0.32051527  1  0  -0.295822  0  3.6637  0  0  -0.266308  0  3.917864  0  0  -0.285481  0  3.938369  0  0  -0.031832  -0.253614  0  3.904277  0
C  C29  1  0.38451465  0.98768214  0.82051976  1  0  -0.295769  0  3.663458  0  0  -0.266261  0  3.917668  0  0  -0.285429  0  3.938166  0  0  -0.031756  -0.253572  0  3.904074  0
C  C30  1  0.38451354  0.48768327  0.67948248  1  0  -0.295817  0  3.663671  0  0  -0.266325  0  3.917872  0  0  -0.285497  0  3.938383  0  0  -0.031809  -0.253635  0  3.904289  0
C  C31  1  0.61548414  0.01231631  0.17948325  1  0  -0.295875  0  3.663688  0  0  -0.266374  0  3.917872  0  0  -0.285554  0  3.938365  0  0  -0.031816  -0.253679  0  3.904283  0
C  C32  1  0.46762188  0.60738348  0.35232795  1  0  0.447442  0  3.820073  0  0  0.418292  0  4.078549  0  0  0.444713  0  4.087481  0  0  0.110337  0.40045  0  4.071697  0
C  C33  1  0.53237091  0.89260980  0.85232720  1  0  0.447434  0  3.819773  0  0  0.418332  0  4.078216  0  0  0.444745  0  4.087153  0  0  0.110333  0.400497  0  4.071354  0
C  C34  1  0.53237405  0.39261814  0.64767138  1  0  0.447398  0  3.819891  0  0  0.418292  0  4.07836  0  0  0.444706  0  4.087296  0  0  0.110336  0.400453  0  4.0715  0
C  C35  1  0.46762552  0.10738650  0.14767318  1  0  0.447527  0  3.819741  0  0  0.418409  0  4.078195  0  0  0.444853  0  4.087089  0  0  0.110342  0.400568  0  4.071337  0
C  C36  1  0.32249517  0.67557314  0.30451302  1  0  -0.240643  0  3.64875  0  0  -0.258682  0  3.913247  0  0  -0.273485  0  3.931779  0  0  -0.099482  -0.248864  0  3.901459  0
C  C37  1  0.67749609  0.82441756  0.80451657  1  0  -0.240546  0  3.648408  0  0  -0.258605  0  3.912873  0  0  -0.273406  0  3.931406  0  0  -0.09947  -0.248792  0  3.901091  0
C  C38  1  0.67750152  0.32442422  0.69548158  1  0  -0.240542  0  3.648635  0  0  -0.258631  0  3.913119  0  0  -0.273434  0  3.931653  0  0  -0.099456  -0.248811  0  3.901327  0
C  C39  1  0.32250297  0.17558196  0.19548697  1  0  -0.240662  0  3.648636  0  0  -0.258709  0  3.913084  0  0  -0.273518  0  3.931607  0  0  -0.099493  -0.24889  0  3.9013  0
C  C40  1  0.33632412  0.65595709  0.23328148  1  0  0.166065  0  3.630074  0  0  0.122185  0  3.888116  0  0  0.135084  0  3.901707  0  0  0.056541  0.113682  0  3.87919  0
C  C41  1  0.66367392  0.84404051  0.73327985  1  0  0.165895  0  3.629939  0  0  0.122019  0  3.888012  0  0  0.134916  0  3.901603  0  0  0.056542  0.113518  0  3.879085  0
C  C42  1  0.66367861  0.34404248  0.76671837  1  0  0.165915  0  3.629892  0  0  0.122094  0  3.88792  0  0  0.134994  0  3.901503  0  0  0.056506  0.113591  0  3.878995  0
C  C43  1  0.33632384  0.15596113  0.26672000  1  0  0.166038  0  3.629987  0  0  0.122159  0  3.888039  0  0  0.135058  0  3.901629  0  0  0.056556  0.113654  0  3.879117  0
S  S44  1  0.77714770  0.40086412  0.37126855  1  0  1.310689  0  5.649811  0  0  1.208849  0  6.162979  0  0  1.258935  0  6.14293  0  0  0.496609  1.174207  0  6.175465  0
S  S45  1  0.22285239  0.09913827  0.87126865  1  0  1.310706  0  5.649624  0  0  1.208911  0  6.162742  0  0  1.258995  0  6.142694  0  0  0.496605  1.174271  0  6.175227  0
S  S46  1  0.22284403  0.59913532  0.62873288  1  0  1.310652  0  5.649882  0  0  1.208813  0  6.163052  0  0  1.258898  0  6.143007  0  0  0.496558  1.174172  0  6.175533  0
S  S47  1  0.77714197  0.90086439  0.12873225  1  0  1.310683  0  5.649618  0  0  1.208857  0  6.162777  0  0  1.258943  0  6.142731  0  0  0.49659  1.174213  0  6.175262  0
N  N48  1  0.49121433  0.57135273  0.20662354  1  0  -0.234462  0  3.479085  0  0  -0.16408  0  3.711948  0  0  -0.182608  0  3.726321  0  0  -0.360251  -0.151812  0  3.702485  0
N  N49  1  0.50878917  0.92865001  0.70662976  1  0  -0.234199  0  3.479303  0  0  -0.163898  0  3.71217  0  0  -0.182413  0  3.726523  0  0  -0.360204  -0.151631  0  3.702694  0
N  N50  1  0.50879286  0.42865008  0.79337264  1  0  -0.234376  0  3.47911  0  0  -0.164033  0  3.711978  0  0  -0.182555  0  3.726342  0  0  -0.360247  -0.151769  0  3.702523  0
N  N51  1  0.49121199  0.07135060  0.29337483  1  0  -0.234456  0  3.479171  0  0  -0.164078  0  3.712059  0  0  -0.182606  0  3.726429  0  0  -0.360255  -0.151808  0  3.702594  0
N  N52  1  0.82824587  0.91389163  0.42916023  1  0  0.704724  0  4.101853  0  0  0.728132  0  4.394136  0  0  0.758323  0  4.402335  0  0  0.095347  0.724338  0  4.363813  0
N  N53  1  0.17175424  0.58610774  0.92915881  1  0  0.704792  0  4.101972  0  0  0.72817  0  4.394288  0  0  0.758365  0  4.402482  0  0  0.095319  0.724388  0  4.363952  0
N  N54  1  0.17175739  0.08611007  0.57084068  1  0  0.704768  0  4.102096  0  0  0.728329  0  4.39418  0  0  0.758528  0  4.40237  0  0  0.09532  0.724437  0  4.364001  0
N  N55  1  0.82824875  0.41389289  0.07083999  1  0  0.704673  0  4.102252  0  0  0.728058  0  4.394558  0  0  0.758252  0  4.402757  0  0  0.095335  0.724282  0  4.36422  0
O  O56  1  0.93818684  0.49751876  0.41981841  1  0  -0.710283  0  2.191914  0  0  -0.640526  0  2.500365  0  0  -0.667373  0  2.480423  0  0  -0.346587  -0.621207  0  2.513286  0
O  O57  1  0.06181398  0.00248300  0.91982224  1  0  -0.710284  0  2.191775  0  0  -0.640552  0  2.500252  0  0  -0.667399  0  2.480312  0  0  -0.346546  -0.621234  0  2.513172  0
O  O58  1  0.06180829  0.50247965  0.58018039  1  0  -0.710202  0  2.191771  0  0  -0.640469  0  2.500246  0  0  -0.667317  0  2.480311  0  0  -0.346559  -0.621152  0  2.513164  0
O  O59  1  0.93818771  0.99751974  0.08018077  1  0  -0.710282  0  2.191843  0  0  -0.640504  0  2.500252  0  0  -0.667352  0  2.480315  0  0  -0.346558  -0.621185  0  2.513173  0
O  O60  1  0.91529543  0.32542340  0.32287308  1  0  -0.621606  0  1.929052  0  0  -0.572781  0  2.170687  0  0  -0.595563  0  2.159585  0  0  -0.326055  -0.556316  0  2.177429  0
O  O61  1  0.08471547  0.17458187  0.82287835  1  0  -0.6215  0  1.92915  0  0  -0.572702  0  2.170795  0  0  -0.595482  0  2.159688  0  0  -0.326001  -0.556239  0  2.177532  0
O  O62  1  0.08469707  0.67457179  0.67712678  1  0  -0.62159  0  1.929215  0  0  -0.572754  0  2.170842  0  0  -0.595535  0  2.15974  0  0  -0.326045  -0.556293  0  2.177585  0
O  O63  1  0.91528542  0.82541768  0.17712571  1  0  -0.621568  0  1.929014  0  0  -0.572755  0  2.170654  0  0  -0.595536  0  2.159548  0  0  -0.326046  -0.556292  0  2.177395  0
O  O64  1  0.58082482  0.30486338  0.41038368  1  0  -0.699327  0  2.074575  0  0  -0.631617  0  2.369885  0  0  -0.658297  0  2.350914  0  0  -0.344351  -0.612506  0  2.382581  0
O  O65  1  0.41918662  0.19513629  0.91038631  1  0  -0.699389  0  2.074341  0  0  -0.631721  0  2.369713  0  0  -0.658398  0  2.350741  0  0  -0.344452  -0.612612  0  2.38241  0
O  O66  1  0.41916927  0.69513821  0.58961617  1  0  -0.699354  0  2.074548  0  0  -0.631632  0  2.369871  0  0  -0.658313  0  2.350902  0  0  -0.344347  -0.612521  0  2.382563  0
O  O67  1  0.58081584  0.80486221  0.08961407  1  0  -0.699341  0  2.074382  0  0  -0.631658  0  2.369746  0  0  -0.658336  0  2.350772  0  0  -0.344403  -0.612548  0  2.382443  0
O  O68  1  0.46366818  0.62866067  0.41931252  1  0  -0.633831  0  2.229427  0  0  -0.550375  0  2.517486  0  0  -0.583006  0  2.505744  0  0  -0.335952  -0.527068  0  2.524696  0
O  O69  1  0.53632318  0.87133213  0.91931539  1  0  -0.633836  0  2.228993  0  0  -0.550431  0  2.517076  0  0  -0.583051  0  2.505324  0  0  -0.335988  -0.52713  0  2.52429  0
O  O70  1  0.53632985  0.37134204  0.58068365  1  0  -0.63384  0  2.229231  0  0  -0.550409  0  2.517299  0  0  -0.583028  0  2.505549  0  0  -0.335965  -0.527102  0  2.524512  0
O  O71  1  0.46366985  0.12866519  0.08068551  1  0  -0.633881  0  2.229088  0  0  -0.55045  0  2.517157  0  0  -0.583093  0  2.505405  0  0  -0.335982  -0.527144  0  2.524371  0
O  O72  1  0.62859340  0.96660394  0.42677482  1  0  -0.477849  0  1.859715  0  0  -0.451324  0  2.11238  0  0  -0.468868  0  2.100024  0  0  -0.183746  -0.444775  0  2.114376  0
O  O73  1  0.37140675  0.53339541  0.92677396  1  0  -0.477863  0  1.859681  0  0  -0.451339  0  2.112367  0  0  -0.468894  0  2.100018  0  0  -0.183734  -0.444786  0  2.114346  0
O  O74  1  0.37140462  0.03339876  0.57322872  1  0  -0.477773  0  1.859737  0  0  -0.451379  0  2.112404  0  0  -0.468948  0  2.10007  0  0  -0.183697  -0.444798  0  2.114462  0
O  O75  1  0.62859598  0.46660415  0.07322536  1  0  -0.477802  0  1.85978  0  0  -0.451313  0  2.112505  0  0  -0.46887  0  2.10016  0  0  -0.183747  -0.444767  0  2.114487  0
O  O76  1  0.88299785  0.85818481  0.48767652  1  0  -0.502735  0  1.957662  0  0  -0.471578  0  2.241864  0  0  -0.49396  0  2.228782  0  0  -0.209616  -0.461285  0  2.244076  0
O  O77  1  0.11700281  0.64181403  0.98767640  1  0  -0.50279  0  1.957785  0  0  -0.471611  0  2.241975  0  0  -0.493994  0  2.228893  0  0  -0.209629  -0.461324  0  2.244185  0
O  O78  1  0.11700881  0.14181587  0.51232438  1  0  -0.502776  0  1.957764  0  0  -0.471669  0  2.241925  0  0  -0.49405  0  2.228839  0  0  -0.209646  -0.461349  0  2.244179  0
O  O79  1  0.88299782  0.35818445  0.01232398  1  0  -0.502766  0  1.957825  0  0  -0.471584  0  2.242007  0  0  -0.493964  0  2.228925  0  0  -0.209641  -0.4613  0  2.244218  0
O  O80  1  0.96841035  0.91640315  0.37708171  1  0  -0.422345  0  1.753059  0  0  -0.404902  0  1.961999  0  0  -0.418996  0  1.95543  0  0  -0.161598  -0.400979  0  1.959303  0
O  O81  1  0.03159277  0.58359685  0.87708211  1  0  -0.422375  0  1.753153  0  0  -0.404929  0  1.96212  0  0  -0.419025  0  1.955552  0  0  -0.161568  -0.401011  0  1.959419  0
O  O82  1  0.03159107  0.08359853  0.62291815  1  0  -0.422384  0  1.753138  0  0  -0.404986  0  1.962026  0  0  -0.419077  0  1.955446  0  0  -0.161593  -0.401026  0  1.959365  0
O  O83  1  0.96841023  0.41640378  0.12291775  1  0  -0.422324  0  1.753242  0  0  -0.404853  0  1.962175  0  0  -0.418947  0  1.955607  0  0  -0.161568  -0.400934  0  1.959475  0
