# generated using pymatgen
data_CuH16C6N2O5
_symmetry_space_group_name_H-M   'P 1'
_cell_length_a   7.73669048
_cell_length_b   8.78996644
_cell_length_c   8.83791840
_cell_angle_alpha   105.65938499
_cell_angle_beta   94.54080705
_cell_angle_gamma   110.71881476
_symmetry_Int_Tables_number   1
_chemical_formula_structural   CuH16C6N2O5
_chemical_formula_sum   'Cu2 H32 C12 N4 O10'
_cell_volume   531.01312063
_cell_formula_units_Z   2
loop_
 _symmetry_equiv_pos_site_id
 _symmetry_equiv_pos_as_xyz
  1  'x, y, z'
loop_
 _atom_site_type_symbol
 _atom_site_label
 _atom_site_symmetry_multiplicity
 _atom_site_fract_x
 _atom_site_fract_y
 _atom_site_fract_z
 _atom_site_occupancy
 _atom_site_hle17_ddec_charge
 _atom_site_hle17_ddec_spin_density
 _atom_site_hle17_ddec_sum_bond_order
 _atom_site_hle17_magmom
 _atom_site_hse06_10hf_ddec_charge
 _atom_site_hse06_10hf_ddec_spin_density
 _atom_site_hse06_10hf_ddec_sum_bond_order
 _atom_site_hse06_10hf_magmom
 _atom_site_hse06_ddec_charge
 _atom_site_hse06_ddec_spin_density
 _atom_site_hse06_ddec_sum_bond_order
 _atom_site_hse06_magmom
 _atom_site_pbe_cm5_charge
 _atom_site_pbe_ddec_charge
 _atom_site_pbe_ddec_spin_density
 _atom_site_pbe_ddec_sum_bond_order
 _atom_site_pbe_magmom
Cu  Cu0  1  0.00000032  0.99999910  0.99999709  1  0.819666  -0.688028  1.809411  -0.482  0.798936  -0.78431  2.188427  -0.599  0.864345  -0.849816  2.142353  -0.671  0.746511  0.761401  -0.72196  2.219799  -0.541
Cu  Cu1  1  0.99999838  0.49999443  0.00000895  1  0.991222  0.72261  1.621037  0.522  0.992565  0.829432  1.992364  0.66  1.083912  0.905049  1.933598  0.751  0.683322  0.918054  0.759499  2.053641  0.592
H  H2  1  0.80765570  0.78071796  0.11689128  1  0.300123  0.000571  0.93264  0.001  0.290116  -0.000131  0.990786  0.0  0.297383  3e-05  0.986661  0.001  0.287409  0.28509  -0.000275  0.993632  0.0
H  H3  1  0.19234673  0.21927909  0.88310883  1  0.300117  0.000569  0.932665  0.001  0.290099  -0.000131  0.990825  0.0  0.297368  3e-05  0.986698  0.001  0.287421  0.285071  -0.000275  0.993668  0.0
H  H4  1  0.65894453  0.84666445  0.03457304  1  0.302852  0.00053  0.919598  0.002  0.293158  -0.000452  0.977412  0.0  0.30022  -0.000255  0.973042  0.001  0.290898  0.288251  -0.00061  0.980699  0.0
H  H5  1  0.34106051  0.15332804  0.96542611  1  0.302867  0.000529  0.919545  0.002  0.29317  -0.000452  0.977364  0.0  0.300233  -0.000255  0.972993  0.001  0.290908  0.28826  -0.00061  0.980653  0.0
H  H6  1  0.88843234  0.71318828  0.77922929  1  0.302153  0.000519  0.932347  0.001  0.289948  -0.000162  0.99505  0.0  0.297591  -1.2e-05  0.990166  0.001  0.286977  0.284739  -0.000316  0.998364  0.0
H  H7  1  0.11156790  0.28681465  0.22077326  1  0.302258  0.000521  0.932295  0.001  0.290061  -0.000162  0.994955  0.0  0.297703  -1.2e-05  0.990069  0.001  0.287037  0.284854  -0.000316  0.998269  0.0
H  H8  1  0.73880423  0.80714768  0.75521969  1  0.292502  0.000727  0.886424  0.002  0.2894  -0.000526  0.936886  0.0  0.295329  -0.000263  0.933513  0.001  0.303102  0.285191  -0.000658  0.939617  0.0
H  H9  1  0.26119300  0.19285373  0.24478458  1  0.292529  0.00073  0.886403  0.002  0.289424  -0.000525  0.936863  0.0  0.295345  -0.000262  0.933505  0.001  0.303103  0.285215  -0.000657  0.939589  0.0
H  H10  1  0.76687547  0.52670555  0.52753162  1  0.113226  -0.000669  0.985051  0.0  0.132567  -0.000503  1.047707  0.0  0.135046  -0.00038  1.046884  0.0  0.089441  0.130317  -0.00058  1.049077  0.0
H  H11  1  0.23314563  0.47331011  0.47248192  1  0.113254  -0.000665  0.984961  0.0  0.132568  -0.000503  1.047637  0.0  0.135044  -0.00038  1.046817  0.0  0.089438  0.130316  -0.000579  1.04901  0.0
H  H12  1  0.61745532  0.30262861  0.44843076  1  0.13525  0.000433  0.935112  0.001  0.156531  0.000366  0.990902  0.001  0.159037  0.000231  0.989704  0.0  0.099802  0.154424  0.000472  0.991851  0.001
H  H13  1  0.38255394  0.69738370  0.55156548  1  0.135335  0.000435  0.934933  0.001  0.156646  0.000366  0.990676  0.001  0.159151  0.000231  0.989476  0.0  0.099852  0.154539  0.000471  0.991633  0.001
H  H14  1  0.85109887  0.37509433  0.41842841  1  0.141154  0.00014  0.950239  0.0  0.161072  0.000276  1.010559  0.0  0.162901  0.000167  1.011483  0.0  0.102002  0.15907  0.000213  1.011062  0.0
H  H15  1  0.14891390  0.62491615  0.58157211  1  0.141154  0.000143  0.950311  0.0  0.161071  0.000276  1.010639  0.0  0.162899  0.000167  1.011565  0.0  0.10199  0.159099  0.000214  1.011102  0.0
H  H16  1  0.59666124  0.68278231  0.25460271  1  0.129809  -0.000657  0.968309  0.0  0.149803  -0.000454  1.025746  0.0  0.152509  -0.000354  1.02463  0.0  0.095205  0.147356  -0.000525  1.027155  0.0
H  H17  1  0.40334111  0.31721857  0.74540285  1  0.12981  -0.000665  0.968312  0.0  0.149801  -0.000454  1.025751  0.0  0.152508  -0.000354  1.024633  0.0  0.095202  0.147352  -0.000525  1.027158  0.0
H  H18  1  0.54878239  0.52185607  0.35011304  1  0.121475  0.00029  0.969621  0.0  0.14201  0.000284  1.032813  0.0  0.143657  0.000181  1.03293  0.0  0.093375  0.140468  0.000358  1.033144  0.0
H  H19  1  0.45116525  0.47810173  0.64986441  1  0.12155  0.000282  0.969395  0.0  0.142058  0.000284  1.032638  0.0  0.143708  0.000181  1.032748  0.0  0.093415  0.140511  0.000358  1.032973  0.0
H  H20  1  0.39435852  0.48789763  0.17432887  1  0.1484  -7.3e-05  0.973179  0.0  0.164824  4.1e-05  1.033529  0.0  0.167587  -2.6e-05  1.03353  0.0  0.100265  0.162902  8.4e-05  1.033378  0.0
H  H21  1  0.60565081  0.51211169  0.82565193  1  0.148372  -8.6e-05  0.973337  0.0  0.164842  4.1e-05  1.033632  0.0  0.167572  -2.5e-05  1.033676  0.0  0.100275  0.162922  8.5e-05  1.033479  0.0
H  H22  1  0.95953810  0.79896585  0.54716264  1  0.058316  -0.002737  0.942945  -0.004  0.073225  -0.002035  1.007611  -0.003  0.07277  -0.001481  1.008517  -0.002  0.099374  0.07406  -0.002359  1.006688  -0.003
H  H23  1  0.04045387  0.20104070  0.45283467  1  0.058282  -0.002741  0.943015  -0.004  0.073202  -0.002035  1.007657  -0.003  0.072744  -0.001482  1.008561  -0.002  0.099365  0.074035  -0.002359  1.006732  -0.003
H  H24  1  0.92964565  0.99245103  0.63914601  1  0.079058  0.000121  0.92662  0.0  0.098762  8.9e-05  0.982818  0.0  0.09864  7.4e-05  0.983911  0.0  0.111499  0.098788  0.000129  0.982444  0.0
H  H25  1  0.07035301  0.00755541  0.36085842  1  0.079094  0.000115  0.926571  0.0  0.09881  8.9e-05  0.982756  0.0  0.098684  7.4e-05  0.983849  0.0  0.111521  0.098835  0.000129  0.982383  0.0
H  H26  1  0.27255257  0.04317913  0.65829418  1  0.060269  -0.003178  0.929906  -0.004  0.0752  -0.002338  0.992505  -0.003  0.075617  -0.001698  0.991567  -0.002  0.102068  0.075691  -0.00262  0.99227  -0.003
H  H27  1  0.72743880  0.95682503  0.34170591  1  0.060286  -0.003177  0.929942  -0.004  0.075215  -0.002339  0.99249  -0.003  0.075633  -0.001698  0.991551  -0.002  0.102048  0.075706  -0.00262  0.992257  -0.003
H  H28  1  0.24356496  0.89178077  0.76141779  1  0.07544  3.1e-05  0.919256  0.0  0.094752  6.6e-05  0.9746  0.0  0.0941  5.3e-05  0.976194  0.0  0.111636  0.095286  7.4e-05  0.973537  0.0
H  H29  1  0.75642203  0.10821687  0.23858501  1  0.075444  3.2e-05  0.919259  0.0  0.094705  6.6e-05  0.974614  0.0  0.094051  5.3e-05  0.976208  0.0  0.111619  0.095237  7.4e-05  0.973554  0.0
H  H30  1  0.26783672  0.79210507  0.00775329  1  0.404852  -6.6e-05  0.908754  0.0  0.37429  -5.3e-05  0.973792  0.0  0.38642  -7e-05  0.95585  0.0  0.272313  0.365954  -4.5e-05  0.986293  0.0
H  H31  1  0.73216507  0.20789518  0.99223737  1  0.404908  -6.6e-05  0.908677  0.0  0.374319  -5.3e-05  0.97374  0.0  0.386445  -7e-05  0.955803  0.0  0.272312  0.365987  -4.5e-05  0.986239  0.0
H  H32  1  0.19117443  0.81835482  0.17220226  1  0.401721  -8.4e-05  0.917924  0.0  0.372152  -6.1e-05  0.982174  0.0  0.383971  -8e-05  0.964651  0.0  0.271124  0.364011  -4.5e-05  0.994402  0.0
H  H33  1  0.80883120  0.18164483  0.82779186  1  0.40178  -8.4e-05  0.917833  0.0  0.372217  -6.2e-05  0.982071  0.0  0.384034  -8e-05  0.96455  0.0  0.271156  0.364075  -4.5e-05  0.9943  0.0
C  C34  1  0.76095280  0.39612178  0.50492322  1  -0.455085  0.008579  3.667381  0.009  -0.535355  0.005051  3.903817  0.006  -0.543523  0.00337  3.907701  0.004  -0.247516  -0.529241  0.0061  3.902213  0.007
C  C35  1  0.23905607  0.60388837  0.49508154  1  -0.45523  0.008561  3.667216  0.009  -0.535513  0.005054  3.903723  0.006  -0.543677  0.003371  3.9076  0.004  -0.247559  -0.529428  0.006101  3.902102  0.007
C  C36  1  0.54260118  0.54446992  0.23406765  1  -0.461317  0.008653  3.643186  0.009  -0.537253  0.00483  3.870379  0.006  -0.545361  0.003152  3.872874  0.004  -0.255686  -0.531254  0.005889  3.869227  0.007
C  C37  1  0.45739981  0.45552686  0.76593005  1  -0.461378  0.008702  3.643062  0.009  -0.537324  0.00483  3.870274  0.006  -0.545409  0.003151  3.872802  0.004  -0.255709  -0.531324  0.005889  3.869121  0.007
C  C38  1  0.01842209  0.10211453  0.33765727  1  0.042903  0.000779  3.626424  0.003  -0.01293  -0.001385  3.901409  0.001  -0.008228  -0.000677  3.914217  0.001  -0.074488  -0.016175  -0.00185  3.89186  0.0
C  C39  1  0.98156991  0.89788725  0.66234228  1  0.042834  0.000755  3.626441  0.003  -0.012942  -0.001383  3.90143  0.001  -0.008255  -0.000677  3.914257  0.001  -0.074483  -0.016179  -0.00185  3.891863  0.0
C  C40  1  0.65200004  0.45707293  0.13479799  1  0.750822  -0.002589  3.813917  -0.005  0.713304  0.000439  4.113883  -0.001  0.750111  2.4e-05  4.105362  -0.001  0.213313  0.688154  0.000932  4.118698  -0.001
C  C41  1  0.34801514  0.54292627  0.86521693  1  0.750928  -0.002597  3.813748  -0.005  0.713326  0.000439  4.113809  -0.001  0.750132  2.4e-05  4.105288  -0.001  0.213252  0.688185  0.000932  4.118616  -0.001
C  C42  1  0.81005538  0.01448641  0.26098960  1  0.053756  0.000536  3.628873  0.003  -0.00063  -0.00152  3.90162  0.0  0.004315  -0.000768  3.914486  0.001  -0.072301  -0.003794  -0.001977  3.891284  0.0
C  C43  1  0.18993778  0.98551054  0.73900658  1  0.053831  0.00054  3.628768  0.003  -0.000692  -0.00152  3.901689  0.0  0.004253  -0.000767  3.914558  0.001  -0.072339  -0.003853  -0.001977  3.891343  0.0
C  C44  1  0.82364794  0.36525654  0.65697933  1  0.732685  -0.002418  3.839395  -0.005  0.698262  0.000413  4.136799  -0.001  0.734712  -3.7e-05  4.12851  -0.001  0.207087  0.673054  0.000657  4.141451  -0.001
C  C45  1  0.17633983  0.63474369  0.34302528  1  0.732844  -0.002415  3.839367  -0.005  0.698448  0.000412  4.136715  -0.001  0.734898  -3.7e-05  4.128421  -0.001  0.207142  0.67324  0.000657  4.141379  -0.001
N  N46  1  0.78991311  0.88847966  0.10475186  1  -0.603309  -0.089503  3.136722  -0.108  -0.584009  -0.061468  3.41123  -0.077  -0.614303  -0.051303  3.413904  -0.068  -0.650873  -0.562566  -0.066  3.409034  -0.08
N  N47  1  0.21009229  0.11151887  0.89524537  1  -0.603299  -0.089508  3.136597  -0.108  -0.583959  -0.061471  3.411165  -0.077  -0.614254  -0.051306  3.413837  -0.068  -0.650889  -0.562512  -0.066005  3.408966  -0.08
N  N48  1  0.12201976  0.17282390  0.22211680  1  -0.592805  -0.08539  3.131131  -0.103  -0.574841  -0.060719  3.406781  -0.076  -0.603262  -0.050825  3.407948  -0.067  -0.641626  -0.555213  -0.065056  3.405762  -0.078
N  N49  1  0.87797780  0.82717873  0.77788665  1  -0.592659  -0.08538  3.131223  -0.103  -0.574692  -0.060721  3.406831  -0.076  -0.603105  -0.050826  3.408003  -0.067  -0.641562  -0.555066  -0.065054  3.405819  -0.078
O  O50  1  0.17185084  0.82506205  0.06130890  1  -0.886412  0.000633  1.864479  0.0  -0.851579  0.000311  2.061872  0.0  -0.869162  0.000242  2.021878  0.0  -0.615548  -0.838533  0.000382  2.091265  0.0
O  O51  1  0.82815930  0.17494426  0.93868594  1  -0.8865  0.000635  1.864329  0.0  -0.851658  0.000311  2.061812  0.0  -0.869255  0.000242  2.021861  0.0  -0.615576  -0.838612  0.000382  2.0912  0.0
O  O52  1  0.79422991  0.55571930  0.09302945  1  -0.639134  0.071022  2.087978  0.095  -0.60043  0.046779  2.35693  0.068  -0.642283  0.035732  2.349054  0.055  -0.324003  -0.57127  0.052514  2.363435  0.074
O  O53  1  0.20577966  0.44427901  0.90698041  1  -0.639227  0.071016  2.087865  0.095  -0.600434  0.046772  2.356776  0.068  -0.642284  0.035726  2.348902  0.055  -0.324  -0.571277  0.052508  2.363278  0.074
O  O54  1  0.59687645  0.29604926  0.09936991  1  -0.640652  0.001619  1.922589  0.002  -0.581527  0.000801  2.129875  0.001  -0.606736  9.3e-05  2.118913  0.0  -0.318978  -0.564574  0.000947  2.137593  0.002
O  O55  1  0.40312795  0.70395036  0.90062753  1  -0.640638  0.001618  1.922485  0.002  -0.581507  0.000801  2.129844  0.001  -0.606722  9.2e-05  2.118881  0.0  -0.318946  -0.564557  0.000946  2.13756  0.002
O  O56  1  0.89887979  0.50021291  0.78298398  1  -0.648859  0.074602  2.073448  0.099  -0.610575  0.049542  2.341623  0.072  -0.652586  0.037805  2.333988  0.058  -0.328652  -0.580882  0.055129  2.348097  0.077
O  O57  1  0.10112159  0.49978430  0.21702404  1  -0.648911  0.074607  2.073578  0.099  -0.610609  0.049549  2.34173  0.072  -0.652623  0.037811  2.334101  0.058  -0.328635  -0.580914  0.055134  2.348202  0.077
O  O58  1  0.79862509  0.21451026  0.65111571  1  -0.624801  0.000295  1.924098  0.001  -0.576138  -3.9e-05  2.136283  0.001  -0.600713  -0.000542  2.125806  0.0  -0.322169  -0.559176  0.000267  2.142746  0.001
O  O59  1  0.20137577  0.78548637  0.34887855  1  -0.624914  0.0003  1.924173  0.001  -0.576263  -4e-05  2.136337  0.001  -0.600838  -0.000542  2.125854  0.0  -0.322241  -0.559301  0.000267  2.142805  0.001
