# generated using pymatgen
data_NiP2H32C30S4(N3O2)2
_symmetry_space_group_name_H-M   'P 1'
_cell_length_a   6.87265016
_cell_length_b   10.58078751
_cell_length_c   12.80323202
_cell_angle_alpha   66.87807437
_cell_angle_beta   86.48359923
_cell_angle_gamma   88.58649822
_symmetry_Int_Tables_number   1
_chemical_formula_structural   NiP2H32C30S4(N3O2)2
_chemical_formula_sum   'Ni1 P2 H32 C30 S4 N6 O4'
_cell_volume   854.62573114
_cell_formula_units_Z   1
loop_
 _symmetry_equiv_pos_site_id
 _symmetry_equiv_pos_as_xyz
  1  'x, y, z'
loop_
 _atom_site_type_symbol
 _atom_site_label
 _atom_site_symmetry_multiplicity
 _atom_site_fract_x
 _atom_site_fract_y
 _atom_site_fract_z
 _atom_site_occupancy
 _atom_site_pbe_cm5_charge
 _atom_site_pbe_ddec_charge
 _atom_site_pbe_ddec_spin_density
 _atom_site_pbe_ddec_sum_bond_order
 _atom_site_pbe_magmom
Ni  Ni0  1  0.50000122  0.00000212  0.99999894  1  0.449029  0.395466  -1.611656  2.874389  -1.314
P  P1  1  0.46162626  0.10566874  0.18001974  1  0.18047  0.704223  -0.002967  5.135395  0.0
P  P2  1  0.53836981  0.89432991  0.81998210  1  0.180439  0.704267  -0.002967  5.135344  0.0
H  H3  1  0.60206544  0.36361540  0.04745386  1  0.095533  0.059242  0.000105  0.996726  0.0
H  H4  1  0.39793354  0.63638219  0.95254667  1  0.095554  0.05928  0.000105  0.99668  0.0
H  H5  1  0.79709853  0.29731609  0.14029003  1  0.097149  0.065944  -0.000828  0.981828  0.0
H  H6  1  0.20290045  0.70268253  0.85971094  1  0.097156  0.065944  -0.000828  0.981881  0.0
H  H7  1  0.71823344  0.54777533  0.10445333  1  0.083329  0.127488  -0.000404  1.029239  0.0
H  H8  1  0.28176117  0.45222333  0.89554933  1  0.083309  0.127498  -0.000404  1.029288  0.0
H  H9  1  0.68434775  0.43772077  0.25101203  1  0.085275  0.121484  2e-05  1.031967  0.0
H  H10  1  0.31564831  0.56227685  0.74899015  1  0.085282  0.121496  2e-05  1.032048  0.0
H  H11  1  0.47960004  0.49723905  0.16460351  1  0.08342  0.116203  1.7e-05  1.017748  0.0
H  H12  1  0.52039456  0.50275857  0.83539793  1  0.08342  0.116216  1.7e-05  1.017761  0.0
H  H13  1  0.05028302  0.02871252  0.24050209  1  0.086694  0.093957  -0.001606  1.062152  0.0
H  H14  1  0.94971450  0.97128509  0.75950004  1  0.086746  0.094052  -0.001606  1.062041  0.0
H  H15  1  0.87982678  0.87507216  0.41777832  1  0.099178  0.109322  -0.000373  1.048633  0.0
H  H16  1  0.12016783  0.12492545  0.58222156  1  0.099174  0.10934  -0.000373  1.048605  0.0
H  H17  1  0.42224057  0.78950242  0.58577811  1  0.105467  0.126093  7.5e-05  1.022761  0.0
H  H18  1  0.57775261  0.21050037  0.41422558  1  0.105489  0.126147  7.5e-05  1.022698  0.0
H  H19  1  0.59604896  0.94093544  0.40383371  1  0.09747  0.094754  -0.00063  1.034164  0.0
H  H20  1  0.40394566  0.05906529  0.59616984  1  0.09748  0.094756  -0.00063  1.034158  0.0
H  H21  1  0.81641373  0.65303216  0.71400073  1  0.105715  0.118763  -0.000174  0.982612  0.0
H  H22  1  0.18358234  0.34696753  0.28600311  1  0.105711  0.118772  -0.000174  0.982729  0.0
H  H23  1  0.80808235  0.67172028  0.56851005  1  0.091552  0.085698  2e-06  1.047076  0.0
H  H24  1  0.19191516  0.32827734  0.43149365  1  0.091536  0.085707  2e-06  1.047104  0.0
H  H25  1  0.77928174  0.81906976  0.60566387  1  0.095935  0.101126  7.2e-05  1.034153  0.0
H  H26  1  0.22070995  0.18092892  0.39433887  1  0.095956  0.101151  7.2e-05  1.034205  0.0
H  H27  1  0.57098010  0.76317907  0.21789277  1  0.105917  0.072325  -0.000727  1.086357  -0.001
H  H28  1  0.42902771  0.23682358  0.78210114  1  0.105948  0.072371  -0.000727  1.086287  -0.001
H  H29  1  0.01904213  0.57084453  0.36994533  1  0.111369  0.103917  6e-05  1.042876  0.0
H  H30  1  0.98096418  0.42915401  0.63004842  1  0.111352  0.103895  6e-05  1.042864  0.0
H  H31  1  0.86949818  0.72380150  0.18918820  1  0.103074  0.116547  -0.000634  1.025351  -0.001
H  H32  1  0.13051109  0.27620218  0.81080767  1  0.103066  0.116514  -0.000634  1.025269  -0.001
H  H33  1  0.07854321  0.89512974  0.03493944  1  0.100652  0.085507  -0.000809  1.048037  -0.001
H  H34  1  0.92145880  0.10487916  0.96505963  1  0.100667  0.085573  -0.000809  1.047973  -0.001
C  C35  1  0.64807354  0.33904717  0.13424371  1  -0.065336  0.114866  -0.000233  3.859948  0.0
C  C36  1  0.35192402  0.66095351  0.86575586  1  -0.065329  0.114883  -0.000233  3.859962  0.0
C  C37  1  0.63152950  0.46211939  0.16611288  1  -0.253967  -0.397898  -0.000109  3.957061  0.0
C  C38  1  0.36846657  0.53787821  0.83388773  1  -0.253987  -0.39798  -0.000109  3.957208  0.0
C  C39  1  0.33401940  0.99608916  0.31029459  1  -0.042333  -0.151223  0.000979  4.025319  0.001
C  C40  1  0.66597666  0.00390950  0.68970881  1  -0.042367  -0.151287  0.000979  4.025384  0.001
C  C41  1  0.13268141  0.97654506  0.31589674  1  -0.083697  -0.039461  -0.001476  3.987513  -0.001
C  C42  1  0.86731610  0.02345255  0.68410617  1  -0.083694  -0.03947  -0.001476  3.987425  -0.001
C  C43  1  0.03601379  0.88967771  0.41661584  1  -0.110495  -0.216477  -0.000172  3.975901  0.0
C  C44  1  0.96398081  0.11032095  0.58338683  1  -0.11055  -0.216576  -0.000172  3.97579  0.0
C  C45  1  0.14128968  0.82196646  0.51361571  1  0.087164  0.266383  -9e-05  4.050858  0.0
C  C46  1  0.85870493  0.17803220  0.48638618  1  0.087264  0.266425  -9e-05  4.05086  0.0
C  C47  1  0.34415978  0.84061169  0.50860262  1  -0.108846  -0.21469  -5.6e-05  3.979171  0.0
C  C48  1  0.65583629  0.15938696  0.49140000  1  -0.108854  -0.214775  -5.6e-05  3.979272  0.0
C  C49  1  0.43898754  0.92621245  0.40770629  1  -0.085864  -0.056297  -0.000679  4.015037  -0.001
C  C50  1  0.56101000  0.07378825  0.59229640  1  -0.085858  -0.056235  -0.000679  4.015101  -0.001
C  C51  1  0.85319133  0.71980924  0.62533987  1  -0.144741  -0.176511  -6.8e-05  3.885489  0.0
C  C52  1  0.14680181  0.28018944  0.37466439  1  -0.144717  -0.176571  -6.8e-05  3.885771  0.0
C  C53  1  0.41562380  0.75065205  0.21410218  1  0.056205  0.069073  0.002671  3.90302  0.002
C  C54  1  0.58438251  0.24934753  0.78589279  1  0.056154  0.069038  0.002671  3.902954  0.002
C  C55  1  0.30929881  0.65357868  0.30655698  1  -0.003926  -0.039562  -0.002854  3.989402  -0.003
C  C56  1  0.69070899  0.34642190  0.69343605  1  -0.003984  -0.039716  -0.002854  3.989667  -0.003
C  C57  1  0.10781857  0.64296782  0.29913646  1  -0.05675  -0.050405  0.003806  3.906066  0.003
C  C58  1  0.89219066  0.35703071  0.70085876  1  -0.056745  -0.050342  0.003806  3.905838  0.003
C  C59  1  0.02464630  0.72863754  0.19949314  1  -0.08229  -0.111106  -0.003087  3.939305  -0.004
C  C60  1  0.97536143  0.27135896  0.80050591  1  -0.082228  -0.110996  -0.003086  3.939109  -0.004
C  C61  1  0.14024162  0.82508484  0.11309854  1  0.051299  0.107217  0.002358  3.886168  0.002
C  C62  1  0.85976178  0.17491682  0.88689896  1  0.051247  0.107079  0.002358  3.886273  0.002
C  C63  1  0.41025477  0.57117339  0.40899991  1  0.246209  0.246462  -0.00144  4.000156  -0.001
C  C64  1  0.58975447  0.42882617  0.59099497  1  0.246122  0.246236  -0.001439  4.000292  -0.001
S  S65  1  0.29184396  0.16560663  0.04746660  1  -0.182353  -0.453199  -0.072002  2.363053  -0.077
S  S66  1  0.70815504  0.83439302  0.95253325  1  -0.182336  -0.453185  -0.072  2.363004  -0.077
S  S67  1  0.70154709  0.01211176  0.14844342  1  -0.166657  -0.447839  -0.06924  2.453388  -0.076
S  S68  1  0.29845047  0.98788995  0.85155659  1  -0.166632  -0.44784  -0.069239  2.453433  -0.076
N  N69  1  0.33328644  0.83681773  0.12033956  1  -0.320089  -0.191692  -0.038886  3.605761  -0.055
N  N70  1  0.66671700  0.16318598  0.87965570  1  -0.320042  -0.191615  -0.038884  3.60578  -0.055
N  N71  1  0.60743434  0.57799259  0.40397407  1  -0.144705  -0.134052  -0.000444  3.215662  0.0
N  N72  1  0.39257347  0.42201109  0.59602029  1  -0.144671  -0.133878  -0.000444  3.215686  0.0
N  N73  1  0.30134910  0.49389649  0.50372862  1  -0.145875  -0.141414  -0.001849  3.237798  -0.002
N  N74  1  0.69865871  0.50610616  0.49626608  1  -0.145806  -0.1412  -0.001849  3.237539  -0.002
O  O75  1  0.51956788  0.23193094  0.21391593  1  -0.21342  -0.327041  -0.002461  2.507421  -0.003
O  O76  1  0.48042967  0.76806872  0.78608475  1  -0.213421  -0.327077  -0.002461  2.507392  -0.003
O  O77  1  0.06066444  0.73651632  0.61610270  1  -0.182243  -0.155521  -9.8e-05  2.557131  0.0
O  O78  1  0.93932730  0.26348647  0.38389870  1  -0.182371  -0.155568  -9.8e-05  2.557207  0.0
