# generated using pymatgen
data_CuH4C5N3
_symmetry_space_group_name_H-M   'P 1'
_cell_length_a   6.45590929
_cell_length_b   7.91608042
_cell_length_c   12.04360822
_cell_angle_alpha   90.00021370
_cell_angle_beta   90.00029982
_cell_angle_gamma   103.96895630
_symmetry_Int_Tables_number   1
_chemical_formula_structural   CuH4C5N3
_chemical_formula_sum   'Cu4 H16 C20 N12'
_cell_volume   597.29235511
_cell_formula_units_Z   4
loop_
 _symmetry_equiv_pos_site_id
 _symmetry_equiv_pos_as_xyz
  1  'x, y, z'
loop_
 _atom_site_type_symbol
 _atom_site_label
 _atom_site_symmetry_multiplicity
 _atom_site_fract_x
 _atom_site_fract_y
 _atom_site_fract_z
 _atom_site_occupancy
 _atom_site_hle17_bader_spin_density
 _atom_site_hle17_ddec_charge
 _atom_site_hle17_ddec_spin_density
 _atom_site_hle17_ddec_sum_bond_order
 _atom_site_hle17_magmom
 _atom_site_hse06_10hf_bader_spin_density
 _atom_site_hse06_10hf_ddec_charge
 _atom_site_hse06_10hf_ddec_spin_density
 _atom_site_hse06_10hf_ddec_sum_bond_order
 _atom_site_hse06_10hf_magmom
 _atom_site_hse06_bader_spin_density
 _atom_site_hse06_ddec_charge
 _atom_site_hse06_ddec_spin_density
 _atom_site_hse06_ddec_sum_bond_order
 _atom_site_hse06_magmom
 _atom_site_pbe_bader_spin_density
 _atom_site_pbe_cm5_charge
 _atom_site_pbe_ddec_charge
 _atom_site_pbe_ddec_spin_density
 _atom_site_pbe_ddec_sum_bond_order
 _atom_site_pbe_magmom
Cu  Cu0  1  0.69085225  0.96472291  0.25000030  1  0  0.357782  0  2.423704  0  0  0.25275  0  2.948363  0  0  0.23402  0  2.916649  0  0  0.53547  0.270907  0  2.964559  0
Cu  Cu1  1  0.30914650  0.03528322  0.75000162  1  0  0.357803  0  2.423815  0  0  0.252724  0  2.948463  0  0  0.234026  0  2.91679  0  0  0.535466  0.270901  0  2.964663  0
Cu  Cu2  1  0.93921692  0.61067748  0.25000022  1  0  0.359377  0  2.470584  0  0  0.253856  0  2.997803  0  0  0.232936  0  2.968256  0  0  0.546416  0.272536  0  3.01306  0
Cu  Cu3  1  0.06078408  0.38932600  0.74999755  1  0  0.359445  0  2.470635  0  0  0.253945  0  2.997851  0  0  0.233007  0  2.968288  0  0  0.546391  0.272616  0  3.013141  0
H  H4  1  0.72719059  0.05215077  0.48738077  1  0  0.088858  0  0.925906  0  0  0.098891  0  0.986668  0  0  0.101641  0  0.985397  0  0  0.121522  0.09683  0  0.9878  0
H  H5  1  0.27280744  0.94785082  0.98738170  1  0  0.088831  0  0.925943  0  0  0.098884  0  0.986682  0  0  0.101632  0  0.985414  0  0  0.121509  0.096824  0  0.987811  0
H  H6  1  0.27282221  0.94784597  0.51262115  1  0  0.088927  0  0.925889  0  0  0.098914  0  0.98668  0  0  0.101665  0  0.985409  0  0  0.121503  0.096852  0  0.987814  0
H  H7  1  0.72718627  0.05215408  0.01262105  1  0  0.088883  0  0.925906  0  0  0.0989  0  0.986663  0  0  0.101648  0  0.985396  0  0  0.121502  0.096839  0  0.98779  0
H  H8  1  0.78702971  0.45546662  0.46983925  1  0  0.090847  0  0.934032  0  0  0.100143  0  0.995391  0  0  0.102871  0  0.994226  0  0  0.121081  0.098066  0  0.9965  0
H  H9  1  0.21296811  0.54453483  0.96983987  1  0  0.090779  0  0.934046  0  0  0.100099  0  0.995377  0  0  0.102827  0  0.994211  0  0  0.121075  0.098025  0  0.996482  0
H  H10  1  0.21296139  0.54452524  0.53015520  1  0  0.09083  0  0.933944  0  0  0.100122  0  0.995299  0  0  0.10285  0  0.994135  0  0  0.1211  0.098048  0  0.996404  0
H  H11  1  0.78703568  0.45547253  0.03015955  1  0  0.090844  0  0.934051  0  0  0.10016  0  0.995376  0  0  0.102887  0  0.994213  0  0  0.121113  0.098084  0  0.996482  0
H  H12  1  0.71275573  0.56718295  0.65712784  1  0  0.11103  0  0.950473  0  0  0.120324  0  1.011235  0  0  0.124208  0  1.008184  0  0  0.112183  0.117413  0  1.013663  0
H  H13  1  0.28723294  0.43281864  0.15712991  1  0  0.110946  0  0.950521  0  0  0.120316  0  1.011215  0  0  0.124206  0  1.008152  0  0  0.112152  0.1174  0  1.013651  0
H  H14  1  0.28724154  0.43280881  0.34286910  1  0  0.110917  0  0.950461  0  0  0.120253  0  1.011209  0  0  0.124137  0  1.008157  0  0  0.112143  0.117353  0  1.01361  0
H  H15  1  0.71276818  0.56719007  0.84287118  1  0  0.110876  0  0.950552  0  0  0.120243  0  1.011261  0  0  0.124129  0  1.008204  0  0  0.112124  0.117338  0  1.013676  0
H  H16  1  0.68443085  0.88732829  0.66589964  1  0  0.108875  0  0.974332  0  0  0.1176  0  1.037342  0  0  0.121531  0  1.03389  0  0  0.110267  0.114512  0  1.04029  0
H  H17  1  0.31555792  0.11267338  0.16590186  1  0  0.108884  0  0.974269  0  0  0.117637  0  1.037243  0  0  0.121557  0  1.033805  0  0  0.110275  0.114549  0  1.040192  0
H  H18  1  0.31558420  0.11266580  0.33409979  1  0  0.108883  0  0.974359  0  0  0.117567  0  1.037377  0  0  0.121529  0  1.033895  0  0  0.110236  0.114485  0  1.040322  0
H  H19  1  0.68443158  0.88733290  0.83410006  1  0  0.108909  0  0.974296  0  0  0.117632  0  1.037295  0  0  0.121568  0  1.03384  0  0  0.110275  0.114543  0  1.040248  0
C  C20  1  0.71502589  0.82372005  0.58981028  1  0  -0.054968  0  3.686306  0  0  -0.070863  0  3.929719  0  0  -0.071125  0  3.946971  0  0  -0.061219  -0.071143  0  3.91906  0
C  C21  1  0.28496391  0.17628226  0.08981174  1  0  -0.05496  0  3.686393  0  0  -0.070885  0  3.929824  0  0  -0.071143  0  3.94709  0  0  -0.061228  -0.071169  0  3.919165  0
C  C22  1  0.28498146  0.17627416  0.41018998  1  0  -0.055004  0  3.686256  0  0  -0.070841  0  3.929629  0  0  -0.071128  0  3.946858  0  0  -0.061166  -0.071132  0  3.918968  0
C  C23  1  0.71502867  0.82372397  0.91019185  1  0  -0.055022  0  3.686345  0  0  -0.070929  0  3.92975  0  0  -0.071197  0  3.947003  0  0  -0.061229  -0.071207  0  3.919081  0
C  C24  1  0.22125500  0.74081114  0.25000103  1  0  -0.134781  0  3.53114  0  0  -0.141216  0  3.910986  0  0  -0.126223  0  3.911699  0  0  -0.075364  -0.151474  0  3.908523  0
C  C25  1  0.77875697  0.25918300  0.74999923  1  0  -0.134926  0  3.530796  0  0  -0.14138  0  3.910681  0  0  -0.126373  0  3.911383  0  0  -0.075393  -0.151642  0  3.908222  0
C  C26  1  0.78029283  0.20746183  0.24999951  1  0  -0.14628  0  3.552988  0  0  -0.154559  0  3.944638  0  0  -0.139613  0  3.943947  0  0  -0.079519  -0.164574  0  3.94264  0
C  C27  1  0.21970705  0.79254298  0.75000158  1  0  -0.14622  0  3.552929  0  0  -0.154477  0  3.944551  0  0  -0.139549  0  3.943885  0  0  -0.079481  -0.164499  0  3.942561  0
C  C28  1  0.73845706  0.91701275  0.49065991  1  0  0.081792  0  3.683951  0  0  0.054077  0  3.93656  0  0  0.05561  0  3.952399  0  0  0.050334  0.0528  0  3.927078  0
C  C29  1  0.26153835  0.08299022  0.99066039  1  0  0.08172  0  3.684098  0  0  0.053963  0  3.936724  0  0  0.055501  0  3.952522  0  0  0.050323  0.052695  0  3.927248  0
C  C30  1  0.26155070  0.08298277  0.50934201  1  0  0.081658  0  3.684094  0  0  0.054004  0  3.936589  0  0  0.055538  0  3.952447  0  0  0.050324  0.052722  0  3.927115  0
C  C31  1  0.73845424  0.91701601  0.00934236  1  0  0.081674  0  3.684062  0  0  0.054017  0  3.936591  0  0  0.055544  0  3.95244  0  0  0.050333  0.052741  0  3.927119  0
C  C32  1  0.77137697  0.58846002  0.48144638  1  0  0.073362  0  3.686871  0  0  0.045925  0  3.940636  0  0  0.047683  0  3.955177  0  0  0.048675  0.044605  0  3.931682  0
C  C33  1  0.22861595  0.41154030  0.98144755  1  0  0.073396  0  3.686995  0  0  0.045929  0  3.940776  0  0  0.047687  0  3.955327  0  0  0.04863  0.04461  0  3.931812  0
C  C34  1  0.22861721  0.41153180  0.51855056  1  0  0.07341  0  3.686951  0  0  0.045986  0  3.94074  0  0  0.047743  0  3.955276  0  0  0.048682  0.044665  0  3.931785  0
C  C35  1  0.77138393  0.58846450  0.01855271  1  0  0.073318  0  3.686974  0  0  0.045846  0  3.940783  0  0  0.047603  0  3.955327  0  0  0.048603  0.044527  0  3.931824  0
C  C36  1  0.72989185  0.65189672  0.58486972  1  0  -0.048615  0  3.691697  0  0  -0.063247  0  3.933164  0  0  -0.063628  0  3.951084  0  0  -0.059657  -0.063429  0  3.921885  0
C  C37  1  0.27009594  0.34810428  0.08487154  1  0  -0.048484  0  3.691852  0  0  -0.063166  0  3.933271  0  0  -0.06355  0  3.951193  0  0  -0.059579  -0.063356  0  3.922007  0
C  C38  1  0.27010655  0.34809371  0.41512722  1  0  -0.048539  0  3.691701  0  0  -0.063216  0  3.933134  0  0  -0.063599  0  3.951059  0  0  -0.059659  -0.063396  0  3.921861  0
C  C39  1  0.72989973  0.65190190  0.91513038  1  0  -0.048401  0  3.691727  0  0  -0.063082  0  3.933149  0  0  -0.063459  0  3.951068  0  0  -0.059571  -0.063265  0  3.921875  0
N  N40  1  0.39500719  0.83229937  0.25000055  1  0  -0.401827  0  3.331377  0  0  -0.339757  0  3.661816  0  0  -0.35545  0  3.672838  0  0  -0.444603  -0.329468  0  3.652703  0
N  N41  1  0.60498812  0.16769112  0.75000137  1  0  -0.401764  0  3.331023  0  0  -0.339681  0  3.661448  0  0  -0.355384  0  3.672489  0  0  -0.444582  -0.329392  0  3.652334  0
N  N42  1  0.83713906  0.36055282  0.25000060  1  0  -0.411897  0  3.368892  0  0  -0.351715  0  3.711201  0  0  -0.365713  0  3.721313  0  0  -0.449877  -0.34225  0  3.702428  0
N  N43  1  0.16285536  0.63944945  0.74999882  1  0  -0.411951  0  3.368851  0  0  -0.351785  0  3.711189  0  0  -0.365769  0  3.721273  0  0  -0.449893  -0.342321  0  3.702423  0
N  N44  1  0.77436762  0.84922802  0.39246588  1  0  -0.135991  0  3.237368  0  0  -0.08634  0  3.534985  0  0  -0.084867  0  3.536367  0  0  -0.22953  -0.088709  0  3.535205  0
N  N45  1  0.22563513  0.15077662  0.89246726  1  0  -0.135936  0  3.237306  0  0  -0.086231  0  3.53486  0  0  -0.084725  0  3.53622  0  0  -0.229547  -0.088626  0  3.535104  0
N  N46  1  0.22563831  0.15077145  0.60753188  1  0  -0.135949  0  3.237666  0  0  -0.086274  0  3.535229  0  0  -0.084831  0  3.536652  0  0  -0.229488  -0.088635  0  3.535443  0
N  N47  1  0.77436712  0.84923076  0.10753549  1  0  -0.135928  0  3.23755  0  0  -0.086294  0  3.535155  0  0  -0.084816  0  3.536536  0  0  -0.229528  -0.088669  0  3.535378  0
N  N48  1  0.79532682  0.68441316  0.38835648  1  0  -0.126377  0  3.237743  0  0  -0.0762  0  3.533879  0  0  -0.073918  0  3.535267  0  0  -0.229927  -0.078793  0  3.533855  0
N  N49  1  0.20467475  0.31559277  0.88835487  1  0  -0.126375  0  3.237641  0  0  -0.07621  0  3.53376  0  0  -0.073949  0  3.535148  0  0  -0.229872  -0.078793  0  3.533738  0
N  N50  1  0.20467365  0.31558378  0.61164212  1  0  -0.126314  0  3.237814  0  0  -0.076185  0  3.534004  0  0  -0.073885  0  3.535384  0  0  -0.229906  -0.07878  0  3.533977  0
N  N51  1  0.79532637  0.68441593  0.11164456  1  0  -0.12635  0  3.237796  0  0  -0.076173  0  3.533941  0  0  -0.073891  0  3.535329  0  0  -0.229891  -0.078764  0  3.533916  0
