# generated using pymatgen
data_Cu3H16C8I3BrN2
_symmetry_space_group_name_H-M   'P 1'
_cell_length_a   9.44177745
_cell_length_b   9.65114547
_cell_length_c   10.48321740
_cell_angle_alpha   61.99724577
_cell_angle_beta   66.22317335
_cell_angle_gamma   83.89932460
_symmetry_Int_Tables_number   1
_chemical_formula_structural   Cu3H16C8I3BrN2
_chemical_formula_sum   'Cu6 H32 C16 I6 Br2 N4'
_cell_volume   767.76034274
_cell_formula_units_Z   2
loop_
 _symmetry_equiv_pos_site_id
 _symmetry_equiv_pos_as_xyz
  1  'x, y, z'
loop_
 _atom_site_type_symbol
 _atom_site_label
 _atom_site_symmetry_multiplicity
 _atom_site_fract_x
 _atom_site_fract_y
 _atom_site_fract_z
 _atom_site_occupancy
 _atom_site_pbe_bader_spin_density
 _atom_site_pbe_cm5_charge
 _atom_site_pbe_ddec_charge
 _atom_site_pbe_ddec_spin_density
 _atom_site_pbe_ddec_sum_bond_order
 _atom_site_pbe_magmom
Cu  Cu0  1  0.14056423  0.48570899  0.48160950  1  0  0.143757  0.158926  0  2.701958  0
Cu  Cu1  1  0.85943713  0.51429464  0.51838814  1  0  0.143769  0.15894  0  2.701943  0
Cu  Cu2  1  0.48901681  0.48620859  0.39059604  1  0  0.241776  0.169199  0  2.585773  0
Cu  Cu3  1  0.51098949  0.51378677  0.60940242  1  0  0.24178  0.169218  0  2.585793  0
Cu  Cu4  1  0.51405604  0.86300099  0.51432557  1  0  0.143052  0.151142  0  2.697531  0
Cu  Cu5  1  0.48594674  0.13700500  0.48567244  1  0  0.143046  0.151099  0  2.697594  0
H  H6  1  0.98773067  0.68461753  0.87312195  1  0  0.110639  0.107509  0  0.982895  0
H  H7  1  0.01226413  0.31537900  0.12687355  1  0  0.110586  0.107458  0  0.982967  0
H  H8  1  0.83518134  0.64925874  0.82901957  1  0  0.100147  0.099547  0  1.026804  0
H  H9  1  0.16480820  0.35074253  0.17098153  1  0  0.100178  0.099579  0  1.026772  0
H  H10  1  0.72135239  0.45897683  0.09613833  1  0  0.093002  0.089896  0  1.01953  0
H  H11  1  0.27864631  0.54102326  0.90386278  1  0  0.092991  0.089877  0  1.019522  0
H  H12  1  0.84054800  0.53412002  0.14954480  1  0  0.091741  0.087398  0  1.023224  0
H  H13  1  0.15945207  0.46588242  0.85045192  1  0  0.09175  0.087368  0  1.023226  0
H  H14  1  0.82146212  0.00559672  0.95637609  1  0  0.093468  0.093134  0  1.036107  0
H  H15  1  0.17853749  0.99440100  0.04362476  1  0  0.093465  0.093122  0  1.036078  0
H  H16  1  0.94820363  0.85403031  0.99111289  1  0  0.095738  0.0959  0  1.018633  0
H  H17  1  0.05179597  0.14596741  0.00888796  1  0  0.095742  0.095878  0  1.01866  0
H  H18  1  0.74967260  0.72525124  0.24619637  1  0  0.087049  0.082979  0  1.046018  0
H  H19  1  0.25032713  0.27474767  0.75380393  1  0  0.087055  0.082992  0  1.046018  0
H  H20  1  0.60731730  0.84208046  0.18973190  1  0  0.08244  0.078302  0  1.05619  0
H  H21  1  0.39268244  0.15791844  0.81026934  1  0  0.082435  0.078302  0  1.056182  0
H  H22  1  0.61952549  0.96734965  0.88441487  1  0  0.108309  0.102528  0  0.975636  0
H  H23  1  0.38047205  0.03265044  0.11558762  1  0  0.108306  0.102545  0  0.9756  0
H  H24  1  0.64408519  0.84840056  0.79055787  1  0  0.0993  0.101748  0  1.040638  0
H  H25  1  0.35591143  0.15160189  0.20944298  1  0  0.099288  0.101758  0  1.040579  0
H  H26  1  0.44175129  0.74881305  0.10992219  1  0  0.092628  0.085198  0  1.022066  0
H  H27  1  0.55824625  0.25118705  0.89008030  1  0  0.092623  0.085218  0  1.022058  0
H  H28  1  0.51995145  0.61838150  0.03015219  1  0  0.10233  0.097395  0  0.983491  0
H  H29  1  0.48004621  0.38161977  0.96984879  1  0  0.102326  0.097416  0  0.983496  0
H  H30  1  0.03971039  0.96767909  0.71689984  1  0  0.095036  0.091286  0  1.03796  0
H  H31  1  0.96028833  0.03232102  0.28310507  1  0  0.095029  0.091305  0  1.037965  0
H  H32  1  0.88208557  0.08144938  0.69600665  1  0  0.095398  0.090003  0  1.025779  0
H  H33  1  0.11791414  0.91854953  0.30399269  1  0  0.095392  0.089993  0  1.025783  0
H  H34  1  0.82852576  0.94131851  0.56686298  1  0  0.081666  0.091913  0  1.02561  0
H  H35  1  0.17147951  0.05867804  0.43313629  1  0  0.081635  0.09188  0  1.025598  0
H  H36  1  0.97889678  0.82016445  0.59527193  1  0  0.086275  0.093923  0  1.008897  0
H  H37  1  0.02110876  0.17983446  0.40473004  1  0  0.086291  0.093976  0  1.008851  0
C  C38  1  0.86160663  0.68010122  0.90578263  1  0  -0.062819  -0.106135  0  3.705283  0
C  C39  1  0.13838959  0.31989767  0.09421514  1  0  -0.062809  -0.106203  0  3.705338  0
C  C40  1  0.76791717  0.56724842  0.08202408  1  0  -0.078464  -0.086127  0  3.81476  0
C  C41  1  0.23208266  0.43275166  0.91797375  1  0  -0.078447  -0.086029  0  3.814642  0
C  C42  1  0.83094739  0.87920138  0.99394247  1  0  -0.070284  -0.10765  0  3.731234  0
C  C43  1  0.16905119  0.12079753  0.00605920  1  0  -0.070281  -0.107548  0  3.731134  0
C  C44  1  0.70267461  0.77473769  0.15504627  1  0  -0.092998  -0.096641  0  3.849059  0
C  C45  1  0.29732500  0.22526003  0.84495458  1  0  -0.092982  -0.096643  0  3.849015  0
C  C46  1  0.65089528  0.85220222  0.89064679  1  0  -0.065872  -0.110424  0  3.726945  0
C  C47  1  0.34910364  0.14780022  0.10935036  1  0  -0.065873  -0.110425  0  3.726851  0
C  C48  1  0.55095556  0.71187406  0.04871051  1  0  -0.077336  -0.086436  0  3.831783  0
C  C49  1  0.44904197  0.28812602  0.95129008  1  0  -0.077344  -0.086523  0  3.83196  0
C  C50  1  0.92613580  0.96708593  0.71082559  1  0  -0.067154  -0.08667  0  3.779455  0
C  C51  1  0.07386406  0.03291416  0.28917604  1  0  -0.067131  -0.086664  0  3.779499  0
C  C52  1  0.94052930  0.93718352  0.57691919  1  0  -0.172489  -0.159272  0  3.909217  0
C  C53  1  0.05947611  0.06281422  0.42308238  1  0  -0.172505  -0.159322  0  3.909243  0
I  I54  1  0.32375046  0.69115166  0.48170967  1  0  -0.138935  -0.257547  0  2.479939  0
I  I55  1  0.67625381  0.30884607  0.51829328  1  0  -0.138926  -0.257547  0  2.48001  0
I  I56  1  0.06932911  0.65441187  0.23462936  1  0  -0.209223  -0.345865  0  1.987882  0
I  I57  1  0.93067420  0.34558821  0.76536814  1  0  -0.20922  -0.345856  0  1.987851  0
I  I58  1  0.67750582  0.09806719  0.24314235  1  0  -0.202833  -0.329133  0  1.963179  0
I  I59  1  0.32249684  0.90193762  0.75685620  1  0  -0.202833  -0.329135  0  1.963192  0
Br  Br60  1  0.32353640  0.33043740  0.36597321  1  0  -0.223971  -0.305499  0  2.219767  0
Br  Br61  1  0.67646357  0.66956386  0.63402597  1  0  -0.223956  -0.30549  0  2.219756  0
N  N62  1  0.81832343  0.84547053  0.87195147  1  0  -0.22101  0.17939  0  3.51692  0
N  N63  1  0.18167422  0.15453074  0.12804856  1  0  -0.221002  0.179361  0  3.51698  0
N  N64  1  0.63720328  0.64391932  0.15205679  1  0  -0.360364  -0.069898  0  3.48575  0
N  N65  1  0.36279542  0.35608077  0.84794432  1  0  -0.360378  -0.069921  0  3.485724  0
