# generated using pymatgen
data_AgH8C12N2Cl
_symmetry_space_group_name_H-M   'P 1'
_cell_length_a   4.21712292
_cell_length_b   8.02187992
_cell_length_c   8.02194185
_cell_angle_alpha   78.70227397
_cell_angle_beta   77.49153549
_cell_angle_gamma   77.49247351
_symmetry_Int_Tables_number   1
_chemical_formula_structural   AgH8C12N2Cl
_chemical_formula_sum   'Ag1 H8 C12 N2 Cl1'
_cell_volume   255.46706643
_cell_formula_units_Z   1
loop_
 _symmetry_equiv_pos_site_id
 _symmetry_equiv_pos_as_xyz
  1  'x, y, z'
loop_
 _atom_site_type_symbol
 _atom_site_label
 _atom_site_symmetry_multiplicity
 _atom_site_fract_x
 _atom_site_fract_y
 _atom_site_fract_z
 _atom_site_occupancy
 _atom_site_pbe_bader_spin_density
 _atom_site_pbe_cm5_charge
 _atom_site_pbe_ddec_charge
 _atom_site_pbe_ddec_spin_density
 _atom_site_pbe_ddec_sum_bond_order
 _atom_site_pbe_magmom
Ag  Ag0  1  0.99999330  0.00871482  0.99128789  1  0  0.346753  0.327769  0  2.096055  0
H  H1  1  0.28055236  0.12771083  0.29824420  1  0  0.108384  0.072383  0  1.027368  0
H  H2  1  0.71945871  0.70174462  0.87229415  1  0  0.108421  0.072478  0  1.027305  0
H  H3  1  0.40559023  0.01341682  0.59776952  1  0  0.092837  0.110985  0  1.046541  0
H  H4  1  0.59437815  0.40222905  0.98660195  1  0  0.092842  0.110965  0  1.046623  0
H  H5  1  0.30274602  0.71691432  0.73455465  1  0  0.104295  0.102195  0  1.019243  0
H  H6  1  0.69725191  0.26543922  0.28309496  1  0  0.104289  0.102165  0  1.019356  0
H  H7  1  0.12314828  0.44426001  0.71309499  1  0  0.095885  0.111717  0  1.03169  0
H  H8  1  0.87685466  0.28690226  0.55573689  1  0  0.095875  0.111702  0  1.031648  0
C  C9  1  0.23884241  0.99940140  0.36334070  1  0  0.047432  0.093796  0  3.970093  0
C  C10  1  0.76116360  0.63665371  0.00060199  1  0  0.047455  0.093745  0  3.969825  0
C  C11  1  0.31084840  0.93505722  0.52953076  1  0  -0.088463  -0.124236  0  3.977734  0
C  C12  1  0.68913643  0.47046440  0.06495251  1  0  -0.088479  -0.124201  0  3.977663  0
C  C13  1  0.25404043  0.77134430  0.60501680  1  0  -0.066973  -0.078886  0  3.936681  0
C  C14  1  0.74596048  0.39497714  0.22866226  1  0  -0.067024  -0.078905  0  3.936827  0
C  C15  1  0.12950016  0.67301096  0.51460562  1  0  -0.003135  0.037788  0  4.012917  0
C  C16  1  0.87050733  0.48538964  0.32699014  1  0  -0.00309  0.037799  0  4.013027  0
C  C17  1  0.06371981  0.75000966  0.34699893  1  0  0.114234  0.123525  0  3.955863  0
C  C18  1  0.93629463  0.65299708  0.24998888  1  0  0.11427  0.123443  0  3.956028  0
C  C19  1  0.06451586  0.50318493  0.58622231  1  0  -0.088349  -0.116253  0  3.969437  0
C  C20  1  0.93548847  0.41377602  0.49681489  1  0  -0.088361  -0.116267  0  3.969407  0
N  N21  1  0.11506591  0.91180386  0.27579214  1  0  -0.329211  -0.253023  0  3.540534  0
N  N22  1  0.88494886  0.72420105  0.08819450  1  0  -0.329224  -0.252991  0  3.54061  0
Cl  Cl23  1  0.49999453  0.14748353  0.85252209  1  0  -0.320664  -0.487693  0  1.522311  0
