# generated using pymatgen
data_Zn5H16C28N18(O5F4)2
_symmetry_space_group_name_H-M   'P 1'
_cell_length_a   10.02638884
_cell_length_b   10.26410306
_cell_length_c   12.86572677
_cell_angle_alpha   74.67863346
_cell_angle_beta   83.17088079
_cell_angle_gamma   60.90280818
_symmetry_Int_Tables_number   1
_chemical_formula_structural   Zn5H16C28N18(O5F4)2
_chemical_formula_sum   'Zn5 H16 C28 N18 O10 F8'
_cell_volume   1115.74667983
_cell_formula_units_Z   1
loop_
 _symmetry_equiv_pos_site_id
 _symmetry_equiv_pos_as_xyz
  1  'x, y, z'
loop_
 _atom_site_type_symbol
 _atom_site_label
 _atom_site_symmetry_multiplicity
 _atom_site_fract_x
 _atom_site_fract_y
 _atom_site_fract_z
 _atom_site_occupancy
 _atom_site_hle17_bader_spin_density
 _atom_site_hle17_ddec_charge
 _atom_site_hle17_ddec_spin_density
 _atom_site_hle17_ddec_sum_bond_order
 _atom_site_hle17_magmom
 _atom_site_hse06_10hf_bader_spin_density
 _atom_site_hse06_10hf_ddec_charge
 _atom_site_hse06_10hf_ddec_spin_density
 _atom_site_hse06_10hf_ddec_sum_bond_order
 _atom_site_hse06_10hf_magmom
 _atom_site_hse06_bader_spin_density
 _atom_site_hse06_ddec_charge
 _atom_site_hse06_ddec_spin_density
 _atom_site_hse06_ddec_sum_bond_order
 _atom_site_hse06_magmom
 _atom_site_pbe_bader_spin_density
 _atom_site_pbe_cm5_charge
 _atom_site_pbe_ddec_charge
 _atom_site_pbe_ddec_spin_density
 _atom_site_pbe_ddec_sum_bond_order
 _atom_site_pbe_magmom
Zn  Zn0  1  0.50000063  0.50000013  0.99999993  1  0  0.783039  0  2.09711  0  0  0.572464  0  2.549358  0  0  0.613259  0  2.514337  0  0  0.69688  0.541641  0  2.575119  0
Zn  Zn1  1  0.48412719  0.40991712  0.28367656  1  0  0.948324  0  1.951236  0  0  0.736679  0  2.452502  0  0  0.779776  0  2.401567  0  0  0.739224  0.70638  0  2.487105  0
Zn  Zn2  1  0.51587332  0.59008365  0.71632365  1  0  0.948357  0  1.951224  0  0  0.736702  0  2.452494  0  0  0.779786  0  2.401583  0  0  0.739223  0.706402  0  2.487116  0
Zn  Zn3  1  0.15564679  0.11295395  0.14692347  1  0  1.009452  0  1.865215  0  0  0.814279  0  2.331483  0  0  0.854717  0  2.286024  0  0  0.724202  0.782876  0  2.361883  0
Zn  Zn4  1  0.84435373  0.88704681  0.85307673  1  0  1.009451  0  1.865171  0  0  0.814284  0  2.331432  0  0  0.854722  0  2.285972  0  0  0.724199  0.782877  0  2.361822  0
H  H5  1  0.29985745  0.30844670  0.98066938  1  0  0.09575  0  0.946148  0  0  0.103709  0  1.011441  0  0  0.105617  0  1.009133  0  0  0.131924  0.102286  0  1.013243  0
H  H6  1  0.70014152  0.69155521  0.01932994  1  0  0.095741  0  0.946125  0  0  0.103704  0  1.011419  0  0  0.10561  0  1.009111  0  0  0.131911  0.102281  0  1.013219  0
H  H7  1  0.31679614  0.88925853  0.98861832  1  0  0.096896  0  0.953594  0  0  0.10131  0  1.02279  0  0  0.103847  0  1.019645  0  0  0.130671  0.099536  0  1.025036  0
H  H8  1  0.68320237  0.11074224  0.01138128  1  0  0.096896  0  0.953598  0  0  0.101298  0  1.022809  0  0  0.103831  0  1.019662  0  0  0.130669  0.099522  0  1.02505  0
H  H9  1  0.87102647  0.17008736  0.33472326  1  0  0.091659  0  0.932524  0  0  0.104185  0  0.992709  0  0  0.106371  0  0.988916  0  0  0.136628  0.102572  0  0.995578  0
H  H10  1  0.12897403  0.82991341  0.66527772  1  0  0.09161  0  0.932568  0  0  0.104164  0  0.992727  0  0  0.106353  0  0.988929  0  0  0.136621  0.102549  0  0.995598  0
H  H11  1  0.87097921  0.29996639  0.99509835  1  0  0.105306  0  1.007146  0  0  0.109901  0  1.074309  0  0  0.113733  0  1.070652  0  0  0.131357  0.107116  0  1.076991  0
H  H12  1  0.12901929  0.70003439  0.00490204  1  0  0.105302  0  1.00714  0  0  0.109899  0  1.0743  0  0  0.113731  0  1.070644  0  0  0.131352  0.107111  0  1.076985  0
H  H13  1  0.27077113  0.23266999  0.31738295  1  0  0.085014  0  0.949852  0  0  0.096338  0  1.010561  0  0  0.098398  0  1.00738  0  0  0.13171  0.094829  0  1.012957  0
H  H14  1  0.72922993  0.76732962  0.68261668  1  0  0.085008  0  0.949867  0  0  0.096323  0  1.010583  0  0  0.098384  0  1.007402  0  0  0.131705  0.094818  0  1.012979  0
H  H15  1  0.29659935  0.77074126  0.32662518  1  0  0.098189  0  0.938495  0  0  0.11222  0  0.992818  0  0  0.113456  0  0.991502  0  0  0.139271  0.111312  0  0.993831  0
H  H16  1  0.70340271  0.22925835  0.67337513  1  0  0.098197  0  0.938481  0  0  0.112227  0  0.992803  0  0  0.113462  0  0.991488  0  0  0.139275  0.11132  0  0.993819  0
H  H17  1  0.10554367  0.12973437  0.38793299  1  0  0.408484  0  0.83505  0  0  0.398077  0  0.880726  0  0  0.405157  0  0.872814  0  0  0.317536  0.392527  0  0.887336  0
H  H18  1  0.89445740  0.87026523  0.61206586  1  0  0.408494  0  0.834999  0  0  0.39809  0  0.880674  0  0  0.405172  0  0.872761  0  0  0.317542  0.392543  0  0.887283  0
H  H19  1  0.24763791  0.96549221  0.40034384  1  0  0.424516  0  0.881537  0  0  0.39188  0  0.948467  0  0  0.403188  0  0.931828  0  0  0.280937  0.383693  0  0.960507  0
H  H20  1  0.75236160  0.03450855  0.59965645  1  0  0.424524  0  0.881527  0  0  0.391886  0  0.948459  0  0  0.403194  0  0.93182  0  0  0.280937  0.383697  0  0.960505  0
C  C21  1  0.83556074  0.22392009  0.25118108  1  0  0.232788  0  3.709569  0  0  0.164183  0  3.993356  0  0  0.179058  0  4.005481  0  0  0.147164  0.154484  0  3.984856  0
C  C22  1  0.16443977  0.77608068  0.74881912  1  0  0.232847  0  3.709499  0  0  0.164215  0  3.993275  0  0  0.179086  0  4.005403  0  0  0.147167  0.154524  0  3.984774  0
C  C23  1  0.83410566  0.29158867  0.07888969  1  0  0.207455  0  3.678141  0  0  0.150553  0  3.943709  0  0  0.1634  0  3.955881  0  0  0.141226  0.141934  0  3.934929  0
C  C24  1  0.16589439  0.70841095  0.92111080  1  0  0.207466  0  3.678136  0  0  0.150556  0  3.943697  0  0  0.1634  0  3.955873  0  0  0.141236  0.141948  0  3.93491  0
C  C25  1  0.29442646  0.27131926  0.23411973  1  0  0.220703  0  3.735583  0  0  0.157565  0  4.007402  0  0  0.170976  0  4.021528  0  0  0.143986  0.148913  0  3.997401  0
C  C26  1  0.70557460  0.72868035  0.76587989  1  0  0.220695  0  3.735631  0  0  0.157563  0  4.00745  0  0  0.170974  0  4.021575  0  0  0.143991  0.148908  0  3.997456  0
C  C27  1  0.31087371  0.30985589  0.06297749  1  0  0.216975  0  3.685699  0  0  0.159985  0  3.952656  0  0  0.173023  0  3.96638  0  0  0.143638  0.151091  0  3.943185  0
C  C28  1  0.68912580  0.69014488  0.93702280  1  0  0.216942  0  3.685614  0  0  0.159951  0  3.95258  0  0  0.172989  0  3.966305  0  0  0.143629  0.151061  0  3.943101  0
C  C29  1  0.32124450  0.76475086  0.24316336  1  0  0.226553  0  3.693356  0  0  0.170228  0  3.9545  0  0  0.182924  0  3.970884  0  0  0.151018  0.162151  0  3.942594  0
C  C30  1  0.67875656  0.23524875  0.75683627  1  0  0.226615  0  3.693404  0  0  0.170292  0  3.954536  0  0  0.18299  0  3.970921  0  0  0.151024  0.162208  0  3.942638  0
C  C31  1  0.33217139  0.82317783  0.07137074  1  0  0.221156  0  3.681841  0  0  0.16446  0  3.950905  0  0  0.177519  0  3.964038  0  0  0.147442  0.155477  0  3.941957  0
C  C32  1  0.66782758  0.17682409  0.92862936  1  0  0.221176  0  3.681792  0  0  0.1645  0  3.950861  0  0  0.177568  0  3.963985  0  0  0.147452  0.155526  0  3.9419  0
C  C33  1  0.49120970  0.27301076  0.50873550  1  0  0.705119  0  3.884258  0  0  0.650164  0  4.188425  0  0  0.685494  0  4.177633  0  0  0.217712  0.626136  0  4.195137  0
C  C34  1  0.50879088  0.72698772  0.49126519  1  0  0.705124  0  3.884228  0  0  0.650177  0  4.188408  0  0  0.685507  0  4.17761  0  0  0.217725  0.626142  0  4.195128  0
C  C35  1  0.39767760  0.25851048  0.60795678  1  0  -0.235439  0  3.788842  0  0  -0.240084  0  4.059844  0  0  -0.247568  0  4.076364  0  0  -0.035835  -0.23549  0  4.049444  0
C  C36  1  0.60232252  0.74148685  0.39204341  1  0  -0.235404  0  3.788793  0  0  -0.240117  0  4.059883  0  0  -0.2476  0  4.076403  0  0  -0.035787  -0.235504  0  4.049458  0
C  C37  1  0.30173608  0.38446541  0.65148617  1  0  0.200013  0  3.799863  0  0  0.166244  0  4.101632  0  0  0.176422  0  4.110052  0  0  0.087809  0.159002  0  4.096696  0
C  C38  1  0.69826197  0.61553421  0.34851372  1  0  0.199973  0  3.799852  0  0  0.166224  0  4.101639  0  0  0.176401  0  4.110061  0  0  0.087793  0.158975  0  4.0967  0
C  C39  1  0.39699821  0.12012103  0.65695644  1  0  0.199266  0  3.797918  0  0  0.166152  0  4.099737  0  0  0.176121  0  4.108347  0  0  0.088385  0.15902  0  4.094636  0
C  C40  1  0.60300138  0.87987744  0.34304356  1  0  0.199318  0  3.797824  0  0  0.166223  0  4.09965  0  0  0.176192  0  4.108262  0  0  0.088387  0.159078  0  4.094554  0
C  C41  1  0.21090914  0.37155822  0.74011639  1  0  0.184846  0  3.796291  0  0  0.153192  0  4.094049  0  0  0.161936  0  4.101496  0  0  0.084691  0.146723  0  4.089877  0
C  C42  1  0.78908784  0.62844369  0.25988156  1  0  0.184894  0  3.796248  0  0  0.153238  0  4.094032  0  0  0.161985  0  4.101481  0  0  0.08473  0.146767  0  4.089861  0
C  C43  1  0.30663437  0.10800003  0.74604302  1  0  0.190843  0  3.792439  0  0  0.15348  0  4.093762  0  0  0.162316  0  4.101313  0  0  0.084172  0.146905  0  4.089725  0
C  C44  1  0.69336360  0.89200189  0.25395640  1  0  0.190752  0  3.792425  0  0  0.153411  0  4.093747  0  0  0.162246  0  4.101299  0  0  0.084147  0.146839  0  4.089701  0
C  C45  1  0.21101491  0.23329016  0.78913439  1  0  -0.191533  0  3.769788  0  0  -0.19847  0  4.042552  0  0  -0.20098  0  4.054234  0  0  -0.024662  -0.197312  0  4.035705  0
C  C46  1  0.78898212  0.76670947  0.21086559  1  0  -0.191454  0  3.769711  0  0  -0.198425  0  4.042511  0  0  -0.20094  0  4.054196  0  0  -0.024653  -0.197262  0  4.035647  0
C  C47  1  0.10557530  0.22124349  0.88310285  1  0  0.686906  0  3.938112  0  0  0.635057  0  4.24867  0  0  0.669269  0  4.237804  0  0  0.208547  0.61169  0  4.255561  0
C  C48  1  0.89442267  0.77875842  0.11689656  1  0  0.686803  0  3.938166  0  0  0.634976  0  4.24871  0  0  0.669193  0  4.237839  0  0  0.208515  0.611609  0  4.255598  0
N  N49  1  0.69076315  0.31628518  0.21967162  1  0  -0.291961  0  3.268844  0  0  -0.223162  0  3.587381  0  0  -0.240207  0  3.599846  0  0  -0.263797  -0.211561  0  3.57859  0
N  N50  1  0.30923689  0.68371445  0.78033042  1  0  -0.292008  0  3.268957  0  0  -0.223214  0  3.587497  0  0  -0.240257  0  3.599964  0  0  -0.263813  -0.211619  0  3.578722  0
N  N51  1  0.69001722  0.35921250  0.10900262  1  0  -0.260008  0  3.206354  0  0  -0.197597  0  3.493067  0  0  -0.212861  0  3.510891  0  0  -0.251584  -0.186581  0  3.480677  0
N  N52  1  0.30998336  0.64078597  0.89099806  1  0  -0.260004  0  3.206392  0  0  -0.197564  0  3.493048  0  0  -0.212827  0  3.510875  0  0  -0.251568  -0.186554  0  3.480666  0
N  N53  1  0.92958139  0.20575083  0.16530177  1  0  -0.432321  0  3.267658  0  0  -0.343475  0  3.570764  0  0  -0.366211  0  3.579854  0  0  -0.362061  -0.326403  0  3.562662  0
N  N54  1  0.07041866  0.79424879  0.83469872  1  0  -0.432307  0  3.267567  0  0  -0.343464  0  3.570681  0  0  -0.366198  0  3.579769  0  0  -0.362058  -0.326395  0  3.562576  0
N  N55  1  0.36930518  0.35159824  0.20246279  1  0  -0.273488  0  3.246207  0  0  -0.201522  0  3.54679  0  0  -0.21794  0  3.56041  0  0  -0.258777  -0.190316  0  3.537106  0
N  N56  1  0.63069433  0.64840252  0.79753673  1  0  -0.273498  0  3.246261  0  0  -0.201525  0  3.546836  0  0  -0.217942  0  3.560456  0  0  -0.25877  -0.190324  0  3.53717  0
N  N57  1  0.37980596  0.37708433  0.09250952  1  0  -0.24954  0  3.170699  0  0  -0.190283  0  3.45249  0  0  -0.204748  0  3.470269  0  0  -0.238519  -0.179913  0  3.440174  0
N  N58  1  0.62019402  0.62291759  0.90749049  1  0  -0.249536  0  3.170674  0  0  -0.19029  0  3.452479  0  0  -0.204754  0  3.470255  0  0  -0.238558  -0.179925  0  3.440172  0
N  N59  1  0.25592914  0.24120203  0.14931142  1  0  -0.432656  0  3.26355  0  0  -0.34343  0  3.561425  0  0  -0.366335  0  3.571935  0  0  -0.359231  -0.326556  0  3.552648  0
N  N60  1  0.74407091  0.75879758  0.85068829  1  0  -0.43258  0  3.263496  0  0  -0.343353  0  3.561364  0  0  -0.366259  0  3.571876  0  0  -0.359165  -0.326472  0  3.552574  0
N  N61  1  0.39769896  0.63392851  0.21162657  1  0  -0.280607  0  3.237365  0  0  -0.207356  0  3.53864  0  0  -0.224644  0  3.553015  0  0  -0.259219  -0.195468  0  3.52818  0
N  N62  1  0.60230210  0.36607110  0.78837305  1  0  -0.280688  0  3.237432  0  0  -0.207425  0  3.538702  0  0  -0.224711  0  3.553075  0  0  -0.259221  -0.195527  0  3.528242  0
N  N63  1  0.40418403  0.67103127  0.10110365  1  0  -0.254272  0  3.142238  0  0  -0.196386  0  3.422896  0  0  -0.210606  0  3.440746  0  0  -0.238065  -0.186148  0  3.410688  0
N  N64  1  0.59581447  0.32896950  0.89889673  1  0  -0.254188  0  3.142169  0  0  -0.196334  0  3.422842  0  0  -0.210556  0  3.440693  0  0  -0.238038  -0.186109  0  3.410644  0
N  N65  1  0.27881620  0.88708750  0.15759936  1  0  -0.426799  0  3.257194  0  0  -0.336607  0  3.553462  0  0  -0.359454  0  3.563868  0  0  -0.357604  -0.319496  0  3.544541  0
N  N66  1  0.72118231  0.11291327  0.84240025  1  0  -0.426901  0  3.257228  0  0  -0.336707  0  3.553485  0  0  -0.359556  0  3.563891  0  0  -0.357652  -0.319596  0  3.54456  0
O  O67  1  0.41109000  0.38218319  0.42971608  1  0  -0.607423  0  2.046658  0  0  -0.533505  0  2.320329  0  0  -0.56068  0  2.301941  0  0  -0.325223  -0.514561  0  2.332207  0
O  O68  1  0.58891059  0.61781528  0.57028460  1  0  -0.607486  0  2.046652  0  0  -0.533544  0  2.320302  0  0  -0.560716  0  2.30191  0  0  -0.325255  -0.514597  0  2.332186  0
O  O69  1  0.63150048  0.18382793  0.50794170  1  0  -0.608981  0  1.942099  0  0  -0.565583  0  2.160468  0  0  -0.588657  0  2.147435  0  0  -0.308635  -0.5493  0  2.168959  0
O  O70  1  0.36850111  0.81617053  0.49205890  1  0  -0.608976  0  1.942102  0  0  -0.565578  0  2.160469  0  0  -0.588653  0  2.147433  0  0  -0.308653  -0.549295  0  2.168967  0
O  O71  1  0.97055976  0.26828073  0.85927224  1  0  -0.555  0  1.888599  0  0  -0.523477  0  2.096984  0  0  -0.546155  0  2.090005  0  0  -0.314105  -0.507211  0  2.10112  0
O  O72  1  0.02943875  0.73172004  0.14072737  1  0  -0.554951  0  1.888648  0  0  -0.523433  0  2.09702  0  0  -0.546108  0  2.090039  0  0  -0.314091  -0.507171  0  2.101156  0
O  O73  1  0.17206518  0.16325746  0.97542313  1  0  -0.665255  0  2.031381  0  0  -0.59992  0  2.299365  0  0  -0.627505  0  2.284495  0  0  -0.331042  -0.580507  0  2.308948  0
O  O74  1  0.82793179  0.83674445  0.02457637  1  0  -0.665247  0  2.031354  0  0  -0.599927  0  2.299336  0  0  -0.627513  0  2.284461  0  0  -0.331053  -0.580518  0  2.308918  0
O  O75  1  0.16519133  0.05054148  0.34886401  1  0  -0.83011  0  1.807374  0  0  -0.785092  0  1.988757  0  0  -0.802029  0  1.960655  0  0  -0.582578  -0.773761  0  2.010183  0
O  O76  1  0.83480972  0.94945813  0.65113639  1  0  -0.830124  0  1.807304  0  0  -0.785113  0  1.9887  0  0  -0.802051  0  1.960596  0  0  -0.582584  -0.773782  0  2.01013  0
F  F77  1  0.29705189  0.52240223  0.60777442  1  0  -0.16608  0  1.237253  0  0  -0.121497  0  1.411364  0  0  -0.129241  0  1.400346  0  0  -0.088823  -0.116018  0  1.419125  0
F  F78  1  0.70294716  0.47759738  0.39222460  1  0  -0.166062  0  1.237268  0  0  -0.121475  0  1.411376  0  0  -0.129221  0  1.400359  0  0  -0.088821  -0.115996  0  1.41914  0
F  F79  1  0.48073928  0.99600301  0.61477911  1  0  -0.162567  0  1.257681  0  0  -0.11908  0  1.433496  0  0  -0.127579  0  1.423545  0  0  -0.084766  -0.112916  0  1.440365  0
F  F80  1  0.51926183  0.00399432  0.38522332  1  0  -0.16259  0  1.257669  0  0  -0.119106  0  1.433482  0  0  -0.127605  0  1.423533  0  0  -0.084774  -0.112945  0  1.440356  0
F  F81  1  0.11939997  0.49763019  0.77938672  1  0  -0.159871  0  1.220515  0  0  -0.115099  0  1.386896  0  0  -0.123156  0  1.378154  0  0  -0.091248  -0.109356  0  1.393245  0
F  F82  1  0.88059655  0.50237057  0.22061074  1  0  -0.159893  0  1.220488  0  0  -0.115119  0  1.386869  0  0  -0.123175  0  1.378127  0  0  -0.091274  -0.109378  0  1.393223  0
F  F83  1  0.31035151  0.97037776  0.79043390  1  0  -0.163822  0  1.249588  0  0  -0.104446  0  1.405552  0  0  -0.112788  0  1.397255  0  0  -0.081901  -0.098586  0  1.411536  0
F  F84  1  0.68964752  0.02962187  0.20956745  1  0  -0.163803  0  1.249648  0  0  -0.104426  0  1.405607  0  0  -0.112769  0  1.397307  0  0  -0.081897  -0.098569  0  1.411585  0
