# generated using pymatgen
data_CaH12C8(N4O3)2
_symmetry_space_group_name_H-M   'P 1'
_cell_length_a   7.28008005
_cell_length_b   10.18302667
_cell_length_c   11.00818543
_cell_angle_alpha   62.44759018
_cell_angle_beta   83.74055307
_cell_angle_gamma   76.35255157
_symmetry_Int_Tables_number   1
_chemical_formula_structural   CaH12C8(N4O3)2
_chemical_formula_sum   'Ca2 H24 C16 N16 O12'
_cell_volume   703.09228882
_cell_formula_units_Z   2
loop_
 _symmetry_equiv_pos_site_id
 _symmetry_equiv_pos_as_xyz
  1  'x, y, z'
loop_
 _atom_site_type_symbol
 _atom_site_label
 _atom_site_symmetry_multiplicity
 _atom_site_fract_x
 _atom_site_fract_y
 _atom_site_fract_z
 _atom_site_occupancy
 _atom_site_hle17_bader_spin_density
 _atom_site_hle17_ddec_charge
 _atom_site_hle17_ddec_spin_density
 _atom_site_hle17_ddec_sum_bond_order
 _atom_site_hle17_magmom
 _atom_site_hse06_10hf_bader_spin_density
 _atom_site_hse06_10hf_ddec_charge
 _atom_site_hse06_10hf_ddec_spin_density
 _atom_site_hse06_10hf_ddec_sum_bond_order
 _atom_site_hse06_10hf_magmom
 _atom_site_hse06_bader_spin_density
 _atom_site_hse06_ddec_charge
 _atom_site_hse06_ddec_spin_density
 _atom_site_hse06_ddec_sum_bond_order
 _atom_site_hse06_magmom
 _atom_site_pbe_bader_spin_density
 _atom_site_pbe_cm5_charge
 _atom_site_pbe_ddec_charge
 _atom_site_pbe_ddec_spin_density
 _atom_site_pbe_ddec_sum_bond_order
 _atom_site_pbe_magmom
Ca  Ca0  1  0.75013017  0.07340257  0.85324230  1  0  1.567999  0  1.085161  0  0  1.440486  0  1.437002  0  0  1.483866  0  1.389982  0  0  0.876705  1.407508  0  1.470793  0
Ca  Ca1  1  0.24987797  0.92659689  0.14675611  1  0  1.568037  0  1.08511  0  0  1.440609  0  1.436795  0  0  1.483987  0  1.389779  0  0  0.876709  1.40763  0  1.470583  0
H  H2  1  0.95959981  0.94663420  0.67565343  1  0  0.386106  0  0.931555  0  0  0.345007  0  1.013704  0  0  0.35537  0  0.998597  0  0  0.291084  0.337723  0  1.024344  0
H  H3  1  0.54016599  0.37759647  0.67563588  1  0  0.386443  0  0.930936  0  0  0.345338  0  1.013139  0  0  0.355698  0  0.998039  0  0  0.290832  0.338057  0  1.02377  0
H  H4  1  0.04041004  0.05335831  0.32435745  1  0  0.386134  0  0.931525  0  0  0.345029  0  1.013684  0  0  0.355394  0  0.998575  0  0  0.291084  0.337745  0  1.024324  0
H  H5  1  0.45982775  0.62241129  0.32436243  1  0  0.386117  0  0.931328  0  0  0.345011  0  1.013547  0  0  0.35537  0  0.998448  0  0  0.290688  0.33773  0  1.024177  0
H  H6  1  0.99088385  0.11773774  0.59933234  1  0  0.391346  0  0.927033  0  0  0.351461  0  1.00639  0  0  0.362458  0  0.99062  0  0  0.286356  0.343733  0  1.017398  0
H  H7  1  0.50957723  0.28278311  0.59914232  1  0  0.392125  0  0.926199  0  0  0.352108  0  1.005615  0  0  0.363116  0  0.989844  0  0  0.286519  0.344379  0  1.016622  0
H  H8  1  0.00912308  0.88225451  0.40067326  1  0  0.391307  0  0.927074  0  0  0.351427  0  1.006412  0  0  0.362423  0  0.990643  0  0  0.286325  0.3437  0  1.017421  0
H  H9  1  0.49041875  0.71721982  0.40085737  1  0  0.392158  0  0.92618  0  0  0.352135  0  1.005597  0  0  0.363144  0  0.989819  0  0  0.286541  0.344405  0  1.016606  0
H  H10  1  0.15498201  0.37673012  0.59943239  1  0  0.113341  0  0.927764  0  0  0.126911  0  0.987292  0  0  0.129117  0  0.98622  0  0  0.112377  0.125471  0  0.987934  0
H  H11  1  0.34533216  0.02409532  0.59947795  1  0  0.113758  0  0.927873  0  0  0.127166  0  0.98759  0  0  0.12935  0  0.986497  0  0  0.11235  0.125717  0  0.988231  0
H  H12  1  0.84500738  0.62327931  0.40055873  1  0  0.113339  0  0.92779  0  0  0.126971  0  0.987286  0  0  0.129173  0  0.986217  0  0  0.11244  0.125523  0  0.987909  0
H  H13  1  0.65467596  0.97590505  0.40051955  1  0  0.113824  0  0.927902  0  0  0.127227  0  0.987573  0  0  0.129411  0  0.98648  0  0  0.11238  0.12578  0  0.988213  0
H  H14  1  0.19106126  0.54499282  0.45219293  1  0  0.113985  0  0.943254  0  0  0.123108  0  1.011908  0  0  0.125782  0  1.009868  0  0  0.112201  0.121063  0  1.013796  0
H  H15  1  0.30866173  0.00321264  0.45228081  1  0  0.113518  0  0.944225  0  0  0.12276  0  1.01314  0  0  0.125372  0  1.0111  0  0  0.112203  0.120741  0  1.014994  0
H  H16  1  0.80891278  0.45501705  0.54780481  1  0  0.113976  0  0.943179  0  0  0.123221  0  1.011762  0  0  0.125895  0  1.009718  0  0  0.112226  0.121158  0  1.013656  0
H  H17  1  0.69134255  0.99679744  0.54771722  1  0  0.113707  0  0.944021  0  0  0.122891  0  1.012981  0  0  0.125502  0  1.010943  0  0  0.112206  0.12087  0  1.014844  0
H  H18  1  0.14047055  0.38206509  0.95458833  1  0  0.127327  0  0.917027  0  0  0.132982  0  0.989098  0  0  0.136123  0  0.98518  0  0  0.130884  0.130664  0  0.991594  0
H  H19  1  0.35903612  0.66358269  0.95461783  1  0  0.126948  0  0.916679  0  0  0.132274  0  0.989261  0  0  0.135468  0  0.985308  0  0  0.130535  0.129967  0  0.99171  0
H  H20  1  0.85953805  0.61792205  0.04542793  1  0  0.127252  0  0.917008  0  0  0.132946  0  0.98907  0  0  0.136087  0  0.985151  0  0  0.130892  0.130629  0  0.991567  0
H  H21  1  0.64096827  0.33640751  0.04537638  1  0  0.126961  0  0.916607  0  0  0.132267  0  0.989217  0  0  0.135458  0  0.98527  0  0  0.13054  0.129951  0  0.991668  0
H  H22  1  0.27847570  0.32881471  0.83438816  1  0  0.133743  0  0.936183  0  0  0.142736  0  1.004901  0  0  0.145403  0  1.001862  0  0  0.132514  0.1408  0  1.006609  0
H  H23  1  0.22127778  0.83718963  0.83434547  1  0  0.132783  0  0.936338  0  0  0.142118  0  1.004698  0  0  0.144721  0  1.001757  0  0  0.131881  0.140223  0  1.006397  0
H  H24  1  0.72153946  0.67118493  0.16560319  1  0  0.133787  0  0.936216  0  0  0.142741  0  1.004972  0  0  0.145419  0  1.001921  0  0  0.132549  0.140805  0  1.00668  0
H  H25  1  0.77872044  0.16280847  0.16565562  1  0  0.132759  0  0.93637  0  0  0.142103  0  1.004705  0  0  0.144703  0  1.001766  0  0  0.131889  0.140201  0  1.006397  0
C  C26  1  0.01359823  0.25900051  0.88313623  1  0  0.711113  0  3.902782  0  0  0.666734  0  4.201019  0  0  0.700191  0  4.191861  0  0  0.228409  0.643906  0  4.205732  0
C  C27  1  0.48632294  0.85788330  0.88342105  1  0  0.709693  0  3.903594  0  0  0.664825  0  4.202482  0  0  0.698263  0  4.193419  0  0  0.227486  0.64202  0  4.207162  0
C  C28  1  0.98642914  0.74098353  0.11686701  1  0  0.711244  0  3.902594  0  0  0.666763  0  4.201021  0  0  0.70022  0  4.191863  0  0  0.228458  0.643936  0  4.205734  0
C  C29  1  0.51369032  0.14211090  0.11657236  1  0  0.709847  0  3.903143  0  0  0.664791  0  4.202299  0  0  0.698227  0  4.193236  0  0  0.227456  0.641978  0  4.206976  0
C  C30  1  0.09068387  0.49528185  0.53376094  1  0  -0.179345  0  3.653039  0  0  -0.222256  0  3.908299  0  0  -0.224257  0  3.914764  0  0  -0.141605  -0.221077  0  3.903404  0
C  C31  1  0.40922678  0.97115491  0.53379923  1  0  -0.179903  0  3.654391  0  0  -0.222825  0  3.90981  0  0  -0.22471  0  3.916274  0  0  -0.141863  -0.22159  0  3.904764  0
C  C32  1  0.90928652  0.50472700  0.46623563  1  0  -0.179447  0  3.652895  0  0  -0.222524  0  3.908189  0  0  -0.224574  0  3.914769  0  0  -0.141719  -0.221202  0  3.90311  0
C  C33  1  0.59078265  0.02885496  0.46619442  1  0  -0.180449  0  3.65457  0  0  -0.223185  0  3.909782  0  0  -0.225069  0  3.916247  0  0  -0.141923  -0.221964  0  3.904758  0
C  C34  1  0.05034803  0.58087670  0.61576740  1  0  0.324903  0  3.638164  0  0  0.279396  0  3.917948  0  0  0.302531  0  3.933072  0  0  0.252276  0.270499  0  3.908761  0
C  C35  1  0.44918166  0.80351983  0.61581218  1  0  0.325416  0  3.636029  0  0  0.280027  0  3.916203  0  0  0.302793  0  3.931398  0  0  0.252932  0.271155  0  3.906975  0
C  C36  1  0.94963895  0.41912427  0.38423780  1  0  0.325111  0  3.637807  0  0  0.279502  0  3.917751  0  0  0.302663  0  3.932869  0  0  0.252305  0.270588  0  3.908544  0
C  C37  1  0.55081810  0.19648893  0.38418277  1  0  0.325719  0  3.635935  0  0  0.280337  0  3.916129  0  0  0.303094  0  3.931318  0  0  0.253111  0.271467  0  3.906905  0
C  C38  1  0.13439225  0.37301889  0.85976543  1  0  -0.188682  0  3.613782  0  0  -0.263842  0  3.867398  0  0  -0.254904  0  3.874977  0  0  -0.046092  -0.263385  0  3.865037  0
C  C39  1  0.36533409  0.76746899  0.85984583  1  0  -0.187716  0  3.614004  0  0  -0.262375  0  3.867996  0  0  -0.253713  0  3.875302  0  0  -0.045307  -0.261985  0  3.865741  0
C  C40  1  0.86561524  0.62697707  0.14023983  1  0  -0.18865  0  3.61379  0  0  -0.263812  0  3.867425  0  0  -0.254859  0  3.875011  0  0  -0.046207  -0.263359  0  3.865068  0
C  C41  1  0.63466154  0.23252544  0.14015221  1  0  -0.187808  0  3.614043  0  0  -0.262309  0  3.868024  0  0  -0.253653  0  3.875325  0  0  -0.045302  -0.261884  0  3.865731  0
N  N42  1  0.01709096  0.64169277  0.78618960  1  0  -0.090295  0  2.838553  0  0  -0.111153  0  3.119771  0  0  -0.099842  0  3.134577  0  0  -0.067796  -0.112284  0  3.1135  0
N  N43  1  0.48246474  0.57231293  0.78629840  1  0  -0.091491  0  2.8374  0  0  -0.112161  0  3.118837  0  0  -0.101124  0  3.133436  0  0  -0.068332  -0.113341  0  3.112636  0
N  N44  1  0.98289775  0.35830379  0.21381883  1  0  -0.090317  0  2.838613  0  0  -0.111211  0  3.119812  0  0  -0.099875  0  3.134631  0  0  -0.067876  -0.112347  0  3.113549  0
N  N45  1  0.51753770  0.42768647  0.21369456  1  0  -0.091537  0  2.837311  0  0  -0.112152  0  3.118771  0  0  -0.101127  0  3.133377  0  0  -0.068416  -0.113335  0  3.112575  0
N  N46  1  0.06639280  0.52548385  0.75312254  1  0  0.01578  0  3.520143  0  0  0.122773  0  3.720564  0  0  0.082146  0  3.779228  0  0  -0.109712  0.130184  0  3.704976  0
N  N47  1  0.43329678  0.72163165  0.75318466  1  0  0.017338  0  3.516678  0  0  0.123844  0  3.718041  0  0  0.084067  0  3.775507  0  0  -0.109249  0.13126  0  3.702487  0
N  N48  1  0.93360768  0.47451537  0.24687963  1  0  0.015638  0  3.520254  0  0  0.122769  0  3.720572  0  0  0.082063  0  3.779322  0  0  -0.109667  0.130178  0  3.704989  0
N  N49  1  0.56670435  0.27837106  0.24681065  1  0  0.017383  0  3.516549  0  0  0.123669  0  3.718196  0  0  0.083919  0  3.775634  0  0  -0.10929  0.131078  0  3.702635  0
N  N50  1  0.99251346  0.73108774  0.56460486  1  0  -0.309303  0  2.990215  0  0  -0.273193  0  3.267549  0  0  -0.286309  0  3.276368  0  0  -0.198996  -0.264282  0  3.2594  0
N  N51  1  0.50674361  0.70444476  0.56468367  1  0  -0.309464  0  2.990477  0  0  -0.273458  0  3.267837  0  0  -0.286579  0  3.276811  0  0  -0.19944  -0.264549  0  3.25968  0
N  N52  1  0.00747280  0.26891248  0.43540447  1  0  -0.309269  0  2.990239  0  0  -0.273124  0  3.267582  0  0  -0.286236  0  3.276394  0  0  -0.198977  -0.264217  0  3.259435  0
N  N53  1  0.49326302  0.29556623  0.43530892  1  0  -0.309486  0  2.990402  0  0  -0.27347  0  3.267747  0  0  -0.286589  0  3.276729  0  0  -0.199469  -0.26456  0  3.259588  0
N  N54  1  0.97391705  0.76404491  0.67159414  1  0  -0.056681  0  3.052012  0  0  -0.035711  0  3.353669  0  0  -0.034708  0  3.359255  0  0  -0.062097  -0.03614  0  3.348011  0
N  N55  1  0.52535158  0.56450400  0.67171670  1  0  -0.057187  0  3.052218  0  0  -0.036097  0  3.3537  0  0  -0.035094  0  3.359379  0  0  -0.062139  -0.036517  0  3.348045  0
N  N56  1  0.02606927  0.23595256  0.32841791  1  0  -0.056686  0  3.052146  0  0  -0.035719  0  3.353815  0  0  -0.034714  0  3.359392  0  0  -0.062044  -0.036149  0  3.348158  0
N  N57  1  0.47465356  0.43550480  0.32827249  1  0  -0.057199  0  3.052157  0  0  -0.036062  0  3.353531  0  0  -0.035062  0  3.359213  0  0  -0.062071  -0.036481  0  3.347875  0
O  O58  1  0.97030237  0.03352033  0.69033771  1  0  -0.871756  0  1.873064  0  0  -0.812593  0  2.071119  0  0  -0.833131  0  2.039064  0  0  -0.630185  -0.797813  0  2.093231  0
O  O59  1  0.52986469  0.27599172  0.69020065  1  0  -0.873146  0  1.872096  0  0  -0.813761  0  2.070435  0  0  -0.834278  0  2.038217  0  0  -0.630361  -0.799024  0  2.092663  0
O  O60  1  0.02971161  0.96647370  0.30967159  1  0  -0.871707  0  1.873026  0  0  -0.812568  0  2.071094  0  0  -0.833103  0  2.03904  0  0  -0.630139  -0.797789  0  2.093203  0
O  O61  1  0.47013463  0.72401472  0.30979886  1  0  -0.872915  0  1.872381  0  0  -0.813496  0  2.070609  0  0  -0.834008  0  2.038405  0  0  -0.630256  -0.79876  0  2.092838  0
O  O62  1  0.89238696  0.28973093  0.79498877  1  0  -0.684847  0  1.943175  0  0  -0.630461  0  2.178918  0  0  -0.657251  0  2.170209  0  0  -0.35322  -0.610984  0  2.183488  0
O  O63  1  0.60721160  0.91563516  0.79517057  1  0  -0.683804  0  1.941465  0  0  -0.629411  0  2.177405  0  0  -0.656197  0  2.16875  0  0  -0.352737  -0.609942  0  2.181953  0
O  O64  1  0.10760865  0.71026785  0.20499821  1  0  -0.684673  0  1.943851  0  0  -0.630359  0  2.179724  0  0  -0.657139  0  2.171008  0  0  -0.353191  -0.610892  0  2.184298  0
O  O65  1  0.39280143  0.08434071  0.20485680  1  0  -0.684006  0  1.940596  0  0  -0.6295  0  2.176543  0  0  -0.656298  0  2.167898  0  0  -0.352716  -0.610027  0  2.181093  0
O  O66  1  0.05120081  0.13716446  0.99278934  1  0  -0.720552  0  1.978186  0  0  -0.662032  0  2.226563  0  0  -0.690509  0  2.216398  0  0  -0.37429  -0.64175  0  2.232999  0
O  O67  1  0.44895779  0.86951957  0.99333102  1  0  -0.719469  0  1.977819  0  0  -0.660761  0  2.226534  0  0  -0.689238  0  2.216425  0  0  -0.374142  -0.640479  0  2.232927  0
O  O68  1  0.94879633  0.86284499  0.00719150  1  0  -0.720811  0  1.977438  0  0  -0.662204  0  2.225881  0  0  -0.690692  0  2.215719  0  0  -0.374387  -0.641917  0  2.232314  0
O  O69  1  0.55103067  0.13047078  0.00667909  1  0  -0.719363  0  1.978085  0  0  -0.660676  0  2.22704  0  0  -0.689144  0  2.216929  0  0  -0.374127  -0.640401  0  2.233437  0
