# generated using pymatgen
data_Cu7H14(C10N9)2
_symmetry_space_group_name_H-M   'P 1'
_cell_length_a   8.34674288
_cell_length_b   9.40238438
_cell_length_c   9.72729044
_cell_angle_alpha   67.81876907
_cell_angle_beta   70.83555283
_cell_angle_gamma   81.12374862
_symmetry_Int_Tables_number   1
_chemical_formula_structural   Cu7H14(C10N9)2
_chemical_formula_sum   'Cu7 H14 C20 N18'
_cell_volume   667.31714252
_cell_formula_units_Z   1
loop_
 _symmetry_equiv_pos_site_id
 _symmetry_equiv_pos_as_xyz
  1  'x, y, z'
loop_
 _atom_site_type_symbol
 _atom_site_label
 _atom_site_symmetry_multiplicity
 _atom_site_fract_x
 _atom_site_fract_y
 _atom_site_fract_z
 _atom_site_occupancy
 _atom_site_pbe_cm5_charge
 _atom_site_pbe_ddec_charge
 _atom_site_pbe_ddec_spin_density
 _atom_site_pbe_ddec_sum_bond_order
 _atom_site_pbe_magmom
Cu  Cu0  1  0.44220035  0.66919802  0.06636279  1  0.588087  0.381422  -0.006996  2.513138  -0.003
Cu  Cu1  1  0.55778998  0.33079832  0.93365076  1  0.588097  0.381362  -0.007002  2.513249  -0.003
Cu  Cu2  1  0.51994205  0.21963811  0.59359979  1  0.547896  0.350682  -0.069973  2.901459  -0.027
Cu  Cu3  1  0.48006862  0.78038153  0.40639039  1  0.547979  0.350736  -0.069975  2.90131  -0.027
Cu  Cu4  1  0.97695306  0.94865406  0.31797864  1  0.443566  0.346334  -0.017323  2.446424  -0.008
Cu  Cu5  1  0.02304326  0.05132509  0.68204667  1  0.443606  0.346339  -0.017338  2.44637  -0.008
Cu  Cu6  1  0.99998542  0.00002253  0.99995418  1  0.345271  0.191563  -0.019816  2.703955  -0.008
H  H7  1  0.06401462  0.46720026  0.65497629  1  0.106992  0.126755  -0.000402  1.018469  0.0
H  H8  1  0.93598855  0.53279398  0.34502519  1  0.106997  0.126742  -0.000402  1.0185  0.0
H  H9  1  0.80058943  0.54113146  0.56880143  1  0.1051  0.103219  -0.002536  1.012577  0.0
H  H10  1  0.19940889  0.45885810  0.43120927  1  0.105105  0.103214  -0.002536  1.012622  0.0
H  H11  1  0.59571372  0.73610932  0.65141507  1  0.097961  0.111386  -0.004879  1.042753  0.0
H  H12  1  0.40428197  0.26388254  0.34858628  1  0.097962  0.111369  -0.004878  1.042757  0.0
H  H13  1  0.12178615  0.77141006  0.92834047  1  0.125072  0.088454  -0.001714  1.07383  0.0
H  H14  1  0.87820304  0.22858397  0.07167425  1  0.125035  0.088396  -0.001713  1.073825  0.0
H  H15  1  0.54200722  0.91852911  0.79449364  1  0.298928  0.301716  0.000206  0.955747  0.0
H  H16  1  0.45799070  0.08146853  0.20550293  1  0.298909  0.301685  0.000206  0.955815  0.0
H  H17  1  0.66700258  0.91437611  0.90091797  1  0.303324  0.312281  -0.000452  0.934105  0.0
H  H18  1  0.33299661  0.08562155  0.09907721  1  0.303291  0.312251  -0.000452  0.934075  0.0
H  H19  1  0.25750418  0.38764358  0.78079488  1  0.141586  0.116582  -0.000421  1.028076  0.0
H  H20  1  0.74250223  0.61236106  0.21919884  1  0.141558  0.116503  -0.00042  1.028144  0.0
C  C21  1  0.99432130  0.62561975  0.78137496  1  0.215859  0.323748  -0.000688  4.062709  0.0
C  C22  1  0.00568030  0.37438023  0.21862283  1  0.215838  0.323789  -0.000688  4.062698  0.0
C  C23  1  0.97329246  0.55343530  0.68785273  1  -0.10193  -0.23792  -0.000634  3.958171  0.0
C  C24  1  0.02670677  0.44656119  0.31214903  1  -0.101919  -0.237868  -0.000634  3.958236  0.0
C  C25  1  0.82648794  0.59538078  0.63993572  1  -0.074265  -0.009119  -0.002147  4.025627  0.0
C  C26  1  0.17351250  0.40461688  0.36006529  1  -0.074255  -0.009139  -0.002148  4.025747  0.0
C  C27  1  0.71072976  0.70229879  0.68738589  1  -0.097754  -0.229221  -0.006327  3.947987  -0.003
C  C28  1  0.28927057  0.29770118  0.31261019  1  -0.097737  -0.229151  -0.006326  3.948036  -0.003
C  C29  1  0.74196958  0.76287996  0.78783435  1  0.217211  0.43368  -0.000982  4.054798  -0.001
C  C30  1  0.25803070  0.23712117  0.21215928  1  0.217132  0.433608  -0.000982  4.054896  -0.001
C  C31  1  0.19068384  0.67133397  0.90499205  1  0.163749  0.127672  -0.001779  3.858122  -0.001
C  C32  1  0.80931025  0.32866359  0.09501488  1  0.163808  0.127821  -0.001778  3.858145  -0.001
C  C33  1  0.26036911  0.47574706  0.82614033  1  0.159958  0.108783  -0.001904  3.869001  -0.001
C  C34  1  0.73963482  0.52425639  0.17385760  1  0.159975  0.108972  -0.001904  3.869113  -0.001
C  C35  1  0.16158431  0.84108442  0.23759725  1  -0.068686  -0.134818  -0.006463  3.973517  -0.002
C  C36  1  0.83841966  0.15889247  0.76244627  1  -0.068671  -0.134682  -0.006471  3.972577  -0.002
C  C37  1  0.68867013  0.11264236  0.48794603  1  -0.048289  -0.116285  -0.010882  3.853561  -0.002
C  C38  1  0.31133008  0.88735990  0.51205029  1  -0.048322  -0.116372  -0.010887  3.853717  -0.002
C  C39  1  0.20481510  0.08064679  0.86192266  1  -0.052406  -0.069733  -0.029562  3.862279  -0.014
C  C40  1  0.79519588  0.91936832  0.13804852  1  -0.05249  -0.069813  -0.029561  3.862328  -0.014
N  N41  1  0.33312257  0.60930322  0.93654075  1  -0.26178  -0.161279  -2e-06  3.498545  0.0
N  N42  1  0.66687144  0.39069548  0.06346887  1  -0.261736  -0.161266  -2e-06  3.498618  0.0
N  N43  1  0.37784569  0.48471860  0.88575174  1  -0.277275  -0.16166  -0.000631  3.601343  0.0
N  N44  1  0.62215196  0.51528361  0.11425148  1  -0.277282  -0.161761  -0.000631  3.601448  0.0
N  N45  1  0.14081920  0.59163835  0.83473748  1  -0.210516  -0.041504  -0.0002  3.746149  0.0
N  N46  1  0.85918099  0.40836391  0.16526192  1  -0.21054  -0.041655  -0.0002  3.746361  0.0
N  N47  1  0.88460611  0.72754111  0.83122381  1  -0.332004  -0.443721  -0.002603  3.339416  -0.002
N  N48  1  0.11539544  0.27246004  0.16876843  1  -0.331976  -0.443747  -0.002601  3.339366  -0.002
N  N49  1  0.61883205  0.85139855  0.85895235  1  -0.591423  -0.597233  -0.000269  3.389609  0.0
N  N50  1  0.38116842  0.14859913  0.14104247  1  -0.591357  -0.5971  -0.000269  3.389574  0.0
N  N51  1  0.27975935  0.77507313  0.17903424  1  -0.445872  -0.34289  -0.012068  3.726011  -0.007
N  N52  1  0.72023144  0.22491398  0.82099281  1  -0.445914  -0.343006  -0.012076  3.725298  -0.007
N  N53  1  0.80000138  0.04787246  0.42095151  1  -0.453746  -0.298343  -0.0163  3.709032  -0.011
N  N54  1  0.19999395  0.95212630  0.57904435  1  -0.453728  -0.298311  -0.016298  3.709141  -0.011
N  N55  1  0.33394110  0.13231763  0.77078852  1  -0.43064  -0.321321  -0.008995  3.610663  -0.003
N  N56  1  0.66607497  0.86769635  0.22919706  1  -0.430528  -0.321263  -0.008997  3.610691  -0.003
N  N57  1  0.49954965  0.43318065  0.52141604  1  -0.241497  -0.163685  -0.28315  3.549663  -0.18
N  N58  1  0.50046506  0.56683443  0.47857775  1  -0.24131  -0.163201  -0.283152  3.549395  -0.18
