# generated using pymatgen
data_NaH8(CO)5
_symmetry_space_group_name_H-M   'P 1'
_cell_length_a   4.92081656
_cell_length_b   5.81860022
_cell_length_c   11.89450310
_cell_angle_alpha   87.01928659
_cell_angle_beta   86.29668808
_cell_angle_gamma   80.04164231
_symmetry_Int_Tables_number   1
_chemical_formula_structural   NaH8(CO)5
_chemical_formula_sum   'Na2 H16 C10 O10'
_cell_volume   334.44610289
_cell_formula_units_Z   2
loop_
 _symmetry_equiv_pos_site_id
 _symmetry_equiv_pos_as_xyz
  1  'x, y, z'
loop_
 _atom_site_type_symbol
 _atom_site_label
 _atom_site_symmetry_multiplicity
 _atom_site_fract_x
 _atom_site_fract_y
 _atom_site_fract_z
 _atom_site_occupancy
 _atom_site_hle17_bader_spin_density
 _atom_site_hle17_ddec_charge
 _atom_site_hle17_ddec_spin_density
 _atom_site_hle17_ddec_sum_bond_order
 _atom_site_hle17_magmom
 _atom_site_hse06_10hf_bader_spin_density
 _atom_site_hse06_10hf_ddec_charge
 _atom_site_hse06_10hf_ddec_spin_density
 _atom_site_hse06_10hf_ddec_sum_bond_order
 _atom_site_hse06_10hf_magmom
 _atom_site_hse06_bader_spin_density
 _atom_site_hse06_ddec_charge
 _atom_site_hse06_ddec_spin_density
 _atom_site_hse06_ddec_sum_bond_order
 _atom_site_hse06_magmom
 _atom_site_pbe_bader_spin_density
 _atom_site_pbe_cm5_charge
 _atom_site_pbe_ddec_charge
 _atom_site_pbe_ddec_spin_density
 _atom_site_pbe_ddec_sum_bond_order
 _atom_site_pbe_magmom
Na  Na0  1  0.46631679  0.61447756  0.35488573  1  0  0.903168  0  0.357529  0  0  0.853387  0  0.510443  0  0  0.864387  0  0.488999  0  0  0.650202  0.84527  0  0.525816  0
Na  Na1  1  0.53368803  0.38552274  0.64511641  1  0  0.903178  0  0.357511  0  0  0.853389  0  0.510431  0  0  0.864395  0  0.488982  0  0  0.650206  0.84528  0  0.525794  0
H  H2  1  0.93049571  0.91289808  0.33589397  1  0  0.409046  0  0.907908  0  0  0.377022  0  0.975176  0  0  0.388409  0  0.958574  0  0  0.28697  0.369019  0  0.986819  0
H  H3  1  0.06951029  0.08709526  0.66410919  1  0  0.409047  0  0.907912  0  0  0.377036  0  0.975169  0  0  0.388425  0  0.958563  0  0  0.286968  0.369036  0  0.986807  0
H  H4  1  0.90431784  0.78430803  0.45093069  1  0  0.40619  0  0.891874  0  0  0.381686  0  0.953702  0  0  0.391815  0  0.93861  0  0  0.298  0.374454  0  0.964478  0
H  H5  1  0.09568446  0.21568192  0.54907106  1  0  0.406206  0  0.891853  0  0  0.381704  0  0.953679  0  0  0.391833  0  0.938589  0  0  0.298019  0.374476  0  0.964449  0
H  H6  1  0.26569857  0.84622845  0.55530853  1  0  0.414157  0  0.889223  0  0  0.388305  0  0.946033  0  0  0.398483  0  0.930995  0  0  0.291917  0.381017  0  0.956793  0
H  H7  1  0.73430546  0.15376497  0.44469556  1  0  0.414143  0  0.889235  0  0  0.388293  0  0.946036  0  0  0.398471  0  0.931001  0  0  0.291923  0.381007  0  0.956793  0
H  H8  1  0.05922420  0.67948705  0.59466054  1  0  0.412211  0  0.905978  0  0  0.381351  0  0.970745  0  0  0.392971  0  0.953697  0  0  0.28781  0.373127  0  0.982811  0
H  H9  1  0.94077971  0.32050814  0.40534517  1  0  0.412239  0  0.90595  0  0  0.381385  0  0.970703  0  0  0.393006  0  0.953655  0  0  0.287819  0.373166  0  0.98276  0
H  H10  1  0.65566188  0.02870559  0.15444079  1  0  0.083423  0  0.950011  0  0  0.093263  0  1.017685  0  0  0.094581  0  1.016755  0  0  0.109493  0.092253  0  1.018606  0
H  H11  1  0.34433111  0.97131765  0.84556027  1  0  0.083476  0  0.950071  0  0  0.093352  0  1.017691  0  0  0.094671  0  1.016759  0  0  0.109516  0.092346  0  1.018615  0
H  H12  1  0.38689305  0.21293885  0.08250831  1  0  0.078935  0  0.96048  0  0  0.089552  0  1.028787  0  0  0.089317  0  1.030977  0  0  0.106797  0.089809  0  1.027261  0
H  H13  1  0.61309484  0.78706548  0.91749443  1  0  0.078959  0  0.960413  0  0  0.089583  0  1.028715  0  0  0.089347  0  1.030904  0  0  0.106794  0.089845  0  1.027191  0
H  H14  1  0.74749877  0.17645672  0.96814984  1  0  0.107136  0  0.968159  0  0  0.116833  0  1.033136  0  0  0.120077  0  1.03129  0  0  0.103551  0.114307  0  1.03506  0
H  H15  1  0.25249624  0.82352469  0.03184746  1  0  0.107203  0  0.96848  0  0  0.116862  0  1.033469  0  0  0.120106  0  1.03162  0  0  0.103528  0.114335  0  1.035393  0
H  H16  1  0.93545042  0.70308247  0.17984827  1  0  0.110969  0  0.972974  0  0  0.118782  0  1.040675  0  0  0.123389  0  1.036289  0  0  0.11174  0.115495  0  1.043923  0
H  H17  1  0.06454692  0.29690746  0.82014444  1  0  0.110904  0  0.972833  0  0  0.118707  0  1.040581  0  0  0.123317  0  1.03619  0  0  0.11172  0.11542  0  1.043828  0
C  C18  1  0.29000285  0.16018741  0.25685851  1  0  0.699384  0  3.875019  0  0  0.646781  0  4.183684  0  0  0.679512  0  4.175169  0  0  0.214385  0.624588  0  4.188822  0
C  C19  1  0.71000032  0.83982337  0.74314336  1  0  0.699458  0  3.875122  0  0  0.646772  0  4.183879  0  0  0.679502  0  4.175368  0  0  0.21435  0.624578  0  4.189029  0
C  C20  1  0.50104851  0.18911412  0.16030992  1  0  -0.07507  0  3.641899  0  0  -0.129848  0  3.900228  0  0  -0.127  0  3.902041  0  0  -0.069874  -0.131943  0  3.898967  0
C  C21  1  0.49894219  0.81089523  0.83968748  1  0  -0.075276  0  3.641914  0  0  -0.130068  0  3.900212  0  0  -0.127218  0  3.902023  0  0  -0.069876  -0.132179  0  3.898989  0
C  C22  1  0.81308498  0.43537323  0.08539974  1  0  0.23904  0  3.818081  0  0  0.231801  0  4.077847  0  0  0.240128  0  4.095171  0  0  0.069442  0.226058  0  4.065907  0
C  C23  1  0.18690929  0.56462376  0.91459371  1  0  0.239117  0  3.81826  0  0  0.23191  0  4.077925  0  0  0.240241  0  4.095247  0  0  0.069434  0.226168  0  4.065988  0
C  C24  1  0.85655212  0.31754319  0.98427327  1  0  -0.172778  0  3.771256  0  0  -0.192808  0  4.025472  0  0  -0.195831  0  4.044614  0  0  -0.106813  -0.190855  0  4.013335  0
C  C25  1  0.14347306  0.68246497  0.01571932  1  0  -0.17282  0  3.77106  0  0  -0.192859  0  4.025291  0  0  -0.195878  0  4.044419  0  0  -0.106761  -0.190904  0  4.013155  0
C  C26  1  0.95864689  0.61661794  0.10012559  1  0  -0.164914  0  3.76819  0  0  -0.188826  0  4.030126  0  0  -0.190621  0  4.045845  0  0  -0.101895  -0.187659  0  4.019891  0
C  C27  1  0.04134987  0.38339478  0.89987650  1  0  -0.164708  0  3.768595  0  0  -0.188638  0  4.030516  0  0  -0.190433  0  4.046239  0  0  -0.101768  -0.187476  0  4.02028  0
O  O28  1  0.21268057  0.32563761  0.32286986  1  0  -0.674621  0  1.995186  0  0  -0.618388  0  2.230098  0  0  -0.642324  0  2.217878  0  0  -0.374143  -0.601752  0  2.23817  0
O  O29  1  0.78731772  0.67436642  0.67713412  1  0  -0.674636  0  1.99508  0  0  -0.618372  0  2.23003  0  0  -0.642309  0  2.217811  0  0  -0.374133  -0.60173  0  2.238106  0
O  O30  1  0.20274784  0.96631914  0.25935211  1  0  -0.684011  0  1.948971  0  0  -0.6275  0  2.183799  0  0  -0.653052  0  2.172924  0  0  -0.361321  -0.609554  0  2.190726  0
O  O31  1  0.79725550  0.03369166  0.74065144  1  0  -0.683971  0  1.949246  0  0  -0.627438  0  2.184072  0  0  -0.652986  0  2.173197  0  0  -0.361291  -0.609487  0  2.190998  0
O  O32  1  0.63365376  0.38517334  0.17366267  1  0  -0.302041  0  2.367511  0  0  -0.234018  0  2.606818  0  0  -0.249821  0  2.608964  0  0  -0.207286  -0.222743  0  2.604907  0
O  O33  1  0.36632005  0.61483824  0.82633287  1  0  -0.302098  0  2.367638  0  0  -0.234027  0  2.606887  0  0  -0.24984  0  2.609041  0  0  -0.207312  -0.222754  0  2.604989  0
O  O34  1  0.78570589  0.86209493  0.39137325  1  0  -0.870347  0  1.808143  0  0  -0.817514  0  1.973027  0  0  -0.836317  0  1.941112  0  0  -0.638382  -0.804034  0  1.995359  0
O  O35  1  0.21430255  0.13789483  0.60862823  1  0  -0.870362  0  1.808132  0  0  -0.817534  0  1.972963  0  0  -0.836344  0  1.941044  0  0  -0.638384  -0.804061  0  1.995287  0
O  O36  1  0.22145122  0.69128834  0.53887413  1  0  -0.919958  0  1.80653  0  0  -0.86995  0  1.978559  0  0  -0.888194  0  1.945128  0  0  -0.67067  -0.856947  0  2.002101  0
O  O37  1  0.77855316  0.30870335  0.46113083  1  0  -0.919979  0  1.806568  0  0  -0.86997  0  1.9786  0  0  -0.888213  0  1.94517  0  0  -0.670677  -0.856974  0  2.002135  0
