# generated using pymatgen
data_Co3H26C38(N2O7)2
_symmetry_space_group_name_H-M   'P 1'
_cell_length_a   10.89721559
_cell_length_b   11.94518427
_cell_length_c   16.13263182
_cell_angle_alpha   100.01597972
_cell_angle_beta   109.73742841
_cell_angle_gamma   90.04285468
_symmetry_Int_Tables_number   1
_chemical_formula_structural   Co3H26C38(N2O7)2
_chemical_formula_sum   'Co6 H52 C76 N8 O28'
_cell_volume   1942.46240789
_cell_formula_units_Z   2
loop_
 _symmetry_equiv_pos_site_id
 _symmetry_equiv_pos_as_xyz
  1  'x, y, z'
loop_
 _atom_site_type_symbol
 _atom_site_label
 _atom_site_symmetry_multiplicity
 _atom_site_fract_x
 _atom_site_fract_y
 _atom_site_fract_z
 _atom_site_occupancy
 _atom_site_pbe_bader_charge
 _atom_site_pbe_bader_spin_density
 _atom_site_pbe_cm5_charge
 _atom_site_pbe_ddec_charge
 _atom_site_pbe_ddec_spin_density
 _atom_site_pbe_ddec_sum_bond_order
 _atom_site_pbe_magmom
Co  Co0  1  0.20476516  0.53070891  0.22656654  1  1.299962  2.606103  0.686032  0.907893  2.843802  2.49116  2.589
Co  Co1  1  0.97801932  0.96918932  0.77350160  1  1.29862  2.602949  0.684653  0.905181  2.838148  2.490319  2.586
Co  Co2  1  0.79522795  0.46929657  0.77343010  1  1.300028  2.606136  0.686027  0.907952  2.843808  2.490684  2.589
Co  Co3  1  0.02197829  0.03079572  0.22649027  1  1.298785  2.60292  0.684843  0.905565  2.838124  2.49048  2.586
Co  Co4  1  0.05399750  0.75002310  0.99990262  1  1.276185  2.603293  0.665614  1.003138  2.78025  2.242352  2.551
Co  Co5  1  0.94601361  0.24997812  0.00011934  1  1.276379  2.603293  0.665652  1.003197  2.780271  2.242321  2.551
H  H6  1  0.43605202  0.52930105  0.33197055  1  0.641186  -1.3e-05  0.279642  0.371955  -1.9e-05  0.97761  0.0
H  H7  1  0.43673289  0.64862995  0.30215720  1  0.592544  -0.000212  0.306009  0.371062  -0.000411  0.926622  0.0
H  H8  1  0.73527532  0.39297851  0.17539648  1  0.072004  0.000369  0.103799  0.104506  8.8e-05  1.004695  0.0
H  H9  1  0.64335969  0.52149672  0.27566574  1  0.125908  0.000325  0.100447  0.108624  0.00014  1.019509  0.0
H  H10  1  0.71680988  0.73122402  0.31662896  1  0.081736  0.000177  0.10249  0.105231  4.2e-05  1.005854  0.0
H  H11  1  0.35903689  0.70156808  0.16986150  1  0.091728  0.001411  0.116895  0.078542  0.000157  1.013871  0.001
H  H12  1  0.50945335  0.68756429  0.08400826  1  0.085717  0.00097  0.106831  0.110236  0.000455  1.010863  0.0
H  H13  1  0.36181210  0.33612680  0.97895586  1  0.068898  0.000846  0.105536  0.106659  0.000376  1.029694  0.0
H  H14  1  0.22723394  0.36281410  0.07537293  1  0.154687  0.001492  0.120581  0.099882  0.000443  1.040406  0.001
H  H15  1  0.09869381  0.34521709  0.29125959  1  0.170587  0.001317  0.117466  0.104095  5.4e-05  1.05358  0.001
H  H16  1  0.01223475  0.32198433  0.40986351  1  0.111272  0.000916  0.104572  0.112649  0.000463  1.033121  0.0
H  H17  1  0.06062086  0.68980432  0.49387968  1  0.090231  0.001287  0.110546  0.118393  0.000671  1.004662  0.0
H  H18  1  0.14932005  0.69566951  0.37291289  1  0.115294  0.001629  0.119694  0.090237  0.000507  0.998338  0.001
H  H19  1  0.10387474  0.97081644  0.66810703  1  0.637875  -1.8e-05  0.279396  0.372175  -1.9e-05  0.977437  0.0
H  H20  1  0.13440646  0.85146869  0.69780666  1  0.589058  -0.000221  0.306412  0.372701  -0.000407  0.925491  0.0
H  H21  1  0.56029711  0.10673963  0.82503091  1  0.10759  0.00037  0.103933  0.10461  9.4e-05  1.004579  0.0
H  H22  1  0.36789900  0.97851685  0.72443414  1  0.132987  0.000329  0.1006  0.108925  0.000143  1.019187  0.0
H  H23  1  0.39986469  0.76881806  0.68313886  1  0.098461  0.000177  0.102649  0.105384  4.3e-05  1.006252  0.0
H  H24  1  0.18895237  0.79849437  0.82991933  1  0.097541  0.001416  0.116889  0.078833  0.000157  1.013824  0.001
H  H25  1  0.42520780  0.81251448  0.91579383  1  0.086812  0.000976  0.10701  0.110507  0.000456  1.010107  0.0
H  H26  1  0.38298153  0.16373389  0.02123312  1  0.087275  0.000841  0.105585  0.107023  0.000373  1.029289  0.0
H  H27  1  0.15193705  0.13707769  0.92478538  1  0.163509  0.001488  0.120679  0.100743  0.000445  1.039941  0.001
H  H28  1  0.80725621  0.15464556  0.70907160  1  0.181206  0.001306  0.117287  0.104548  5.8e-05  1.052404  0.001
H  H29  1  0.60234891  0.17796018  0.59039274  1  0.079663  0.00093  0.104828  0.11237  0.000463  1.032872  0.0
H  H30  1  0.56652747  0.81022882  0.50586028  1  0.101625  0.001285  0.11057  0.117925  0.000672  1.004329  0.0
H  H31  1  0.77596833  0.80428584  0.62699185  1  0.08978  0.001624  0.119587  0.089938  0.000502  0.998457  0.001
H  H32  1  0.56393872  0.47069080  0.66802372  1  0.641155  -1.4e-05  0.279699  0.372063  -1.9e-05  0.977448  0.0
H  H33  1  0.56325168  0.35136105  0.69783475  1  0.592491  -0.000211  0.306048  0.371145  -0.000411  0.926509  0.0
H  H34  1  0.26472213  0.60702697  0.82461901  1  0.071439  0.000369  0.103843  0.104614  8.8e-05  1.004477  0.0
H  H35  1  0.35663714  0.47851558  0.72434382  1  0.125879  0.000325  0.100487  0.108739  0.00014  1.019531  0.0
H  H36  1  0.28318884  0.26878828  0.68337278  1  0.081611  0.000177  0.102506  0.105281  4.2e-05  1.005837  0.0
H  H37  1  0.64095696  0.29843230  0.83014132  1  0.090411  0.001413  0.116924  0.07862  0.000158  1.013748  0.001
H  H38  1  0.49054692  0.31244205  0.91599847  1  0.085904  0.000971  0.10684  0.110269  0.000455  1.010801  0.0
H  H39  1  0.63820584  0.66387528  0.02105452  1  0.068779  0.000845  0.105496  0.106628  0.000376  1.029689  0.0
H  H40  1  0.77277010  0.63718372  0.92462721  1  0.15462  0.001492  0.120608  0.099939  0.000443  1.040392  0.001
H  H41  1  0.90130693  0.65478669  0.70873287  1  0.17074  0.001317  0.117495  0.104177  5.4e-05  1.053432  0.001
H  H42  1  0.98777062  0.67801094  0.59012613  1  0.111215  0.000915  0.104615  0.112703  0.000463  1.033084  0.0
H  H43  1  0.93938974  0.31018924  0.50611697  1  0.090383  0.001287  0.110536  0.118394  0.000671  1.004522  0.0
H  H44  1  0.85068755  0.30433087  0.62708419  1  0.115429  0.001628  0.119759  0.090327  0.000507  0.998331  0.001
H  H45  1  0.89611906  0.02918649  0.33188817  1  0.637913  -1.7e-05  0.279385  0.372172  -1.8e-05  0.977476  0.0
H  H46  1  0.86560389  0.14852999  0.30218528  1  0.589094  -0.000221  0.30644  0.372826  -0.000406  0.925549  0.0
H  H47  1  0.43970898  0.89325563  0.17497302  1  0.107518  0.00037  0.103908  0.104599  9.4e-05  1.004569  0.0
H  H48  1  0.63210534  0.02148694  0.27556771  1  0.132956  0.000329  0.1006  0.108928  0.000143  1.019254  0.0
H  H49  1  0.60012780  0.23118742  0.31685716  1  0.098402  0.000177  0.102634  0.105363  4.3e-05  1.006223  0.0
H  H50  1  0.81105098  0.20150260  0.17007523  1  0.097618  0.001416  0.116892  0.078847  0.000157  1.013789  0.001
H  H51  1  0.57479455  0.18748249  0.08420264  1  0.086942  0.000977  0.106987  0.110455  0.000457  1.010209  0.0
H  H52  1  0.61701808  0.83626137  0.97876147  1  0.087352  0.000841  0.105566  0.107041  0.000373  1.029277  0.0
H  H53  1  0.84806167  0.86291587  0.07521403  1  0.163409  0.001489  0.120654  0.100686  0.000445  1.040009  0.001
H  H54  1  0.19274148  0.84535907  0.29091789  1  0.181332  0.001306  0.117323  0.104623  5.8e-05  1.052548  0.001
H  H55  1  0.39764471  0.82205042  0.40959897  1  0.079703  0.00093  0.104838  0.112338  0.000463  1.032875  0.0
H  H56  1  0.43344716  0.18977496  0.49413438  1  0.101181  0.001286  0.11061  0.117901  0.000672  1.00448  0.0
H  H57  1  0.22400937  0.19571708  0.37300094  1  0.088959  0.001624  0.1195  0.089762  0.000502  0.998509  0.001
C  C58  1  0.90510439  0.64031158  0.19025370  1  -0.06659  0.005306  0.004328  -0.052556  0.002035  3.872433  0.004
C  C59  1  0.86257287  0.52389131  0.16659815  1  -0.014023  0.006395  -0.01409  -0.065978  0.002798  3.966467  0.005
C  C60  1  0.76701033  0.48315280  0.19608196  1  -0.045771  -7.6e-05  -0.078938  -0.078333  -0.000486  3.964338  0.0
C  C61  1  0.71495783  0.55562462  0.25136302  1  -0.070186  0.003256  -0.094359  -0.091414  0.001629  4.021852  0.002
C  C62  1  0.75550464  0.67090201  0.27417467  1  -0.00762  0.000602  -0.082881  -0.090468  2.3e-05  3.987566  0.0
C  C63  1  0.84826449  0.71423462  0.24330910  1  0.00025  0.008256  -0.01904  -0.069036  0.004397  3.957579  0.006
C  C64  1  0.00784208  0.68090145  0.15569517  1  1.606485  0.017458  0.228356  0.613286  0.012343  4.162503  0.014
C  C65  1  0.92193594  0.44063098  0.11328365  1  1.561636  0.001195  0.217385  0.581986  0.000457  4.168019  0.0
C  C66  1  0.88588961  0.83971333  0.26876026  1  1.559371  0.001873  0.208502  0.567587  0.000693  4.203143  0.001
C  C67  1  0.36816649  0.62041373  0.12987083  1  0.514752  -0.006997  0.045221  0.082205  -0.008119  3.991933  -0.004
C  C68  1  0.45043520  0.61198499  0.07998075  1  -0.0694  0.002559  -0.076704  -0.15185  0.000912  3.939569  0.003
C  C69  1  0.45569790  0.50749249  0.02603905  1  0.037237  -0.011369  0.010809  0.099005  -0.012418  3.977566  -0.007
C  C70  1  0.37033167  0.41782993  0.02318718  1  0.025579  0.001948  -0.082707  -0.165844  0.000389  3.935947  0.002
C  C71  1  0.29249068  0.43219375  0.07615137  1  0.432067  -0.006784  0.047155  0.111012  -0.007363  3.907926  -0.004
C  C72  1  0.09007529  0.41932260  0.33854845  1  0.424715  -0.009703  0.0407  0.091364  -0.010913  3.931031  -0.006
C  C73  1  0.04044598  0.40767051  0.40543070  1  -0.073615  0.001657  -0.084639  -0.174436  0.000226  3.939087  0.002
C  C74  1  0.02726212  0.50442504  0.46454840  1  0.022474  -0.015129  0.009764  0.101609  -0.016559  3.981981  -0.009
C  C75  1  0.06812955  0.61000937  0.45201305  1  -0.020722  0.002439  -0.080127  -0.1676  0.000644  3.930247  0.003
C  C76  1  0.11814085  0.61459808  0.38411374  1  0.462927  -0.008834  0.049035  0.102942  -0.009409  3.954457  -0.005
C  C77  1  0.71468320  0.85942130  0.80974868  1  -0.068218  0.005294  0.004799  -0.049572  0.002038  3.87031  0.004
C  C78  1  0.69609952  0.97580562  0.83363930  1  0.005716  0.006377  -0.014407  -0.067599  0.002803  3.966245  0.005
C  C79  1  0.57115000  0.01662035  0.80416970  1  -0.071154  -3.5e-05  -0.078565  -0.076937  -0.00044  3.96337  0.0
C  C80  1  0.46368746  0.94427642  0.74871250  1  -0.09552  0.003356  -0.094587  -0.09278  0.00168  4.023604  0.002
C  C81  1  0.48115179  0.82901942  0.72569122  1  -0.025768  0.000595  -0.082608  -0.089436  1.9e-05  3.987608  0.0
C  C82  1  0.60467715  0.78560335  0.75654995  1  0.010211  0.008358  -0.01964  -0.071624  0.004454  3.957392  0.006
C  C83  1  0.85188300  0.81881708  0.84423422  1  1.596941  0.017589  0.228001  0.612318  0.012384  4.164383  0.014
C  C84  1  0.80890746  0.05902257  0.88709528  1  1.54447  0.001178  0.217179  0.582193  0.000479  4.167943  0.0
C  C85  1  0.61668893  0.66014547  0.73100520  1  1.556063  0.001858  0.209466  0.570063  0.000659  4.201175  0.001
C  C86  1  0.23815040  0.87963934  0.86998238  1  0.388361  -0.006632  0.045138  0.081314  -0.007801  3.99181  -0.004
C  C87  1  0.37030249  0.88805296  0.91988984  1  0.030564  0.002707  -0.076898  -0.151833  0.001045  3.937847  0.003
C  C88  1  0.42963742  0.99250932  0.97392870  1  0.014125  -0.010735  0.011082  0.099426  -0.011679  3.978788  -0.006
C  C89  1  0.34719507  0.08209449  0.97688165  1  -0.031697  0.002193  -0.082348  -0.166099  0.000612  3.935521  0.002
C  C90  1  0.21638919  0.06775206  0.92391662  1  0.445751  -0.006365  0.047428  0.110322  -0.006988  3.907869  -0.004
C  C91  1  0.75130523  0.08057706  0.66169418  1  0.426823  -0.009377  0.040619  0.090357  -0.010596  3.929754  -0.006
C  C92  1  0.63491027  0.09227146  0.59476915  1  -0.042943  0.00183  -0.084637  -0.173448  0.000389  3.937775  0.002
C  C93  1  0.56263600  0.99557367  0.53548502  1  -0.025894  -0.014585  0.009928  0.100913  -0.01586  3.980717  -0.008
C  C94  1  0.61590442  0.88999001  0.54788419  1  -0.036474  0.00266  -0.079297  -0.165324  0.000812  3.928127  0.003
C  C95  1  0.73368663  0.88535450  0.61584700  1  0.490931  -0.008539  0.049111  0.102393  -0.009115  3.954518  -0.005
C  C96  1  0.09490524  0.35968964  0.80975904  1  -0.066546  0.005311  0.004405  -0.052525  0.002039  3.872289  0.004
C  C97  1  0.13744093  0.47610907  0.83341963  1  -0.013913  0.006394  -0.014252  -0.06616  0.002798  3.966524  0.005
C  C98  1  0.23300060  0.51684928  0.80393698  1  -0.045718  -7.2e-05  -0.078874  -0.07816  -0.000483  3.96417  0.0
C  C99  1  0.28504887  0.44438427  0.74865027  1  -0.069957  0.003254  -0.094491  -0.091814  0.001628  4.022025  0.002
C  C100  1  0.24450262  0.32910603  0.72583428  1  -0.008242  0.000606  -0.08278  -0.090279  2.6e-05  3.987278  0.0
C  C101  1  0.15174583  0.28577087  0.75670173  1  0.001076  0.008252  -0.019185  -0.069244  0.004395  3.95768  0.006
C  C102  1  0.99216298  0.31910403  0.84432207  1  1.606727  0.017445  0.228352  0.613392  0.012336  4.162504  0.014
C  C103  1  0.07807674  0.55937280  0.88673424  1  1.562009  0.001196  0.217561  0.58209  0.000458  4.16787  0.0
C  C104  1  0.11412074  0.16029216  0.73123605  1  1.559841  0.001874  0.208553  0.567725  0.000694  4.203352  0.001
C  C105  1  0.63183111  0.37958835  0.87013196  1  0.516142  -0.006996  0.045214  0.082141  -0.008116  3.991695  -0.004
C  C106  1  0.54956370  0.38801964  0.92002450  1  -0.069521  0.002557  -0.076703  -0.151813  0.000912  3.939404  0.003
C  C107  1  0.54430394  0.49251300  0.97396625  1  -0.020678  -0.011408  0.01074  0.098748  -0.012414  3.97754  -0.007
C  C108  1  0.62967790  0.58217386  0.97682277  1  0.025251  0.001946  -0.08266  -0.165688  0.000388  3.935716  0.002
C  C109  1  0.70751366  0.56780663  0.92385313  1  0.43228  -0.00678  0.047168  0.110947  -0.00736  3.907837  -0.004
C  C110  1  0.90992639  0.58067863  0.66144088  1  0.425689  -0.009698  0.040486  0.091054  -0.010908  3.931316  -0.006
C  C111  1  0.95955826  0.59232646  0.59456279  1  -0.073534  0.001654  -0.084494  -0.174237  0.000225  3.939412  0.002
C  C112  1  0.97274705  0.49557108  0.53544508  1  -0.020943  -0.01523  0.009621  0.101579  -0.016555  3.98188  -0.009
C  C113  1  0.93187599  0.38998675  0.54798072  1  -0.02103  0.002436  -0.080049  -0.167611  0.000643  3.930165  0.003
C  C114  1  0.88186850  0.38540230  0.61588120  1  0.462715  -0.008829  0.048912  0.102772  -0.009404  3.95466  -0.005
C  C115  1  0.28530878  0.14056714  0.19024948  1  -0.068298  0.005289  0.005056  -0.04912  0.002034  3.870121  0.004
C  C116  1  0.30390244  0.02418283  0.16636392  1  0.003234  0.006383  -0.014644  -0.068025  0.002804  3.96673  0.005
C  C117  1  0.42885141  0.98337747  0.19583365  1  -0.071177  -3.6e-05  -0.078474  -0.076793  -0.000441  3.963371  0.0
C  C118  1  0.53631464  0.05572225  0.25128675  1  -0.095285  0.003361  -0.094509  -0.092747  0.001683  4.023483  0.002
C  C119  1  0.51884175  0.17098351  0.27430567  1  -0.025683  0.000593  -0.082623  -0.089384  1.8e-05  3.987508  0.0
C  C120  1  0.39531278  0.21438935  0.24344551  1  0.010302  0.008361  -0.019682  -0.071744  0.004456  3.957531  0.006
C  C121  1  0.14811472  0.18116626  0.15577023  1  1.596934  0.017599  0.227821  0.612132  0.012393  4.164727  0.014
C  C122  1  0.19109336  0.94097269  0.11291506  1  1.547064  0.001172  0.217178  0.582339  0.000481  4.167971  0.0
C  C123  1  0.38329096  0.33984979  0.26898242  1  1.556344  0.001856  0.209329  0.569688  0.000659  4.201554  0.001
C  C124  1  0.76185469  0.12035252  0.13001644  1  0.387904  -0.006637  0.045076  0.081189  -0.007805  3.991852  -0.004
C  C125  1  0.62970305  0.11194145  0.08010767  1  0.031173  0.002711  -0.076821  -0.151655  0.001047  3.93799  0.003
C  C126  1  0.57036399  0.00748679  0.02606872  1  0.049306  -0.010675  0.010982  0.099172  -0.011686  3.979087  -0.006
C  C127  1  0.65280772  0.91790163  0.02311616  1  -0.031877  0.002196  -0.082302  -0.166081  0.000613  3.935632  0.002
C  C128  1  0.78361179  0.93224490  0.07608430  1  0.445705  -0.006369  0.047466  0.110382  -0.006992  3.907931  -0.004
C  C129  1  0.24868528  0.91943013  0.33829225  1  0.427058  -0.009383  0.040648  0.090462  -0.010601  3.929872  -0.006
C  C130  1  0.36507505  0.90773658  0.40521897  1  -0.04344  0.001834  -0.084753  -0.173578  0.000391  3.937964  0.002
C  C131  1  0.43734477  0.00443351  0.46450433  1  0.010067  -0.014489  0.009795  0.100987  -0.015868  3.98089  -0.008
C  C132  1  0.38407347  0.11001717  0.45210522  1  -0.036264  0.002665  -0.079264  -0.165426  0.000814  3.928381  0.003
C  C133  1  0.26629271  0.11464842  0.38413965  1  0.49248  -0.008543  0.049245  0.102791  -0.00912  3.954424  -0.005
N  N134  1  0.29347462  0.53138960  0.13105543  1  -1.234554  0.051248  -0.332299  -0.253416  0.027454  3.586105  0.044
N  N135  1  0.12894067  0.52121223  0.32741244  1  -1.213682  0.050691  -0.331143  -0.253918  0.027288  3.591872  0.044
N  N136  1  0.16237531  0.96861409  0.86890824  1  -1.221325  0.051631  -0.331968  -0.251822  0.027692  3.584608  0.044
N  N137  1  0.80120206  0.97867919  0.67270479  1  -1.211865  0.050872  -0.330807  -0.252704  0.027406  3.589919  0.044
N  N138  1  0.70652079  0.46861162  0.86894707  1  -1.234626  0.051245  -0.332293  -0.25337  0.027452  3.585897  0.044
N  N139  1  0.87106413  0.47878900  0.67257999  1  -1.21431  0.050681  -0.331009  -0.253768  0.027281  3.591651  0.044
N  N140  1  0.83763052  0.03137947  0.13109628  1  -1.22156  0.05163  -0.33198  -0.251827  0.027691  3.584746  0.044
N  N141  1  0.19878133  0.02132459  0.32727917  1  -1.212252  0.050882  -0.33096  -0.253085  0.027416  3.590114  0.044
O  O142  1  0.96354014  0.70018035  0.07602494  1  -1.133426  0.094922  -0.295557  -0.532695  0.047827  2.40653  0.074
O  O143  1  0.12881491  0.68565976  0.20272606  1  -1.16772  0.062645  -0.313678  -0.578585  0.031973  2.374989  0.048
O  O144  1  0.97277629  0.87271546  0.23945698  1  -1.149547  0.082595  -0.301967  -0.545063  0.042743  2.459237  0.07
O  O145  1  0.83267153  0.90421113  0.31595224  1  -1.171238  0.008547  -0.320812  -0.54338  0.003775  2.136821  0.007
O  O146  1  0.04155508  0.45321861  0.12254442  1  -1.153852  0.083235  -0.289805  -0.541144  0.043151  2.411947  0.071
O  O147  1  0.84879017  0.35574668  0.05920592  1  -1.123274  0.095698  -0.308078  -0.54154  0.048636  2.339146  0.074
O  O148  1  0.39129132  0.60531537  0.33010596  1  -1.224106  0.057684  -0.568152  -0.745468  0.029891  2.074539  0.046
O  O149  1  0.88728234  0.79958245  0.92391476  1  -1.132354  0.094965  -0.295884  -0.532967  0.047894  2.407631  0.074
O  O150  1  0.92578547  0.81416374  0.79718691  1  -1.163189  0.062645  -0.313079  -0.5774  0.031954  2.376969  0.048
O  O151  1  0.73287118  0.62722733  0.76032194  1  -1.142763  0.082804  -0.302241  -0.546916  0.042861  2.460043  0.07
O  O152  1  0.51625057  0.59558868  0.68379684  1  -1.175204  0.008534  -0.321224  -0.54364  0.003764  2.136073  0.007
O  O153  1  0.91923355  0.04655253  0.87777869  1  -1.145955  0.082864  -0.290228  -0.541298  0.042959  2.410769  0.071
O  O154  1  0.78994083  0.14378852  0.94124830  1  -1.12639  0.095895  -0.308018  -0.541979  0.04869  2.340184  0.075
O  O155  1  0.06098379  0.89469814  0.66986359  1  -1.216508  0.057378  -0.568788  -0.74821  0.029724  2.071114  0.046
O  O156  1  0.03647073  0.29982769  0.92399340  1  -1.133843  0.094917  -0.295526  -0.53272  0.047824  2.406539  0.074
O  O157  1  0.87119677  0.31434913  0.79729218  1  -1.167715  0.062626  -0.313698  -0.578633  0.031966  2.374864  0.048
O  O158  1  0.02723329  0.12729685  0.76054875  1  -1.149512  0.082581  -0.301989  -0.5451  0.042736  2.458882  0.069
O  O159  1  0.16732272  0.09580287  0.68403743  1  -1.171706  0.008538  -0.320872  -0.543458  0.003771  2.137145  0.007
O  O160  1  0.95845181  0.54678772  0.87746596  1  -1.153812  0.083221  -0.28986  -0.541159  0.043144  2.411727  0.071
O  O161  1  0.15121895  0.64425114  0.94081285  1  -1.123377  0.095688  -0.308178  -0.541619  0.04863  2.339266  0.074
O  O162  1  0.60869349  0.39467392  0.66988805  1  -1.223985  0.05766  -0.568274  -0.745698  0.029882  2.074375  0.046
O  O163  1  0.11271327  0.20040430  0.07608202  1  -1.132348  0.095015  -0.295894  -0.533042  0.047914  2.407628  0.074
O  O164  1  0.07421269  0.18582556  0.20281357  1  -1.163349  0.062616  -0.312948  -0.577264  0.031938  2.377131  0.047
O  O165  1  0.26711489  0.37277390  0.23966643  1  -1.142896  0.082794  -0.302224  -0.546768  0.042858  2.460268  0.07
O  O166  1  0.48373462  0.40440914  0.31619526  1  -1.175353  0.008535  -0.321138  -0.543456  0.003764  2.135973  0.007
O  O167  1  0.08078033  0.95344018  0.12222892  1  -1.146361  0.082858  -0.290209  -0.541196  0.042954  2.410928  0.071
O  O168  1  0.21007461  0.85619482  0.05876211  1  -1.125998  0.095945  -0.307932  -0.54205  0.048711  2.339914  0.075
O  O169  1  0.93901948  0.10529543  0.33011511  1  -1.216659  0.057406  -0.568818  -0.7484  0.02974  2.071262  0.046
