# generated using pymatgen
data_ZnH8C7(NO3)2
_symmetry_space_group_name_H-M   'P 1'
_cell_length_a   9.33516372
_cell_length_b   10.63185033
_cell_length_c   11.13046481
_cell_angle_alpha   118.17814157
_cell_angle_beta   89.99989994
_cell_angle_gamma   90.00011105
_symmetry_Int_Tables_number   1
_chemical_formula_structural   ZnH8C7(NO3)2
_chemical_formula_sum   'Zn4 H32 C28 N8 O24'
_cell_volume   973.77442305
_cell_formula_units_Z   4
loop_
 _symmetry_equiv_pos_site_id
 _symmetry_equiv_pos_as_xyz
  1  'x, y, z'
loop_
 _atom_site_type_symbol
 _atom_site_label
 _atom_site_symmetry_multiplicity
 _atom_site_fract_x
 _atom_site_fract_y
 _atom_site_fract_z
 _atom_site_occupancy
 _atom_site_hle17_bader_spin_density
 _atom_site_hle17_ddec_charge
 _atom_site_hle17_ddec_spin_density
 _atom_site_hle17_ddec_sum_bond_order
 _atom_site_hle17_magmom
 _atom_site_hse06_10hf_bader_spin_density
 _atom_site_hse06_10hf_ddec_charge
 _atom_site_hse06_10hf_ddec_spin_density
 _atom_site_hse06_10hf_ddec_sum_bond_order
 _atom_site_hse06_10hf_magmom
 _atom_site_hse06_bader_spin_density
 _atom_site_hse06_ddec_charge
 _atom_site_hse06_ddec_spin_density
 _atom_site_hse06_ddec_sum_bond_order
 _atom_site_hse06_magmom
 _atom_site_pbe_bader_spin_density
 _atom_site_pbe_cm5_charge
 _atom_site_pbe_ddec_charge
 _atom_site_pbe_ddec_spin_density
 _atom_site_pbe_ddec_sum_bond_order
 _atom_site_pbe_magmom
Zn  Zn0  1  0.67645623  0.34795232  0.40357106  1  0  1.118769  0  1.699967  0  0  0.94054  0  2.153283  0  0  0.987621  0  2.096294  0  0  0.689991  0.90728  0  2.192973  0
Zn  Zn1  1  0.17645546  0.15204691  0.09642851  1  0  1.118715  0  1.700045  0  0  0.94049  0  2.153386  0  0  0.987566  0  2.096396  0  0  0.689975  0.907226  0  2.193073  0
Zn  Zn2  1  0.32354343  0.65204783  0.59642936  1  0  1.118713  0  1.700036  0  0  0.940503  0  2.153328  0  0  0.987581  0  2.09634  0  0  0.689974  0.907251  0  2.193021  0
Zn  Zn3  1  0.82354420  0.84795323  0.90357191  1  0  1.118712  0  1.700041  0  0  0.940495  0  2.153366  0  0  0.987577  0  2.096379  0  0  0.689981  0.907239  0  2.193059  0
H  H4  1  0.84326734  0.14099049  0.28620660  1  0  0.324279  0  0.899501  0  0  0.306093  0  0.964046  0  0  0.313558  0  0.958084  0  0  0.300028  0.300469  0  0.968885  0
H  H5  1  0.34326678  0.35901001  0.21379420  1  0  0.324239  0  0.899543  0  0  0.306061  0  0.964073  0  0  0.313525  0  0.958111  0  0  0.300017  0.300436  0  0.968911  0
H  H6  1  0.15673340  0.85900965  0.71379382  1  0  0.324242  0  0.89954  0  0  0.30606  0  0.964075  0  0  0.313524  0  0.958111  0  0  0.300019  0.300437  0  0.968912  0
H  H7  1  0.65673181  0.64099120  0.78620670  1  0  0.324272  0  0.899524  0  0  0.306081  0  0.964068  0  0  0.31355  0  0.958108  0  0  0.300023  0.300458  0  0.968905  0
H  H8  1  0.93888325  0.27373966  0.40521464  1  0  0.316588  0  0.911537  0  0  0.293585  0  0.986137  0  0  0.301248  0  0.979622  0  0  0.297481  0.288058  0  0.990916  0
H  H9  1  0.43888265  0.22626096  0.09478608  1  0  0.316636  0  0.911454  0  0  0.293668  0  0.986039  0  0  0.301308  0  0.97954  0  0  0.29752  0.288141  0  0.990816  0
H  H10  1  0.06111748  0.72626048  0.59478668  1  0  0.316626  0  0.91146  0  0  0.29366  0  0.986039  0  0  0.301299  0  0.979542  0  0  0.29752  0.288144  0  0.990809  0
H  H11  1  0.56111594  0.77373917  0.90521344  1  0  0.316646  0  0.911418  0  0  0.293677  0  0.986001  0  0  0.301321  0  0.979502  0  0  0.29752  0.288162  0  0.99077  0
H  H12  1  0.64628265  0.88461376  0.49054224  1  0  0.095418  0  0.967936  0  0  0.104999  0  1.031146  0  0  0.107951  0  1.029153  0  0  0.104065  0.103138  0  1.031704  0
H  H13  1  0.14628198  0.61538440  0.00945759  1  0  0.095422  0  0.967977  0  0  0.105009  0  1.031178  0  0  0.107963  0  1.029184  0  0  0.104081  0.103148  0  1.031734  0
H  H14  1  0.35371809  0.11538532  0.50945860  1  0  0.095413  0  0.967986  0  0  0.105004  0  1.03118  0  0  0.107957  0  1.029188  0  0  0.10407  0.103143  0  1.031738  0
H  H15  1  0.85371876  0.38461680  0.99054061  1  0  0.095434  0  0.968014  0  0  0.105025  0  1.031207  0  0  0.107978  0  1.029213  0  0  0.104082  0.103163  0  1.031764  0
H  H16  1  0.67280306  0.00066912  0.34392090  1  0  0.112823  0  0.945209  0  0  0.121376  0  1.007044  0  0  0.124834  0  1.00581  0  0  0.105542  0.118517  0  1.008822  0
H  H17  1  0.17280400  0.49933117  0.15608005  1  0  0.112806  0  0.945225  0  0  0.121356  0  1.007062  0  0  0.124815  0  1.005827  0  0  0.105537  0.118497  0  1.008839  0
H  H18  1  0.32719554  0.99933102  0.65608042  1  0  0.112819  0  0.945213  0  0  0.121365  0  1.007054  0  0  0.124823  0  1.00582  0  0  0.105535  0.118506  0  1.008832  0
H  H19  1  0.82719674  0.50067216  0.84391821  1  0  0.112783  0  0.945186  0  0  0.121316  0  1.007042  0  0  0.124773  0  1.005809  0  0  0.105519  0.118457  0  1.00882  0
H  H20  1  0.99190729  0.28352376  0.61838966  1  0  0.117579  0  0.939633  0  0  0.130042  0  0.993639  0  0  0.133261  0  0.992674  0  0  0.107745  0.127555  0  0.994873  0
H  H21  1  0.49190928  0.21647535  0.88161157  1  0  0.117614  0  0.939538  0  0  0.130054  0  0.993569  0  0  0.133273  0  0.992606  0  0  0.107755  0.127567  0  0.994806  0
H  H22  1  0.00809023  0.71647532  0.38161208  1  0  0.117606  0  0.939557  0  0  0.130061  0  0.993574  0  0  0.13328  0  0.99261  0  0  0.107763  0.127574  0  0.994809  0
H  H23  1  0.50809145  0.78352479  0.11838885  1  0  0.117611  0  0.939532  0  0  0.130065  0  0.99355  0  0  0.133284  0  0.992585  0  0  0.107766  0.127577  0  0.994785  0
H  H24  1  0.96831556  0.16557148  0.76348001  1  0  0.098734  0  0.948841  0  0  0.111759  0  1.005152  0  0  0.114674  0  1.003281  0  0  0.106403  0.109595  0  1.006646  0
H  H25  1  0.46831705  0.33442653  0.73651987  1  0  0.098727  0  0.948781  0  0  0.111737  0  1.005113  0  0  0.114663  0  1.003226  0  0  0.106411  0.109575  0  1.006606  0
H  H26  1  0.03168303  0.83442653  0.23652035  1  0  0.098747  0  0.948776  0  0  0.111757  0  1.005105  0  0  0.114683  0  1.00322  0  0  0.106419  0.109594  0  1.006598  0
H  H27  1  0.53168369  0.66557148  0.26347959  1  0  0.098745  0  0.94883  0  0  0.111767  0  1.005144  0  0  0.114681  0  1.003274  0  0  0.106405  0.109603  0  1.006639  0
H  H28  1  0.42868005  0.24120358  0.41694231  1  0  0.444806  0  0.853406  0  0  0.411733  0  0.920093  0  0  0.423285  0  0.903387  0  0  0.296802  0.403342  0  0.932233  0
H  H29  1  0.92867914  0.25879597  0.08305883  1  0  0.444778  0  0.853434  0  0  0.411704  0  0.920125  0  0  0.423255  0  0.90342  0  0  0.296791  0.403313  0  0.932265  0
H  H30  1  0.57131962  0.75879550  0.58305853  1  0  0.44481  0  0.853402  0  0  0.411738  0  0.920085  0  0  0.423291  0  0.903377  0  0  0.296809  0.403348  0  0.932223  0
H  H31  1  0.07131945  0.74120418  0.91694248  1  0  0.444816  0  0.853392  0  0  0.411747  0  0.920073  0  0  0.423298  0  0.903367  0  0  0.296807  0.403356  0  0.932212  0
H  H32  1  0.45658315  0.38299338  0.56113133  1  0  0.434283  0  0.867641  0  0  0.400205  0  0.93637  0  0  0.411567  0  0.919869  0  0  0.294188  0.39201  0  0.948297  0
H  H33  1  0.95658334  0.11700568  0.93886904  1  0  0.434276  0  0.867641  0  0  0.400198  0  0.936374  0  0  0.41156  0  0.919871  0  0  0.294196  0.392003  0  0.9483  0
H  H34  1  0.54341651  0.61700570  0.43886951  1  0  0.434304  0  0.867602  0  0  0.400219  0  0.936344  0  0  0.411583  0  0.919839  0  0  0.294205  0.392023  0  0.948272  0
H  H35  1  0.04341632  0.88299340  0.06113180  1  0  0.434282  0  0.867641  0  0  0.400202  0  0.936374  0  0  0.411565  0  0.919872  0  0  0.29419  0.392006  0  0.948301  0
C  C36  1  0.79186642  0.93998405  0.71850894  1  0  0.662636  0  3.86183  0  0  0.606344  0  4.157568  0  0  0.641861  0  4.149163  0  0  0.210596  0.581998  0  4.162802  0
C  C37  1  0.29186721  0.56001164  0.78148996  1  0  0.662752  0  3.861727  0  0  0.606466  0  4.157461  0  0  0.641977  0  4.149061  0  0  0.210694  0.582119  0  4.162692  0
C  C38  1  0.20813431  0.06001290  0.28149094  1  0  0.662671  0  3.861914  0  0  0.606385  0  4.157654  0  0  0.641897  0  4.149252  0  0  0.21066  0.582045  0  4.16287  0
C  C39  1  0.70813460  0.43998636  0.21850680  1  0  0.66268  0  3.861885  0  0  0.606416  0  4.157593  0  0  0.641929  0  4.149192  0  0  0.210661  0.582066  0  4.162827  0
C  C40  1  0.80478974  0.01718537  0.63759537  1  0  -0.101076  0  3.79062  0  0  -0.080337  0  4.030112  0  0  -0.091702  0  4.05508  0  0  -0.03041  -0.073093  0  4.013326  0
C  C41  1  0.30478808  0.48281242  0.86240286  1  0  -0.101202  0  3.790706  0  0  -0.080469  0  4.030212  0  0  -0.091833  0  4.055183  0  0  -0.030491  -0.073224  0  4.013425  0
C  C42  1  0.19521207  0.98281370  0.36240367  1  0  -0.101091  0  3.790608  0  0  -0.080371  0  4.030124  0  0  -0.091733  0  4.055092  0  0  -0.030468  -0.073127  0  4.013331  0
C  C43  1  0.69521159  0.51718558  0.13759480  1  0  -0.101107  0  3.790667  0  0  -0.0804  0  4.030182  0  0  -0.091762  0  4.055147  0  0  -0.030478  -0.073153  0  4.013394  0
C  C44  1  0.72174577  0.97220750  0.51899813  1  0  -0.043769  0  3.745582  0  0  -0.066772  0  3.988656  0  0  -0.064433  0  4.009528  0  0  -0.080382  -0.067249  0  3.972424  0
C  C45  1  0.22174500  0.52779023  0.98100089  1  0  -0.043765  0  3.745649  0  0  -0.066774  0  3.988726  0  0  -0.064435  0  4.009596  0  0  -0.080383  -0.067249  0  3.972492  0
C  C46  1  0.27825496  0.02779158  0.48100181  1  0  -0.043804  0  3.745625  0  0  -0.066811  0  3.988701  0  0  -0.064472  0  4.009569  0  0  -0.080401  -0.067288  0  3.972469  0
C  C47  1  0.77825466  0.47220991  0.01899863  1  0  -0.043841  0  3.745725  0  0  -0.066849  0  3.988802  0  0  -0.064512  0  4.009671  0  0  -0.080411  -0.067327  0  3.97257  0
C  C48  1  0.73627591  0.03671629  0.43661734  1  0  -0.166406  0  3.719537  0  0  -0.182364  0  3.96817  0  0  -0.189332  0  3.989245  0  0  -0.094798  -0.178034  0  3.953454  0
C  C49  1  0.23627482  0.46328301  0.06338308  1  0  -0.16638  0  3.719551  0  0  -0.182321  0  3.968187  0  0  -0.189288  0  3.989259  0  0  -0.094795  -0.177991  0  3.953471  0
C  C50  1  0.26372483  0.96328279  0.56338350  1  0  -0.166378  0  3.71952  0  0  -0.182323  0  3.968151  0  0  -0.189291  0  3.989225  0  0  -0.094747  -0.177994  0  3.953438  0
C  C51  1  0.76372484  0.53671926  0.93661650  1  0  -0.166299  0  3.719484  0  0  -0.182238  0  3.968082  0  0  -0.189201  0  3.989151  0  0  -0.094731  -0.177907  0  3.953366  0
C  C52  1  0.83373438  0.14907034  0.47262713  1  0  0.298667  0  3.756197  0  0  0.294274  0  4.000678  0  0  0.302891  0  4.023243  0  0  0.091752  0.288889  0  3.985455  0
C  C53  1  0.33373419  0.35092909  0.02737409  1  0  0.298663  0  3.756177  0  0  0.294243  0  4.000695  0  0  0.302861  0  4.023258  0  0  0.09172  0.288857  0  3.985471  0
C  C54  1  0.16626528  0.85092767  0.52737413  1  0  0.298693  0  3.756213  0  0  0.294286  0  4.000709  0  0  0.302902  0  4.023273  0  0  0.091706  0.2889  0  3.985489  0
C  C55  1  0.66626333  0.64907318  0.97262638  1  0  0.298592  0  3.756268  0  0  0.294246  0  4.000681  0  0  0.302869  0  4.023246  0  0  0.091698  0.288858  0  3.985462  0
C  C56  1  0.91550685  0.19677339  0.59164495  1  0  -0.172151  0  3.712638  0  0  -0.189325  0  3.962919  0  0  -0.196614  0  3.984828  0  0  -0.094524  -0.18498  0  3.948858  0
C  C57  1  0.41550576  0.30322562  0.90835546  1  0  -0.17221  0  3.712532  0  0  -0.189343  0  3.962808  0  0  -0.196638  0  3.984728  0  0  -0.094527  -0.185  0  3.948751  0
C  C58  1  0.08449389  0.80322569  0.40835679  1  0  -0.172245  0  3.712566  0  0  -0.189414  0  3.962857  0  0  -0.196706  0  3.984774  0  0  -0.09456  -0.185071  0  3.948799  0
C  C59  1  0.58449390  0.69677452  0.09164406  1  0  -0.172197  0  3.712514  0  0  -0.189378  0  3.962786  0  0  -0.196668  0  3.984697  0  0  -0.094557  -0.185033  0  3.948727  0
C  C60  1  0.90170725  0.13028444  0.67284638  1  0  -0.038057  0  3.736408  0  0  -0.063131  0  3.985115  0  0  -0.060265  0  4.005788  0  0  -0.079097  -0.064905  0  3.971344  0
C  C61  1  0.40170541  0.36971348  0.82715266  1  0  -0.037978  0  3.736322  0  0  -0.063037  0  3.985019  0  0  -0.060179  0  4.005688  0  0  -0.079059  -0.064814  0  3.971249  0
C  C62  1  0.09829456  0.86971464  0.32715446  1  0  -0.038016  0  3.736278  0  0  -0.063068  0  3.984981  0  0  -0.06021  0  4.005649  0  0  -0.079065  -0.064844  0  3.971209  0
C  C63  1  0.59829425  0.63028452  0.17284590  1  0  -0.038024  0  3.736323  0  0  -0.063083  0  3.98502  0  0  -0.060217  0  4.005693  0  0  -0.079049  -0.064859  0  3.971248  0
N  N64  1  0.84590037  0.21589898  0.38778686  1  0  -0.680164  0  3.177345  0  0  -0.619225  0  3.433806  0  0  -0.640517  0  3.426672  0  0  -0.603982  -0.604551  0  3.439044  0
N  N65  1  0.34589986  0.28410047  0.11221436  1  0  -0.680109  0  3.177319  0  0  -0.619253  0  3.433833  0  0  -0.640518  0  3.42675  0  0  -0.60398  -0.604577  0  3.439068  0
N  N66  1  0.15409929  0.78410117  0.61221446  1  0  -0.680134  0  3.177395  0  0  -0.619239  0  3.433813  0  0  -0.640498  0  3.42673  0  0  -0.603982  -0.604576  0  3.439031  0
N  N67  1  0.65409873  0.71590180  0.88778612  1  0  -0.680133  0  3.177363  0  0  -0.619271  0  3.433819  0  0  -0.64056  0  3.426757  0  0  -0.603979  -0.604608  0  3.439039  0
N  N68  1  0.84703391  0.58357150  0.59822695  1  0  0.70633  0  4.127034  0  0  0.733205  0  4.41906  0  0  0.763356  0  4.422916  0  0  0.099549  0.712855  0  4.415901  0
N  N69  1  0.34703416  0.91642745  0.90177244  1  0  0.706325  0  4.127124  0  0  0.733204  0  4.419145  0  0  0.763352  0  4.423008  0  0  0.09954  0.712855  0  4.415987  0
N  N70  1  0.15296576  0.41642757  0.40177299  1  0  0.706339  0  4.127122  0  0  0.733213  0  4.419151  0  0  0.763366  0  4.423005  0  0  0.099535  0.712866  0  4.415989  0
N  N71  1  0.65296551  0.08357269  0.09822798  1  0  0.706324  0  4.127118  0  0  0.733202  0  4.419136  0  0  0.763355  0  4.422994  0  0  0.099547  0.712853  0  4.415981  0
O  O72  1  0.69883638  0.84469455  0.69157937  1  0  -0.623471  0  2.04874  0  0  -0.56681  0  2.288187  0  0  -0.592836  0  2.27905  0  0  -0.304437  -0.548206  0  2.293843  0
O  O73  1  0.19883732  0.65530421  0.80842016  1  0  -0.623559  0  2.048521  0  0  -0.566894  0  2.287981  0  0  -0.592924  0  2.278857  0  0  -0.304509  -0.548291  0  2.293634  0
O  O74  1  0.30116222  0.15530345  0.30842010  1  0  -0.623532  0  2.048776  0  0  -0.566849  0  2.288209  0  0  -0.592886  0  2.279103  0  0  -0.304477  -0.548248  0  2.293856  0
O  O75  1  0.80116235  0.34469593  0.19157846  1  0  -0.623499  0  2.048772  0  0  -0.566832  0  2.288214  0  0  -0.592872  0  2.279106  0  0  -0.304472  -0.54823  0  2.293868  0
O  O76  1  0.88248501  0.96973113  0.81806002  1  0  -0.681969  0  2.095443  0  0  -0.598431  0  2.355868  0  0  -0.628984  0  2.341132  0  0  -0.323178  -0.576327  0  2.365588  0
O  O77  1  0.38248487  0.53026894  0.68194071  1  0  -0.68198  0  2.09555  0  0  -0.598455  0  2.355969  0  0  -0.629007  0  2.341238  0  0  -0.323192  -0.576354  0  2.365695  0
O  O78  1  0.11751680  0.03026901  0.18194130  1  0  -0.681945  0  2.095549  0  0  -0.598403  0  2.355951  0  0  -0.628955  0  2.341221  0  0  -0.323174  -0.5763  0  2.365664  0
O  O79  1  0.61751694  0.46973120  0.31805791  1  0  -0.682001  0  2.095448  0  0  -0.598467  0  2.355852  0  0  -0.629021  0  2.341123  0  0  -0.323199  -0.576355  0  2.365567  0
O  O80  1  0.50484796  0.30040088  0.48385170  1  0  -0.840042  0  1.900091  0  0  -0.770164  0  2.121891  0  0  -0.792912  0  2.083899  0  0  -0.576402  -0.753826  0  2.148602  0
O  O81  1  0.00484854  0.19959813  0.01614802  1  0  -0.840013  0  1.900105  0  0  -0.770135  0  2.121906  0  0  -0.792881  0  2.083914  0  0  -0.576397  -0.753796  0  2.148612  0
O  O82  1  0.49515170  0.69959926  0.51614872  1  0  -0.840065  0  1.900068  0  0  -0.77018  0  2.121877  0  0  -0.792935  0  2.08389  0  0  -0.576417  -0.753844  0  2.148588  0
O  O83  1  0.99515113  0.80040095  0.98385192  1  0  -0.840042  0  1.900086  0  0  -0.77017  0  2.121896  0  0  -0.79292  0  2.083904  0  0  -0.576406  -0.753834  0  2.148606  0
O  O84  1  0.73561211  0.51129967  0.60039929  1  0  -0.511498  0  1.837933  0  0  -0.472453  0  2.072677  0  0  -0.492961  0  2.062199  0  0  -0.195252  -0.458212  0  2.080445  0
O  O85  1  0.23561252  0.98870021  0.89960157  1  0  -0.511479  0  1.837967  0  0  -0.472428  0  2.072706  0  0  -0.492935  0  2.062233  0  0  -0.195242  -0.458186  0  2.080476  0
O  O86  1  0.26438649  0.48870048  0.39960203  1  0  -0.511476  0  1.837973  0  0  -0.472428  0  2.072731  0  0  -0.492936  0  2.062255  0  0  -0.195223  -0.458186  0  2.080498  0
O  O87  1  0.76438715  0.01129993  0.10039884  1  0  -0.511473  0  1.837964  0  0  -0.472431  0  2.07272  0  0  -0.492938  0  2.062242  0  0  -0.195238  -0.45819  0  2.080488  0
O  O88  1  0.91653238  0.65159550  0.70690697  1  0  -0.459252  0  1.885674  0  0  -0.436428  0  2.123481  0  0  -0.453382  0  2.115342  0  0  -0.167008  -0.424908  0  2.129398  0
O  O89  1  0.41653271  0.84840461  0.79309463  1  0  -0.45923  0  1.885734  0  0  -0.436419  0  2.123546  0  0  -0.453372  0  2.115409  0  0  -0.166983  -0.424903  0  2.129467  0
O  O90  1  0.08346728  0.34840464  0.29309434  1  0  -0.459245  0  1.885708  0  0  -0.436423  0  2.123506  0  0  -0.453374  0  2.115375  0  0  -0.166992  -0.424911  0  2.129427  0
O  O91  1  0.58346803  0.15159554  0.20690669  1  0  -0.459243  0  1.885707  0  0  -0.436434  0  2.123521  0  0  -0.453389  0  2.115384  0  0  -0.167004  -0.424914  0  2.129436  0
O  O92  1  0.88333012  0.58302281  0.49024346  1  0  -0.413032  0  1.789122  0  0  -0.408688  0  2.002139  0  0  -0.422136  0  1.997033  0  0  -0.154669  -0.399385  0  2.005655  0
O  O93  1  0.38333011  0.91697671  0.00975664  1  0  -0.413055  0  1.789111  0  0  -0.408704  0  2.002134  0  0  -0.42215  0  1.997024  0  0  -0.154687  -0.399401  0  2.005642  0
O  O94  1  0.11666955  0.41697733  0.50975696  1  0  -0.413051  0  1.789121  0  0  -0.408709  0  2.00213  0  0  -0.42216  0  1.997033  0  0  -0.154692  -0.399414  0  2.005656  0
O  O95  1  0.61666956  0.08302236  0.99024330  1  0  -0.413053  0  1.789127  0  0  -0.4087  0  2.00216  0  0  -0.422139  0  1.997026  0  0  -0.154685  -0.399395  0  2.005659  0
