# generated using pymatgen
data_SrCo2H16C12(NO4)4
_symmetry_space_group_name_H-M   'P 1'
_cell_length_a   8.97445332
_cell_length_b   9.04601693
_cell_length_c   15.43507730
_cell_angle_alpha   89.99958693
_cell_angle_beta   89.99975319
_cell_angle_gamma   91.23241907
_symmetry_Int_Tables_number   1
_chemical_formula_structural   SrCo2H16C12(NO4)4
_chemical_formula_sum   'Sr2 Co4 H32 C24 N8 O32'
_cell_volume   1252.77688825
_cell_formula_units_Z   2
loop_
 _symmetry_equiv_pos_site_id
 _symmetry_equiv_pos_as_xyz
  1  'x, y, z'
loop_
 _atom_site_type_symbol
 _atom_site_label
 _atom_site_symmetry_multiplicity
 _atom_site_fract_x
 _atom_site_fract_y
 _atom_site_fract_z
 _atom_site_occupancy
 _atom_site_pbe_bader_charge
 _atom_site_pbe_bader_spin_density
 _atom_site_pbe_cm5_charge
 _atom_site_pbe_ddec_charge
 _atom_site_pbe_ddec_spin_density
 _atom_site_pbe_ddec_sum_bond_order
 _atom_site_pbe_magmom
Sr  Sr0  1  0.00613098  0.00299574  0.47777472  1  1.676882  0  0.947283  1.359508  0  1.544651  0
Sr  Sr1  1  0.99387242  0.99700641  0.97777538  1  1.676862  0  0.947253  1.359489  0  1.544653  0
Co  Co2  1  0.50684226  0.99350411  0.71833835  1  1.220324  0  0.752064  0.824623  0  3.189225  0
Co  Co3  1  0.49315631  0.00649695  0.21833907  1  1.220252  0  0.752084  0.82453  0  3.189488  0
Co  Co4  1  0.98073383  0.50262505  0.23960002  1  1.21847  0  0.751887  0.828201  0  3.182531  0
Co  Co5  1  0.01926016  0.49737691  0.73960131  1  1.218371  0  0.751884  0.828201  0  3.182471  0
H  H6  1  0.62564597  0.09611379  0.89992714  1  0.08511  0  0.118253  0.098179  0  0.992953  0
H  H7  1  0.37435675  0.90388492  0.39992695  1  0.085119  0  0.118268  0.098218  0  0.992922  0
H  H8  1  0.44811909  0.09703670  0.95196726  1  0.092965  0  0.112743  0.099113  0  0.999  0
H  H9  1  0.55188323  0.90296137  0.45196664  1  0.092998  0  0.112737  0.099111  0  0.998986  0
H  H10  1  0.56010158  0.83564116  0.94182697  1  0.107347  0  0.112985  0.100373  0  0.991975  0
H  H11  1  0.43990189  0.16435591  0.44182650  1  0.107109  0  0.113007  0.100337  0  0.991918  0
H  H12  1  0.38473786  0.84866746  0.88776134  1  0.098631  0  0.114965  0.100414  0  0.995639  0
H  H13  1  0.61526381  0.15133032  0.38775791  1  0.098597  0  0.11496  0.100382  0  0.995661  0
H  H14  1  0.83609124  0.60822952  0.06596301  1  0.088584  0  0.115737  0.100591  0  0.990841  0
H  H15  1  0.16390486  0.39176465  0.56596050  1  0.088688  0  0.115735  0.100536  0  0.990854  0
H  H16  1  0.82920726  0.42994692  0.01539870  1  0.087222  0  0.113465  0.100648  0  0.984367  0
H  H17  1  0.17079491  0.57005111  0.51539542  1  0.087263  0  0.113446  0.100632  0  0.984342  0
H  H18  1  0.09006050  0.38387350  0.06273346  1  0.08533  0  0.119589  0.100031  0  0.979966  0
H  H19  1  0.90994373  0.61612943  0.56272880  1  0.085313  0  0.119602  0.100091  0  0.979849  0
H  H20  1  0.09102473  0.55594822  0.00622997  1  0.082722  0  0.112512  0.097438  0  1.006568  0
H  H21  1  0.90897425  0.44405219  0.50622799  1  0.082677  0  0.112502  0.097419  0  1.006632  0
H  H22  1  0.48120363  0.22153086  0.80304707  1  0.441545  0  0.323951  0.304472  0  0.884134  0
H  H23  1  0.51879862  0.77846576  0.30304705  1  0.441509  0  0.323979  0.30452  0  0.884003  0
H  H24  1  0.32920899  0.11479449  0.81734867  1  0.514559  0  0.299148  0.289382  0  0.985673  0
H  H25  1  0.67079549  0.88520525  0.31734718  1  0.514529  0  0.299176  0.289368  0  0.985668  0
H  H26  1  0.53993781  0.74906444  0.78336279  1  0.431281  0  0.321581  0.300657  0  0.888607  0
H  H27  1  0.46006698  0.25093682  0.28335997  1  0.431277  0  0.321569  0.300663  0  0.888528  0
H  H28  1  0.68620055  0.85794535  0.80885691  1  0.50396  0  0.298537  0.287781  0  0.991391  0
H  H29  1  0.31379855  0.14205789  0.30885750  1  0.503972  0  0.298566  0.287828  0  0.991294  0
H  H30  1  0.85036424  0.31515113  0.14993857  1  0.467914  0  0.298082  0.284536  0  0.995417  0
H  H31  1  0.14963570  0.68484303  0.64993486  1  0.467732  0  0.298093  0.284552  0  0.995457  0
H  H32  1  0.73521415  0.45292139  0.17244754  1  0.439628  0  0.322602  0.302686  0  0.887592  0
H  H33  1  0.26478004  0.54707257  0.67244542  1  0.439687  0  0.322616  0.302722  0  0.887616  0
H  H34  1  0.09790533  0.68511856  0.13918529  1  0.514191  0  0.300485  0.291052  0  0.985752  0
H  H35  1  0.90209294  0.31488903  0.63918582  1  0.514263  0  0.300503  0.291017  0  0.985819  0
H  H36  1  0.21083917  0.54483326  0.15667030  1  0.43022  0  0.323948  0.303445  0  0.884521  0
H  H37  1  0.78915876  0.45516859  0.65666597  1  0.430363  0  0.323947  0.303352  0  0.884662  0
C  C38  1  0.30699884  0.08450163  0.60224197  1  1.576309  0  0.21652  0.468895  0  4.22097  0
C  C39  1  0.69300191  0.91550528  0.10224742  1  1.576261  0  0.216525  0.468886  0  4.22095  0
C  C40  1  0.24490271  0.94092088  0.64403012  1  1.572916  0  0.221593  0.461822  0  4.180861  0
C  C41  1  0.75509636  0.05907890  0.14403191  1  1.572936  0  0.221644  0.461876  0  4.180709  0
C  C42  1  0.70729101  0.91572086  0.59913186  1  1.584041  0  0.215323  0.467353  0  4.222766  0
C  C43  1  0.29272042  0.08427267  0.09913016  1  1.584074  0  0.215268  0.46729  0  4.22285  0
C  C44  1  0.77122388  0.05284578  0.64726100  1  1.579833  0  0.22235  0.466127  0  4.180958  0
C  C45  1  0.22878602  0.94714606  0.14726034  1  1.579683  0  0.222298  0.466046  0  4.180784  0
C  C46  1  0.93065249  0.76383460  0.31186869  1  1.567176  0  0.222338  0.464746  0  4.18256  0
C  C47  1  0.06933779  0.23617204  0.81187290  1  1.567621  0  0.222369  0.46467  0  4.182073  0
C  C48  1  0.07522894  0.70705863  0.35358135  1  1.594391  0  0.21748  0.472251  0  4.219117  0
C  C49  1  0.92476182  0.29293863  0.85358062  1  1.594328  0  0.217439  0.472366  0  4.218988  0
C  C50  1  0.91124493  0.30008686  0.36003984  1  1.597576  0  0.216045  0.465109  0  4.226902  0
C  C51  1  0.08875588  0.69991239  0.86003816  1  1.597604  0  0.215981  0.464944  0  4.226976  0
C  C52  1  0.05005519  0.24640472  0.31119773  1  1.574345  0  0.221887  0.465199  0  4.182367  0
C  C53  1  0.94994719  0.75359733  0.81119498  1  1.574352  0  0.221854  0.465181  0  4.182092  0
C  C54  1  0.50942671  0.05631038  0.89558401  1  0.240073  0  -0.06332  -0.017867  0  3.837687  0
C  C55  1  0.49057398  0.94369285  0.39558661  1  0.239981  0  -0.063292  -0.017846  0  3.837544  0
C  C56  1  0.50095344  0.88913908  0.88836169  1  0.198911  0  -0.066265  -0.02161  0  3.842324  0
C  C57  1  0.49905148  0.11085644  0.38836261  1  0.199164  0  -0.066274  -0.021494  0  3.842198  0
C  C58  1  0.87940169  0.49562287  0.06821456  1  0.275021  0  -0.064164  -0.018422  0  3.838951  0
C  C59  1  0.12060016  0.50437672  0.56821557  1  0.274922  0  -0.064163  -0.018396  0  3.838959  0
C  C60  1  0.04824621  0.49711475  0.06347703  1  0.212499  0  -0.063033  -0.015869  0  3.837146  0
C  C61  1  0.95174787  0.50288500  0.56347728  1  0.212534  0  -0.063031  -0.015896  0  3.837088  0
N  N62  1  0.44498409  0.11513611  0.81394136  1  -1.066084  0  -0.609349  -0.495221  0  3.402857  0
N  N63  1  0.55501703  0.88486261  0.31393951  1  -1.065974  0  -0.609416  -0.495309  0  3.402543  0
N  N64  1  0.57053107  0.85297405  0.80370905  1  -1.062452  0  -0.612087  -0.496694  0  3.419081  0
N  N65  1  0.42947121  0.14702367  0.30370674  1  -1.062405  0  -0.612114  -0.496757  0  3.418834  0
N  N66  1  0.84146066  0.42930222  0.15382818  1  -1.029714  0  -0.613441  -0.500615  0  3.422822  0
N  N67  1  0.15853825  0.57069522  0.65382493  1  -1.029641  0  -0.61347  -0.500676  0  3.423137  0
N  N68  1  0.10248090  0.57057563  0.14417222  1  -1.067164  0  -0.610028  -0.495575  0  3.406776  0
N  N69  1  0.89751494  0.42942751  0.64416839  1  -1.067348  0  -0.610021  -0.495427  0  3.407044  0
O  O70  1  0.13162655  0.87760269  0.61321227  1  -1.167738  0  -0.30941  -0.502726  0  2.247959  0
O  O71  1  0.86837845  0.12240070  0.11321287  1  -1.167779  0  -0.309459  -0.502824  0  2.247602  0
O  O72  1  0.23771274  0.14285763  0.54130282  1  -1.182556  0  -0.331256  -0.531851  0  2.210068  0
O  O73  1  0.76229051  0.85714449  0.04130381  1  -1.182339  0  -0.331244  -0.531818  0  2.209746  0
O  O74  1  0.43120185  0.13220407  0.63460631  1  -1.058929  0  -0.296431  -0.472283  0  2.321345  0
O  O75  1  0.56879955  0.86779689  0.13460774  1  -1.059083  0  -0.296444  -0.472322  0  2.321444  0
O  O76  1  0.31858416  0.89363354  0.70993909  1  -1.064247  0  -0.287716  -0.451357  0  2.35311  0
O  O77  1  0.68141790  0.10636978  0.20993892  1  -1.06429  0  -0.287728  -0.451312  0  2.353123  0
O  O78  1  0.69574923  0.09428741  0.71369799  1  -1.056536  0  -0.283871  -0.446227  0  2.343012  0
O  O79  1  0.30425371  0.90571033  0.21370250  1  -1.056342  0  -0.283858  -0.446178  0  2.342972  0
O  O80  1  0.57954439  0.86886061  0.62718835  1  -1.068317  0  -0.298285  -0.477257  0  2.344037  0
O  O81  1  0.42045923  0.13113821  0.12718872  1  -1.068347  0  -0.298233  -0.477128  0  2.344255  0
O  O82  1  0.77708681  0.86130850  0.53730259  1  -1.182559  0  -0.338717  -0.530648  0  2.21004  0
O  O83  1  0.22291841  0.13868589  0.03730083  1  -1.182411  0  -0.338682  -0.530593  0  2.209898  0
O  O84  1  0.88750002  0.11575870  0.61990615  1  -1.177952  0  -0.310712  -0.509005  0  2.249302  0
O  O85  1  0.11250560  0.88423243  0.11990734  1  -1.178082  0  -0.31069  -0.509004  0  2.249148  0
O  O86  1  0.12049005  0.58383056  0.32247514  1  -1.072875  0  -0.297744  -0.475371  0  2.33749  0
O  O87  1  0.87949896  0.41617375  0.82247399  1  -1.072862  0  -0.297664  -0.475344  0  2.337457  0
O  O88  1  0.87845074  0.68459031  0.24880348  1  -1.052477  0  -0.286617  -0.449106  0  2.33656  0
O  O89  1  0.12154552  0.31541483  0.74880399  1  -1.052631  0  -0.286621  -0.449061  0  2.336392  0
O  O90  1  0.87247604  0.87838430  0.34042944  1  -1.16991  0  -0.306362  -0.504756  0  2.237601  0
O  O91  1  0.12752631  0.12162291  0.84043788  1  -1.169992  0  -0.306414  -0.5048  0  2.237292  0
O  O92  1  0.13702182  0.77846384  0.41337998  1  -1.183825  0  -0.338032  -0.534726  0  2.223562  0
O  O93  1  0.86296032  0.22152283  0.91337581  1  -1.18396  0  -0.338039  -0.5348  0  2.223495  0
O  O94  1  0.11853022  0.13708262  0.33907270  1  -1.176789  0  -0.310109  -0.507131  0  2.24446  0
O  O95  1  0.88147338  0.86292791  0.83907160  1  -1.176818  0  -0.310089  -0.507117  0  2.244035  0
O  O96  1  0.86130202  0.22769546  0.42303942  1  -1.189021  0  -0.336076  -0.530776  0  2.215164  0
O  O97  1  0.13870061  0.77230518  0.92304055  1  -1.189019  0  -0.336018  -0.530671  0  2.214974  0
O  O98  1  0.08685970  0.32203772  0.24349070  1  -1.058162  0  -0.284206  -0.4463  0  2.343832  0
O  O99  1  0.91313649  0.67796416  0.74349096  1  -1.058156  0  -0.284215  -0.446289  0  2.343817  0
O  O100  1  0.85796049  0.42165215  0.33133231  1  -1.072614  0  -0.296139  -0.473239  0  2.335038  0
O  O101  1  0.14203374  0.57834423  0.83133296  1  -1.072619  0  -0.296108  -0.473165  0  2.335106  0
