# generated using pymatgen
data_BaH14C14N2O11
_symmetry_space_group_name_H-M   'P 1'
_cell_length_a   8.27050297
_cell_length_b   8.33804640
_cell_length_c   13.83643262
_cell_angle_alpha   80.60824494
_cell_angle_beta   85.52344947
_cell_angle_gamma   70.88248500
_symmetry_Int_Tables_number   1
_chemical_formula_structural   BaH14C14N2O11
_chemical_formula_sum   'Ba2 H28 C28 N4 O22'
_cell_volume   889.14077689
_cell_formula_units_Z   2
loop_
 _symmetry_equiv_pos_site_id
 _symmetry_equiv_pos_as_xyz
  1  'x, y, z'
loop_
 _atom_site_type_symbol
 _atom_site_label
 _atom_site_symmetry_multiplicity
 _atom_site_fract_x
 _atom_site_fract_y
 _atom_site_fract_z
 _atom_site_occupancy
 _atom_site_hle17_bader_spin_density
 _atom_site_hle17_ddec_charge
 _atom_site_hle17_ddec_spin_density
 _atom_site_hle17_ddec_sum_bond_order
 _atom_site_hle17_magmom
 _atom_site_hse06_10hf_bader_spin_density
 _atom_site_hse06_10hf_ddec_charge
 _atom_site_hse06_10hf_ddec_spin_density
 _atom_site_hse06_10hf_ddec_sum_bond_order
 _atom_site_hse06_10hf_magmom
 _atom_site_hse06_bader_spin_density
 _atom_site_hse06_ddec_charge
 _atom_site_hse06_ddec_spin_density
 _atom_site_hse06_ddec_sum_bond_order
 _atom_site_hse06_magmom
 _atom_site_pbe_bader_spin_density
 _atom_site_pbe_cm5_charge
 _atom_site_pbe_ddec_charge
 _atom_site_pbe_ddec_spin_density
 _atom_site_pbe_ddec_sum_bond_order
 _atom_site_pbe_magmom
Ba  Ba0  1  0.60187993  0.22719607  0.96347096  1  0  1.656001  0  1.149946  0  0  1.516836  0  1.549799  0  0  1.555742  0  1.504999  0  0  0.962664  1.488105  0  1.581666  0
Ba  Ba1  1  0.39812021  0.77280489  0.03652912  1  0  1.655963  0  1.149991  0  0  1.516792  0  1.549856  0  0  1.555696  0  1.505054  0  0  0.962648  1.488064  0  1.58173  0
H  H2  1  0.98267992  0.06521040  0.59867153  1  0  0.100938  0  0.94346  0  0  0.112158  0  1.001489  0  0  0.114664  0  1.000456  0  0  0.107479  0.110387  0  1.002238  0
H  H3  1  0.01731779  0.93479057  0.40132866  1  0  0.100937  0  0.943453  0  0  0.112139  0  1.001497  0  0  0.114641  0  1.000473  0  0  0.107484  0.110366  0  1.002244  0
H  H4  1  0.21674071  0.07900669  0.47313210  1  0  0.102029  0  0.956317  0  0  0.110709  0  1.018142  0  0  0.114019  0  1.016331  0  0  0.104619  0.108349  0  1.019544  0
H  H5  1  0.78325823  0.92099427  0.52686732  1  0  0.102006  0  0.956367  0  0  0.110691  0  1.018189  0  0  0.114  0  1.016377  0  0  0.104611  0.10833  0  1.019593  0
H  H6  1  0.00506739  0.11226945  0.76635157  1  0  0.11598  0  0.957754  0  0  0.124397  0  1.020302  0  0  0.128393  0  1.017598  0  0  0.116966  0.121439  0  1.022462  0
H  H7  1  0.99493276  0.88773151  0.23364779  1  0  0.115953  0  0.957746  0  0  0.124379  0  1.020285  0  0  0.128375  0  1.017581  0  0  0.116969  0.121421  0  1.022441  0
H  H8  1  0.89624719  0.61398847  0.63478183  1  0  0.092205  0  0.982156  0  0  0.095275  0  1.055244  0  0  0.099801  0  1.051085  0  0  0.098208  0.091982  0  1.0583  0
H  H9  1  0.10375336  0.38601121  0.36521837  1  0  0.092202  0  0.98216  0  0  0.095268  0  1.055254  0  0  0.099795  0  1.051093  0  0  0.098201  0.091973  0  1.058308  0
H  H10  1  0.96964368  0.66069964  0.79553037  1  0  0.105387  0  0.957622  0  0  0.112908  0  1.021304  0  0  0.116957  0  1.018272  0  0  0.111464  0.109885  0  1.023746  0
H  H11  1  0.03035728  0.33929875  0.20446921  1  0  0.105375  0  0.957627  0  0  0.112896  0  1.021309  0  0  0.116945  0  1.018276  0  0  0.111452  0.109871  0  1.023751  0
H  H12  1  0.39691749  0.61074140  0.52007904  1  0  0.109201  0  0.966797  0  0  0.113001  0  1.040002  0  0  0.116487  0  1.037427  0  0  0.107137  0.110557  0  1.041835  0
H  H13  1  0.60308226  0.38926084  0.47991949  1  0  0.109172  0  0.966828  0  0  0.113002  0  1.039993  0  0  0.116491  0  1.037411  0  0  0.107104  0.110555  0  1.041833  0
H  H14  1  0.47071009  0.14262181  0.52263450  1  0  0.105532  0  0.969464  0  0  0.111326  0  1.038207  0  0  0.113912  0  1.037414  0  0  0.107734  0.109467  0  1.038869  0
H  H15  1  0.52928845  0.85737659  0.47736519  1  0  0.105513  0  0.969471  0  0  0.111315  0  1.038204  0  0  0.113902  0  1.037409  0  0  0.107737  0.109454  0  1.03887  0
H  H16  1  0.11233878  0.58637204  0.49549919  1  0  0.099368  0  0.947056  0  0  0.111594  0  1.002595  0  0  0.114076  0  1.002324  0  0  0.105571  0.10984  0  1.002858  0
H  H17  1  0.88766057  0.41362764  0.50450033  1  0  0.099367  0  0.947058  0  0  0.111617  0  1.002569  0  0  0.114101  0  1.002293  0  0  0.105573  0.109864  0  1.002837  0
H  H18  1  0.20412310  0.31993012  0.99720021  1  0  0.417139  0  0.88464  0  0  0.383689  0  0.951928  0  0  0.395508  0  0.934616  0  0  0.299983  0.375304  0  0.964185  0
H  H19  1  0.79587583  0.68007084  0.00279920  1  0  0.41713  0  0.884657  0  0  0.383682  0  0.951941  0  0  0.395502  0  0.934628  0  0  0.299965  0.375296  0  0.964197  0
H  H20  1  0.78521261  0.43724004  0.78516102  1  0  0.419664  0  0.843255  0  0  0.392286  0  0.916816  0  0  0.400059  0  0.907754  0  0  0.317246  0.386838  0  0.923201  0
H  H21  1  0.21478795  0.56275964  0.21483845  1  0  0.419688  0  0.843222  0  0  0.392307  0  0.916786  0  0  0.40008  0  0.907724  0  0  0.317254  0.386858  0  0.923163  0
H  H22  1  0.94294621  0.35866915  0.85690886  1  0  0.429108  0  0.878523  0  0  0.393427  0  0.949658  0  0  0.404674  0  0.933534  0  0  0.294559  0.385522  0  0.960958  0
H  H23  1  0.05705557  0.64133052  0.14309055  1  0  0.429062  0  0.878578  0  0  0.393376  0  0.949724  0  0  0.404624  0  0.933598  0  0  0.294537  0.385469  0  0.961026  0
H  H24  1  0.23734723  0.40997262  0.08640202  1  0  0.426571  0  0.872282  0  0  0.397371  0  0.93252  0  0  0.407923  0  0.91703  0  0  0.299041  0.389917  0  0.943456  0
H  H25  1  0.76265291  0.59002834  0.91359807  1  0  0.426566  0  0.872293  0  0  0.397373  0  0.932518  0  0  0.407925  0  0.917029  0  0  0.299043  0.389918  0  0.943455  0
H  H26  1  0.78093143  0.87631498  0.88687858  1  0  0.421894  0  0.882714  0  0  0.394806  0  0.941004  0  0  0.405408  0  0.925306  0  0  0.292063  0.3873  0  0.952103  0
H  H27  1  0.21906913  0.12368470  0.11312089  1  0  0.421895  0  0.882714  0  0  0.394807  0  0.941002  0  0  0.405409  0  0.925304  0  0  0.292063  0.387299  0  0.952103  0
H  H28  1  0.95377671  0.91409601  0.87932865  1  0  0.425981  0  0.877778  0  0  0.396949  0  0.939168  0  0  0.40788  0  0.923074  0  0  0.290401  0.389191  0  0.950565  0
H  H29  1  0.04622425  0.08590239  0.12067165  1  0  0.426002  0  0.87775  0  0  0.396951  0  0.939174  0  0  0.407884  0  0.923076  0  0  0.290393  0.389193  0  0.950568  0
C  C30  1  0.38101219  0.15642165  0.67144655  1  0  0.064142  0  3.683529  0  0  0.039726  0  3.932456  0  0  0.036639  0  3.954624  0  0  0.083545  0.04162  0  3.917632  0
C  C31  1  0.61898674  0.84357931  0.32855286  1  0  0.064133  0  3.683399  0  0  0.039696  0  3.932339  0  0  0.036607  0  3.954508  0  0  0.083539  0.041589  0  3.91752  0
C  C32  1  0.09576206  0.09163501  0.61789921  1  0  -0.026138  0  3.713182  0  0  -0.046377  0  3.970691  0  0  -0.046074  0  3.991275  0  0  -0.072339  -0.046373  0  3.956567  0
C  C33  1  0.90423524  0.90836724  0.38210159  1  0  -0.026112  0  3.713073  0  0  -0.04634  0  3.970596  0  0  -0.046038  0  3.991179  0  0  -0.072298  -0.046342  0  3.956472  0
C  C34  1  0.26242835  0.16725057  0.84933506  1  0  0.685223  0  3.913007  0  0  0.626112  0  4.222921  0  0  0.661194  0  4.212013  0  0  0.232843  0.602236  0  4.229507  0
C  C35  1  0.73756937  0.83275039  0.15066513  1  0  0.685268  0  3.913014  0  0  0.626153  0  4.222934  0  0  0.661236  0  4.212026  0  0  0.232851  0.602277  0  4.229524  0
C  C36  1  0.22585605  0.09868257  0.54815212  1  0  -0.070725  0  3.75198  0  0  -0.085682  0  4.00946  0  0  -0.089681  0  4.031299  0  0  -0.0885  -0.083007  0  3.994568  0
C  C37  1  0.77414046  0.90131839  0.45184740  1  0  -0.070722  0  3.75209  0  0  -0.085682  0  4.009562  0  0  -0.08968  0  4.0314  0  0  -0.088522  -0.083009  0  3.994676  0
C  C38  1  0.10780558  0.11964623  0.71336653  1  0  -0.075541  0  3.691411  0  0  -0.100783  0  3.946733  0  0  -0.103558  0  3.965907  0  0  -0.075066  -0.099063  0  3.934105  0
C  C39  1  0.89219215  0.88035474  0.28663294  1  0  -0.075502  0  3.691306  0  0  -0.100747  0  3.946632  0  0  -0.103522  0  3.965808  0  0  -0.075105  -0.099019  0  3.933991  0
C  C40  1  0.26717904  0.67086685  0.85358154  1  0  0.676378  0  3.932218  0  0  0.62179  0  4.237007  0  0  0.656423  0  4.227137  0  0  0.213934  0.598249  0  4.242812  0
C  C41  1  0.73282192  0.32913155  0.14641876  1  0  0.676457  0  3.932133  0  0  0.621891  0  4.236888  0  0  0.656523  0  4.227019  0  0  0.213972  0.59835  0  4.242694  0
C  C42  1  0.22458064  0.65896874  0.75135762  1  0  -0.061365  0  3.677985  0  0  -0.050421  0  3.921665  0  0  -0.053123  0  3.939683  0  0  0.00731  -0.048919  0  3.909933  0
C  C43  1  0.77542032  0.34102965  0.24864196  1  0  -0.061315  0  3.677887  0  0  -0.050394  0  3.921583  0  0  -0.05309  0  3.939594  0  0  0.007304  -0.048896  0  3.909856  0
C  C44  1  0.02288450  0.62194126  0.64451476  1  0  -0.050529  0  3.725263  0  0  -0.069415  0  3.981595  0  0  -0.070585  0  4.001453  0  0  -0.081217  -0.068385  0  3.968029  0
C  C45  1  0.97711445  0.37805969  0.35548394  1  0  -0.050532  0  3.725293  0  0  -0.069418  0  3.981631  0  0  -0.070589  0  4.001492  0  0  -0.081219  -0.068385  0  3.968063  0
C  C46  1  0.06344733  0.64929150  0.73521686  1  0  -0.056711  0  3.692361  0  0  -0.079536  0  3.94282  0  0  -0.080847  0  3.961356  0  0  -0.07446  -0.078736  0  3.930545  0
C  C47  1  0.93655524  0.35070946  0.26478312  1  0  -0.056723  0  3.692351  0  0  -0.079546  0  3.942814  0  0  -0.080856  0  3.961348  0  0  -0.074451  -0.078744  0  3.930537  0
C  C48  1  0.25141351  0.15145286  0.74285020  1  0  -0.058284  0  3.666897  0  0  -0.047577  0  3.914  0  0  -0.049211  0  3.931465  0  0  0.011029  -0.046678  0  3.902474  0
C  C49  1  0.74858664  0.84854810  0.25714844  1  0  -0.058358  0  3.666843  0  0  -0.047649  0  3.913966  0  0  -0.049282  0  3.931429  0  0  0.011026  -0.046752  0  3.902439  0
C  C50  1  0.34188405  0.64367589  0.67176836  1  0  0.061282  0  3.706465  0  0  0.039177  0  3.958622  0  0  0.036664  0  3.981493  0  0  0.080921  0.04079  0  3.943258  0
C  C51  1  0.65811772  0.35632379  0.32823178  1  0  0.061266  0  3.70642  0  0  0.039184  0  3.95857  0  0  0.036671  0  3.981443  0  0  0.080954  0.040802  0  3.943196  0
C  C52  1  0.30348286  0.61758626  0.58031389  1  0  -0.104914  0  3.733394  0  0  -0.135853  0  4.000915  0  0  -0.136878  0  4.021329  0  0  -0.085658  -0.13496  0  3.986954  0
C  C53  1  0.69651607  0.38241470  0.41968625  1  0  -0.104883  0  3.733381  0  0  -0.135848  0  4.000902  0  0  -0.136875  0  4.021317  0  0  -0.085644  -0.134954  0  3.986945  0
C  C54  1  0.36852206  0.13235278  0.57513551  1  0  -0.100007  0  3.744608  0  0  -0.128884  0  4.008894  0  0  -0.129077  0  4.029721  0  0  -0.084543  -0.12855  0  3.99471  0
C  C55  1  0.63147687  0.86764818  0.42486390  1  0  -0.099912  0  3.744652  0  0  -0.128788  0  4.008931  0  0  -0.12898  0  4.029756  0  0  -0.084502  -0.128457  0  3.994754  0
C  C56  1  0.14302783  0.60592092  0.56688459  1  0  -0.05257  0  3.743309  0  0  -0.06437  0  3.993215  0  0  -0.06737  0  4.016063  0  0  -0.084296  -0.062279  0  3.977465  0
C  C57  1  0.85697110  0.39408004  0.43311555  1  0  -0.052547  0  3.743201  0  0  -0.06436  0  3.993103  0  0  -0.067362  0  4.015959  0  0  -0.084277  -0.062275  0  3.977362  0
N  N58  1  0.51087828  0.65801352  0.68209214  1  0  0.474849  0  3.930444  0  0  0.529245  0  4.188166  0  0  0.551227  0  4.193898  0  0  0.057486  0.514427  0  4.184301  0
N  N59  1  0.48912186  0.34198745  0.31790867  1  0  0.474806  0  3.930372  0  0  0.529179  0  4.18812  0  0  0.55116  0  4.193856  0  0  0.057463  0.514359  0  4.184256  0
N  N60  1  0.53404375  0.19318573  0.69331985  1  0  0.49263  0  3.921892  0  0  0.555481  0  4.166142  0  0  0.578344  0  4.171289  0  0  0.067773  0.540073  0  4.162741  0
N  N61  1  0.46595560  0.80681394  0.30667896  1  0  0.49273  0  3.921939  0  0  0.555621  0  4.166131  0  0  0.578486  0  4.171275  0  0  0.067829  0.540212  0  4.162729  0
O  O62  1  0.39859027  0.55866794  0.89278402  1  0  -0.723596  0  1.986697  0  0  -0.668864  0  2.23796  0  0  -0.696671  0  2.229622  0  0  -0.386654  -0.649011  0  2.243029  0
O  O63  1  0.60141069  0.44133046  0.10721628  1  0  -0.723631  0  1.986701  0  0  -0.668907  0  2.237959  0  0  -0.696714  0  2.22962  0  0  -0.386672  -0.649053  0  2.243026  0
O  O64  1  0.81402602  0.40787635  0.85421966  1  0  -0.8557  0  1.838348  0  0  -0.797499  0  2.025279  0  0  -0.817121  0  1.99813  0  0  -0.586948  -0.783571  0  2.044107  0
O  O65  1  0.18597454  0.59212332  0.14577981  1  0  -0.85567  0  1.838381  0  0  -0.79746  0  2.025314  0  0  -0.817082  0  1.998165  0  0  -0.58693  -0.783526  0  2.044129  0
O  O66  1  0.52361864  0.27818613  0.76102366  1  0  -0.404671  0  1.889297  0  0  -0.398518  0  2.11707  0  0  -0.412636  0  2.113463  0  0  -0.14587  -0.389127  0  2.119551  0
O  O67  1  0.47638191  0.72181354  0.23897654  1  0  -0.404771  0  1.88946  0  0  -0.398629  0  2.117215  0  0  -0.412743  0  2.113596  0  0  -0.145927  -0.389237  0  2.119694  0
O  O68  1  0.16630237  0.79114706  0.89623514  1  0  -0.669721  0  1.953275  0  0  -0.605624  0  2.173604  0  0  -0.632953  0  2.164226  0  0  -0.345096  -0.586068  0  2.1793  0
O  O69  1  0.83369698  0.20885262  0.10376439  1  0  -0.669786  0  1.953251  0  0  -0.605681  0  2.173559  0  0  -0.633014  0  2.164189  0  0  -0.345111  -0.586127  0  2.179255  0
O  O70  1  0.27289548  0.30302828  0.05616322  1  0  -0.877157  0  1.873772  0  0  -0.816622  0  2.047348  0  0  -0.837641  0  2.014079  0  0  -0.59838  -0.801616  0  2.070528  0
O  O71  1  0.72710386  0.69697140  0.94383703  1  0  -0.877125  0  1.873798  0  0  -0.8166  0  2.047382  0  0  -0.837612  0  2.014096  0  0  -0.598362  -0.801589  0  2.070564  0
O  O72  1  0.38793091  0.06205151  0.89715729  1  0  -0.715778  0  1.975027  0  0  -0.658572  0  2.224104  0  0  -0.686707  0  2.215579  0  0  -0.381031  -0.638393  0  2.229249  0
O  O73  1  0.61207006  0.93794688  0.10284228  1  0  -0.715807  0  1.975101  0  0  -0.658584  0  2.224156  0  0  -0.686718  0  2.215628  0  0  -0.381026  -0.638406  0  2.229303  0
O  O74  1  0.14214088  0.28405581  0.88456589  1  0  -0.62774  0  1.986698  0  0  -0.559917  0  2.20081  0  0  -0.58717  0  2.189928  0  0  -0.285993  -0.540566  0  2.207668  0
O  O75  1  0.85785967  0.71594387  0.11543358  1  0  -0.627743  0  1.9866  0  0  -0.55993  0  2.200729  0  0  -0.587187  0  2.189843  0  0  -0.286012  -0.540578  0  2.207586  0
O  O76  1  0.52497872  0.75784684  0.73551395  1  0  -0.313362  0  1.770661  0  0  -0.300525  0  1.956369  0  0  -0.310643  0  1.95354  0  0  -0.091402  -0.293774  0  1.958412  0
O  O77  1  0.47502062  0.24215284  0.26448630  1  0  -0.313335  0  1.770597  0  0  -0.3005  0  1.956317  0  0  -0.310616  0  1.953488  0  0  -0.091401  -0.293752  0  1.958365  0
O  O78  1  0.63350497  0.56779370  0.63533497  1  0  -0.386496  0  1.765303  0  0  -0.370903  0  1.963373  0  0  -0.385289  0  1.958844  0  0  -0.13586  -0.361289  0  1.966639  0
O  O79  1  0.36649517  0.43220726  0.36466583  1  0  -0.386492  0  1.765321  0  0  -0.37088  0  1.963385  0  0  -0.385266  0  1.958857  0  0  -0.135868  -0.361273  0  1.966661  0
O  O80  1  0.66519254  0.14338704  0.64179902  1  0  -0.345215  0  1.766081  0  0  -0.335295  0  1.957634  0  0  -0.346353  0  1.952395  0  0  -0.114311  -0.32814  0  1.961543  0
O  O81  1  0.33480680  0.85661264  0.35820123  1  0  -0.345251  0  1.766058  0  0  -0.335341  0  1.957592  0  0  -0.346399  0  1.952348  0  0  -0.114324  -0.328187  0  1.961503  0
O  O82  1  0.82868222  0.97302597  0.87312875  1  0  -0.905276  0  1.76914  0  0  -0.857034  0  1.940754  0  0  -0.876421  0  1.908571  0  0  -0.65234  -0.842969  0  1.963208  0
O  O83  1  0.17131834  0.02697371  0.12687072  1  0  -0.905276  0  1.769116  0  0  -0.857027  0  1.940746  0  0  -0.876413  0  1.908559  0  0  -0.652335  -0.842962  0  1.963201  0
