# generated using pymatgen
data_LuH6C6SNO8
_symmetry_space_group_name_H-M   'P 1'
_cell_length_a   7.48113770
_cell_length_b   9.24415354
_cell_length_c   14.58861489
_cell_angle_alpha   90.00008789
_cell_angle_beta   89.99999995
_cell_angle_gamma   100.89956404
_symmetry_Int_Tables_number   1
_chemical_formula_structural   LuH6C6SNO8
_chemical_formula_sum   'Lu4 H24 C24 S4 N4 O32'
_cell_volume   990.70127786
_cell_formula_units_Z   4
loop_
 _symmetry_equiv_pos_site_id
 _symmetry_equiv_pos_as_xyz
  1  'x, y, z'
loop_
 _atom_site_type_symbol
 _atom_site_label
 _atom_site_symmetry_multiplicity
 _atom_site_fract_x
 _atom_site_fract_y
 _atom_site_fract_z
 _atom_site_occupancy
 _atom_site_hle17_bader_spin_density
 _atom_site_hle17_ddec_charge
 _atom_site_hle17_ddec_spin_density
 _atom_site_hle17_ddec_sum_bond_order
 _atom_site_hle17_magmom
 _atom_site_hse06_10hf_bader_spin_density
 _atom_site_hse06_10hf_ddec_charge
 _atom_site_hse06_10hf_ddec_spin_density
 _atom_site_hse06_10hf_ddec_sum_bond_order
 _atom_site_hse06_10hf_magmom
 _atom_site_hse06_bader_spin_density
 _atom_site_hse06_ddec_charge
 _atom_site_hse06_ddec_spin_density
 _atom_site_hse06_ddec_sum_bond_order
 _atom_site_hse06_magmom
 _atom_site_pbe_bader_spin_density
 _atom_site_pbe_cm5_charge
 _atom_site_pbe_ddec_charge
 _atom_site_pbe_ddec_spin_density
 _atom_site_pbe_ddec_sum_bond_order
 _atom_site_pbe_magmom
Lu  Lu0  1  0.13576215  0.27710646  0.04369243  1  0  1.878556  0  2.34739  0  0  1.715637  0  2.846275  0  0  1.776108  0  2.784978  0  0  1.386324  1.67252  0  2.889164  0
Lu  Lu1  1  0.36423680  0.72289316  0.54369282  1  0  1.878571  0  2.347405  0  0  1.715599  0  2.846325  0  0  1.776067  0  2.785023  0  0  1.386312  1.672501  0  2.889198  0
Lu  Lu2  1  0.86423740  0.72289316  0.95630773  1  0  1.878631  0  2.347297  0  0  1.715681  0  2.846199  0  0  1.776151  0  2.784907  0  0  1.386309  1.672565  0  2.889093  0
Lu  Lu3  1  0.63576300  0.27710757  0.45630665  1  0  1.878615  0  2.347311  0  0  1.715694  0  2.846177  0  0  1.776139  0  2.784898  0  0  1.386348  1.672575  0  2.889079  0
H  H4  1  0.15367702  0.04722831  0.44928668  1  0  0.136264  0  0.931153  0  0  0.139806  0  0.997227  0  0  0.14418  0  0.99286  0  0  0.140124  0.136385  0  1.000816  0
H  H5  1  0.34632325  0.95277122  0.94928456  1  0  0.136316  0  0.931125  0  0  0.139796  0  0.997261  0  0  0.144169  0  0.992895  0  0  0.140113  0.136375  0  1.00085  0
H  H6  1  0.84631827  0.95277019  0.55071279  1  0  0.136275  0  0.931183  0  0  0.139811  0  0.997255  0  0  0.144188  0  0.99289  0  0  0.14013  0.13639  0  1.000847  0
H  H7  1  0.65367680  0.04723061  0.05071560  1  0  0.136287  0  0.931156  0  0  0.139827  0  0.997214  0  0  0.144197  0  0.992849  0  0  0.140136  0.136409  0  1.0008  0
H  H8  1  0.10302220  0.12432919  0.28860937  1  0  0.132972  0  0.965234  0  0  0.138094  0  1.027073  0  0  0.142463  0  1.024189  0  0  0.121245  0.134809  0  1.029605  0
H  H9  1  0.39697982  0.87567215  0.78860648  1  0  0.132979  0  0.965227  0  0  0.138098  0  1.02707  0  0  0.142468  0  1.024185  0  0  0.121251  0.134806  0  1.02961  0
H  H10  1  0.89697468  0.87567042  0.71139079  1  0  0.133007  0  0.965234  0  0  0.138129  0  1.027081  0  0  0.142494  0  1.024206  0  0  0.121262  0.134857  0  1.0296  0
H  H11  1  0.60302266  0.12432859  0.21139367  1  0  0.133029  0  0.965229  0  0  0.138138  0  1.027086  0  0  0.14251  0  1.024198  0  0  0.121266  0.134836  0  1.029635  0
H  H12  1  0.91920863  0.66518154  0.22073136  1  0  0.134089  0  0.939496  0  0  0.13776  0  1.00431  0  0  0.141849  0  1.001776  0  0  0.121665  0.134616  0  1.006631  0
H  H13  1  0.58079055  0.33481970  0.72073206  1  0  0.134079  0  0.93952  0  0  0.137748  0  1.004321  0  0  0.141836  0  1.001791  0  0  0.121662  0.1346  0  1.006648  0
H  H14  1  0.08078933  0.33481698  0.77926743  1  0  0.134094  0  0.939497  0  0  0.137773  0  1.004299  0  0  0.141859  0  1.001769  0  0  0.121663  0.134624  0  1.006625  0
H  H15  1  0.41920950  0.66518213  0.27926879  1  0  0.134087  0  0.939509  0  0  0.137761  0  1.004318  0  0  0.141849  0  1.001786  0  0  0.121661  0.134615  0  1.006639  0
H  H16  1  0.96621454  0.60568178  0.38747711  1  0  0.133813  0  0.93137  0  0  0.137834  0  0.997089  0  0  0.142231  0  0.992326  0  0  0.143131  0.134549  0  1.000837  0
H  H17  1  0.53378583  0.39431877  0.88747787  1  0  0.133801  0  0.931361  0  0  0.137839  0  0.997065  0  0  0.142239  0  0.992299  0  0  0.14312  0.134551  0  1.000818  0
H  H18  1  0.03378234  0.39431783  0.61252236  1  0  0.133822  0  0.931339  0  0  0.137815  0  0.997095  0  0  0.142213  0  0.99233  0  0  0.143138  0.134531  0  1.000844  0
H  H19  1  0.46621289  0.60568305  0.11252297  1  0  0.133814  0  0.931392  0  0  0.137829  0  0.997113  0  0  0.142227  0  0.992345  0  0  0.143128  0.134547  0  1.000858  0
H  H20  1  0.28691820  0.36101146  0.22276361  1  0  0.443038  0  0.850446  0  0  0.409214  0  0.917476  0  0  0.419737  0  0.902198  0  0  0.307486  0.401811  0  0.928206  0
H  H21  1  0.21308219  0.63898861  0.72276393  1  0  0.443056  0  0.850419  0  0  0.409233  0  0.91745  0  0  0.419752  0  0.902178  0  0  0.307481  0.401828  0  0.928182  0
H  H22  1  0.71308161  0.63898926  0.77723654  1  0  0.443049  0  0.850431  0  0  0.409231  0  0.917454  0  0  0.419749  0  0.902182  0  0  0.307487  0.401823  0  0.92819  0
H  H23  1  0.78691895  0.36101212  0.27723623  1  0  0.443029  0  0.850458  0  0  0.409212  0  0.91748  0  0  0.419731  0  0.902207  0  0  0.307483  0.401801  0  0.92822  0
H  H24  1  0.46263094  0.34739681  0.16106275  1  0  0.450743  0  0.841307  0  0  0.416224  0  0.908885  0  0  0.42741  0  0.892633  0  0  0.308135  0.408311  0  0.920375  0
H  H25  1  0.03736967  0.65260421  0.66106376  1  0  0.450703  0  0.841376  0  0  0.416224  0  0.908875  0  0  0.427402  0  0.892634  0  0  0.30814  0.40831  0  0.920364  0
H  H26  1  0.53737020  0.65260392  0.83893740  1  0  0.450702  0  0.841379  0  0  0.416214  0  0.908892  0  0  0.427405  0  0.892633  0  0  0.308136  0.408308  0  0.920369  0
H  H27  1  0.96263013  0.34739651  0.33893708  1  0  0.450762  0  0.84128  0  0  0.416254  0  0.908843  0  0  0.427433  0  0.892599  0  0  0.308148  0.408337  0  0.920338  0
C  C28  1  0.09709167  0.96894744  0.39643153  1  0  0.019921  0  3.567968  0  0  -0.025706  0  3.840993  0  0  -0.018653  0  3.850615  0  0  0.051953  -0.030173  0  3.834818  0
C  C29  1  0.40290882  0.03105306  0.89643125  1  0  0.019959  0  3.567978  0  0  -0.025613  0  3.840988  0  0  -0.018541  0  3.850592  0  0  0.051995  -0.030082  0  3.834813  0
C  C30  1  0.90290630  0.03105108  0.60356725  1  0  0.019921  0  3.567903  0  0  -0.025667  0  3.840909  0  0  -0.018631  0  3.850536  0  0  0.051952  -0.030156  0  3.834754  0
C  C31  1  0.59709232  0.96894767  0.10356959  1  0  0.019896  0  3.568029  0  0  -0.025706  0  3.841058  0  0  -0.018624  0  3.850655  0  0  0.051937  -0.030175  0  3.834878  0
C  C32  1  0.07035005  0.00843264  0.30697637  1  0  -0.082986  0  3.703035  0  0  -0.106005  0  3.957234  0  0  -0.109243  0  3.9751  0  0  -0.06509  -0.104017  0  3.945511  0
C  C33  1  0.42965039  0.99156764  0.80697497  1  0  -0.082937  0  3.703028  0  0  -0.105976  0  3.957231  0  0  -0.109198  0  3.975077  0  0  -0.065074  -0.103975  0  3.945508  0
C  C34  1  0.92964791  0.99156587  0.69302310  1  0  -0.083032  0  3.702978  0  0  -0.106056  0  3.957195  0  0  -0.109298  0  3.975069  0  0  -0.065116  -0.104079  0  3.945467  0
C  C35  1  0.57035234  0.00843420  0.19302587  1  0  -0.082994  0  3.703068  0  0  -0.106024  0  3.957274  0  0  -0.109269  0  3.975142  0  0  -0.065097  -0.104019  0  3.945566  0
C  C36  1  0.00952366  0.90019670  0.24139210  1  0  -0.049637  0  3.744415  0  0  -0.038579  0  3.985452  0  0  -0.042455  0  4.006672  0  0  -0.003356  -0.035799  0  3.970766  0
C  C37  1  0.49047566  0.09980451  0.74139189  1  0  -0.049742  0  3.744487  0  0  -0.038688  0  3.985545  0  0  -0.042578  0  4.006775  0  0  -0.003384  -0.035909  0  3.970846  0
C  C38  1  0.99047322  0.09980291  0.75860600  1  0  -0.049583  0  3.744474  0  0  -0.038562  0  3.985593  0  0  -0.042412  0  4.006783  0  0  -0.003346  -0.035771  0  3.970887  0
C  C39  1  0.50952682  0.90019622  0.25860895  1  0  -0.049648  0  3.744477  0  0  -0.038551  0  3.985524  0  0  -0.042478  0  4.006794  0  0  -0.003325  -0.035792  0  3.970848  0
C  C40  1  0.96745035  0.75282579  0.26957017  1  0  -0.078845  0  3.685853  0  0  -0.09816  0  3.935124  0  0  -0.101626  0  3.954203  0  0  -0.060685  -0.095931  0  3.922588  0
C  C41  1  0.53255020  0.24717558  0.76956941  1  0  -0.078829  0  3.685851  0  0  -0.098111  0  3.935093  0  0  -0.101598  0  3.954194  0  0  -0.060684  -0.095878  0  3.922559  0
C  C42  1  0.03254653  0.24717382  0.73042930  1  0  -0.0789  0  3.685989  0  0  -0.098211  0  3.93528  0  0  -0.101676  0  3.954354  0  0  -0.060706  -0.095978  0  3.922738  0
C  C43  1  0.46745119  0.75282626  0.23043143  1  0  -0.078858  0  3.68586  0  0  -0.098192  0  3.935133  0  0  -0.101672  0  3.954233  0  0  -0.060697  -0.095955  0  3.922599  0
C  C44  1  0.99292089  0.71690019  0.35999889  1  0  0.037725  0  3.529719  0  0  -0.003752  0  3.789997  0  0  0.003063  0  3.800195  0  0  0.059333  -0.008202  0  3.783721  0
C  C45  1  0.50707946  0.28310030  0.85999954  1  0  0.037791  0  3.529749  0  0  -0.003712  0  3.789998  0  0  0.003099  0  3.800213  0  0  0.059359  -0.008165  0  3.783738  0
C  C46  1  0.00707465  0.28309942  0.64000127  1  0  0.037802  0  3.529771  0  0  -0.003643  0  3.790032  0  0  0.00316  0  3.800237  0  0  0.059378  -0.008098  0  3.78376  0
C  C47  1  0.49292168  0.71690043  0.14000131  1  0  0.037773  0  3.529703  0  0  -0.003676  0  3.78995  0  0  0.003142  0  3.80014  0  0  0.059362  -0.008131  0  3.783678  0
C  C48  1  0.99772618  0.94248297  0.14281525  1  0  0.717886  0  3.852545  0  0  0.661746  0  4.150748  0  0  0.698583  0  4.137652  0  0  0.24708  0.636606  0  4.158999  0
C  C49  1  0.50227187  0.05751916  0.64281431  1  0  0.717998  0  3.85246  0  0  0.661828  0  4.150694  0  0  0.698654  0  4.137597  0  0  0.247098  0.636692  0  4.158941  0
C  C50  1  0.00227228  0.05751774  0.85718216  1  0  0.717986  0  3.852281  0  0  0.66178  0  4.150594  0  0  0.698621  0  4.137494  0  0  0.247102  0.636655  0  4.158834  0
C  C51  1  0.49772794  0.94248156  0.35718447  1  0  0.718071  0  3.852301  0  0  0.66183  0  4.150653  0  0  0.69866  0  4.13756  0  0  0.247098  0.6367  0  4.158903  0
S  S52  1  0.81898384  0.40253031  0.09301520  1  0  1.580674  0  5.813397  0  0  1.446863  0  6.363627  0  0  1.503928  0  6.328087  0  0  0.570374  1.407166  0  6.387247  0
S  S53  1  0.68101611  0.59746842  0.59301410  1  0  1.580466  0  5.813703  0  0  1.446654  0  6.363939  0  0  1.503674  0  6.328467  0  0  0.57028  1.406933  0  6.387591  0
S  S54  1  0.18101681  0.59746822  0.90698564  1  0  1.580706  0  5.813515  0  0  1.446896  0  6.363745  0  0  1.503938  0  6.328245  0  0  0.570391  1.407182  0  6.387388  0
S  S55  1  0.31898319  0.40253010  0.40698469  1  0  1.580631  0  5.813475  0  0  1.446856  0  6.363672  0  0  1.50389  0  6.32817  0  0  0.570347  1.407144  0  6.387314  0
N  N56  1  0.06270278  0.82445178  0.42088957  1  0  0.288222  0  3.700739  0  0  0.335635  0  3.968374  0  0  0.336361  0  3.989719  0  0  -0.106986  0.334353  0  3.953905  0
N  N57  1  0.43729772  0.17554878  0.92088875  1  0  0.288033  0  3.700724  0  0  0.335475  0  3.968345  0  0  0.336204  0  3.989686  0  0  -0.10705  0.334183  0  3.953882  0
N  N58  1  0.93729569  0.17554894  0.57910990  1  0  0.288127  0  3.700634  0  0  0.335553  0  3.968263  0  0  0.336292  0  3.989603  0  0  -0.107019  0.334278  0  3.953792  0
N  N59  1  0.56270208  0.82445194  0.07911141  1  0  0.288148  0  3.700793  0  0  0.335567  0  3.96842  0  0  0.336323  0  3.98974  0  0  -0.106994  0.334281  0  3.953955  0
O  O60  1  0.04627930  0.07817012  0.12297950  1  0  -0.686792  0  2.099125  0  0  -0.626217  0  2.362087  0  0  -0.653251  0  2.347087  0  0  -0.393643  -0.60763  0  2.372424  0
O  O61  1  0.45372664  0.92183082  0.62297872  1  0  -0.686803  0  2.099062  0  0  -0.626226  0  2.362017  0  0  -0.653252  0  2.347027  0  0  -0.393659  -0.607641  0  2.372352  0
O  O62  1  0.95372051  0.92183060  0.87701929  1  0  -0.686913  0  2.098965  0  0  -0.626324  0  2.361965  0  0  -0.653344  0  2.346969  0  0  -0.393709  -0.607745  0  2.372312  0
O  O63  1  0.54627960  0.07816883  0.37702144  1  0  -0.686824  0  2.098975  0  0  -0.626289  0  2.361994  0  0  -0.653311  0  2.346992  0  0  -0.393688  -0.607709  0  2.372339  0
O  O64  1  0.94177471  0.84120676  0.08577004  1  0  -0.664588  0  2.131028  0  0  -0.604647  0  2.390612  0  0  -0.631635  0  2.378522  0  0  -0.372017  -0.585966  0  2.398675  0
O  O65  1  0.55822197  0.15879523  0.58577125  1  0  -0.66466  0  2.131066  0  0  -0.60469  0  2.390641  0  0  -0.631657  0  2.378527  0  0  -0.372011  -0.586012  0  2.398713  0
O  O66  1  0.05822350  0.15879285  0.91422875  1  0  -0.66461  0  2.130913  0  0  -0.604646  0  2.390544  0  0  -0.631632  0  2.378446  0  0  -0.372003  -0.585973  0  2.398611  0
O  O67  1  0.44177675  0.84120659  0.41423028  1  0  -0.664733  0  2.130956  0  0  -0.604713  0  2.390586  0  0  -0.631683  0  2.378482  0  0  -0.372033  -0.586032  0  2.398651  0
O  O68  1  0.10125767  0.78791678  0.50518885  1  0  -0.578712  0  1.868605  0  0  -0.532363  0  2.122206  0  0  -0.559285  0  2.121894  0  0  -0.298349  -0.512964  0  2.121984  0
O  O69  1  0.39874127  0.21208274  0.00518977  1  0  -0.578646  0  1.868388  0  0  -0.532304  0  2.121985  0  0  -0.559222  0  2.121668  0  0  -0.298334  -0.512903  0  2.12176  0
O  O70  1  0.89874030  0.21208173  0.49480993  1  0  -0.578686  0  1.868484  0  0  -0.53233  0  2.122069  0  0  -0.55926  0  2.12175  0  0  -0.298325  -0.512928  0  2.121847  0
O  O71  1  0.60125695  0.78791688  0.99481176  1  0  -0.578727  0  1.868546  0  0  -0.532376  0  2.122154  0  0  -0.559282  0  2.12182  0  0  -0.298346  -0.512968  0  2.121932  0
O  O72  1  0.00845810  0.44298543  0.13043138  1  0  -0.74497  0  1.93695  0  0  -0.68354  0  2.188246  0  0  -0.707306  0  2.172098  0  0  -0.395863  -0.666742  0  2.199088  0
O  O73  1  0.49154492  0.55701442  0.63043024  1  0  -0.744912  0  1.937017  0  0  -0.683462  0  2.188297  0  0  -0.70721  0  2.172157  0  0  -0.395809  -0.666663  0  2.199155  0
O  O74  1  0.99154413  0.55701420  0.86957015  1  0  -0.744949  0  1.936966  0  0  -0.683527  0  2.18828  0  0  -0.707278  0  2.172136  0  0  -0.395821  -0.66672  0  2.19913  0
O  O75  1  0.50845463  0.44298520  0.36956854  1  0  -0.744976  0  1.93701  0  0  -0.683518  0  2.188252  0  0  -0.707271  0  2.172105  0  0  -0.39584  -0.666723  0  2.199119  0
O  O76  1  0.82666466  0.27952671  0.02730979  1  0  -0.735362  0  1.964465  0  0  -0.677972  0  2.221889  0  0  -0.701639  0  2.20673  0  0  -0.388822  -0.660851  0  2.232167  0
O  O77  1  0.67333634  0.72047075  0.52730950  1  0  -0.735337  0  1.964565  0  0  -0.677945  0  2.221975  0  0  -0.701591  0  2.206825  0  0  -0.388793  -0.660807  0  2.232246  0
O  O78  1  0.17333573  0.72047071  0.97269105  1  0  -0.735376  0  1.964522  0  0  -0.677986  0  2.221938  0  0  -0.701649  0  2.20679  0  0  -0.388801  -0.660855  0  2.232212  0
O  O79  1  0.32666297  0.27952777  0.47268929  1  0  -0.735367  0  1.96446  0  0  -0.678018  0  2.221928  0  0  -0.701667  0  2.206769  0  0  -0.388842  -0.660889  0  2.232209  0
O  O80  1  0.76474461  0.52864383  0.04423818  1  0  -0.758176  0  2.06227  0  0  -0.695742  0  2.346235  0  0  -0.719864  0  2.326103  0  0  -0.413266  -0.67868  0  2.360228  0
O  O81  1  0.73525665  0.47135478  0.54423833  1  0  -0.758105  0  2.062299  0  0  -0.695676  0  2.346258  0  0  -0.719797  0  2.326151  0  0  -0.413273  -0.678613  0  2.36026  0
O  O82  1  0.23525603  0.47135470  0.95576197  1  0  -0.758175  0  2.062329  0  0  -0.695718  0  2.346245  0  0  -0.719832  0  2.326127  0  0  -0.413274  -0.678655  0  2.360242  0
O  O83  1  0.26474508  0.52864265  0.45576251  1  0  -0.758179  0  2.062308  0  0  -0.695741  0  2.346239  0  0  -0.719858  0  2.326115  0  0  -0.413265  -0.67868  0  2.360237  0
O  O84  1  0.68917468  0.35747106  0.16926916  1  0  -0.714059  0  2.003627  0  0  -0.648765  0  2.244055  0  0  -0.671701  0  2.225924  0  0  -0.324034  -0.632551  0  2.256417  0
O  O85  1  0.81082556  0.64252895  0.66926673  1  0  -0.713977  0  2.00365  0  0  -0.648707  0  2.244079  0  0  -0.671641  0  2.225969  0  0  -0.324043  -0.632499  0  2.256456  0
O  O86  1  0.31082487  0.64252856  0.83073374  1  0  -0.714123  0  2.003634  0  0  -0.648845  0  2.244071  0  0  -0.67178  0  2.225941  0  0  -0.324115  -0.632633  0  2.256435  0
O  O87  1  0.18917424  0.35747177  0.33073205  1  0  -0.714019  0  2.003639  0  0  -0.648743  0  2.244064  0  0  -0.671675  0  2.225946  0  0  -0.32403  -0.632531  0  2.256434  0
O  O88  1  0.33073934  0.35185401  0.15917087  1  0  -0.859803  0  1.892732  0  0  -0.797389  0  2.094765  0  0  -0.819288  0  2.061569  0  0  -0.634731  -0.781635  0  2.117805  0
O  O89  1  0.16926152  0.64814810  0.65917119  1  0  -0.85978  0  1.89278  0  0  -0.797366  0  2.094794  0  0  -0.81926  0  2.061619  0  0  -0.634713  -0.78161  0  2.117838  0
O  O90  1  0.66926181  0.64814672  0.84082929  1  0  -0.859777  0  1.892766  0  0  -0.797376  0  2.094805  0  0  -0.819275  0  2.061616  0  0  -0.634724  -0.781621  0  2.117849  0
O  O91  1  0.83073853  0.35185372  0.34082897  1  0  -0.859817  0  1.892726  0  0  -0.797406  0  2.09474  0  0  -0.8193  0  2.061558  0  0  -0.63474  -0.781646  0  2.117791  0
