# generated using pymatgen
data_Zn4H12C26S4O13
_symmetry_space_group_name_H-M   'P 1'
_cell_length_a   19.64643151
_cell_length_b   19.65448151
_cell_length_c   33.36859219
_cell_angle_alpha   79.10237345
_cell_angle_beta   79.13776655
_cell_angle_gamma   63.97575349
_symmetry_Int_Tables_number   1
_chemical_formula_structural   Zn4H12C26S4O13
_chemical_formula_sum   'Zn16 H48 C104 S16 O52'
_cell_volume   11288.17984961
_cell_formula_units_Z   4
loop_
 _symmetry_equiv_pos_site_id
 _symmetry_equiv_pos_as_xyz
  1  'x, y, z'
loop_
 _atom_site_type_symbol
 _atom_site_label
 _atom_site_symmetry_multiplicity
 _atom_site_fract_x
 _atom_site_fract_y
 _atom_site_fract_z
 _atom_site_occupancy
 _atom_site_pbe_bader_charge
 _atom_site_pbe_bader_spin_density
 _atom_site_pbe_cm5_charge
 _atom_site_pbe_ddec_charge
 _atom_site_pbe_ddec_spin_density
 _atom_site_pbe_ddec_sum_bond_order
 _atom_site_pbe_magmom
Zn  Zn0  1  0.05216303  0.40223163  0.47636884  1  1.317974  0  0.671009  0.966476  0  2.375827  0
Zn  Zn1  1  0.98654200  0.48169970  0.56044886  1  1.311435  0  0.671371  0.96493  0  2.365175  0
Zn  Zn2  1  0.06023387  0.55846902  0.48265461  1  1.309832  0  0.671206  0.957322  0  2.384487  0
Zn  Zn3  1  0.89875668  0.55461600  0.47998597  1  1.317539  0  0.672368  0.962208  0  2.367898  0
Zn  Zn4  1  0.69477366  0.34691438  0.27315230  1  1.322181  0  0.671627  0.968367  0  2.371368  0
Zn  Zn5  1  0.68935920  0.18790130  0.26586739  1  1.322983  0  0.671575  0.966838  0  2.368431  0
Zn  Zn6  1  0.76210298  0.27226678  0.18998498  1  1.317996  0  0.671921  0.958201  0  2.383946  0
Zn  Zn7  1  0.84854078  0.19153220  0.27031100  1  1.316284  0  0.671867  0.958281  0  2.371302  0
Zn  Zn8  1  0.26831872  0.76363214  0.68956458  1  1.310996  0  0.671535  0.965443  0  2.364594  0
Zn  Zn9  1  0.34771795  0.69808601  0.77378763  1  1.318489  0  0.671063  0.964567  0  2.378239  0
Zn  Zn10  1  0.19567416  0.85153432  0.76991820  1  1.317277  0  0.672268  0.963072  0  2.371616  0
Zn  Zn11  1  0.19095069  0.69072091  0.76747170  1  1.3122  0  0.670964  0.95671  0  2.385598  0
Zn  Zn12  1  0.56195291  0.06070385  0.98408334  1  1.322335  0  0.671617  0.966621  0  2.367923  0
Zn  Zn13  1  0.40297321  0.05544899  0.97688711  1  1.313516  0  0.671522  0.963349  0  2.377149  0
Zn  Zn14  1  0.55873728  0.90163259  0.97941279  1  1.317386  0  0.672733  0.964409  0  2.364211  0
Zn  Zn15  1  0.47768353  0.98728185  0.05986538  1  1.316886  0  0.671568  0.957327  0  2.386202  0
H  H16  1  0.74778707  0.44013809  0.35071386  1  0.08944  0  0.105252  0.114722  0  1.011958  0
H  H17  1  0.99699955  0.30163788  0.40295679  1  0.100568  0  0.105121  0.114968  0  1.010531  0
H  H18  1  0.20454039  0.69607790  0.60205751  1  0.102521  0  0.104115  0.112875  0  1.012681  0
H  H19  1  0.05638465  0.54286900  0.64834688  1  0.096496  0  0.104199  0.112611  0  1.012854  0
H  H20  1  0.28767805  0.50540019  0.41130618  1  0.105534  0  0.120505  0.146163  0  0.97219  0
H  H21  1  0.45876745  0.24052819  0.33567786  1  0.126683  0  0.120845  0.147202  0  0.96985  0
H  H22  1  0.77475505  0.54617651  0.65277742  1  0.149998  0  0.120668  0.146414  0  0.970161  0
H  H23  1  0.48148622  0.69754157  0.60520696  1  0.149065  0  0.120536  0.146747  0  0.970435  0
H  H24  1  0.05242034  0.26836796  0.64493954  1  0.143978  0  0.120646  0.146857  0  0.970327  0
H  H25  1  0.20404459  0.97556850  0.59704392  1  0.146305  0  0.120411  0.146081  0  0.96973  0
H  H26  1  0.79404818  0.78471091  0.40983188  1  0.149615  0  0.120773  0.147103  0  0.969875  0
H  H27  1  0.95565548  0.95924023  0.33783937  1  0.106582  0  0.120314  0.14628  0  0.971075  0
H  H28  1  0.64515792  0.15111550  0.04978609  1  0.093605  0  0.104708  0.113499  0  1.010762  0
H  H29  1  0.59623530  0.10635012  0.20031784  1  0.091152  0  0.104676  0.113245  0  1.010838  0
H  H30  1  0.70658668  0.48376578  0.10643167  1  0.116724  0  0.120792  0.147106  0  0.97066  0
H  H31  1  0.53636808  0.77756650  0.15105102  1  0.114317  0  0.120499  0.146197  0  0.970042  0
H  H32  1  0.08112722  0.10448781  0.20558108  1  0.112991  0  0.120477  0.146687  0  0.970957  0
H  H33  1  0.15794935  0.15295175  0.03606042  1  0.124042  0  0.120938  0.146835  0  0.970201  0
H  H34  1  0.30844964  0.00240974  0.89967381  1  0.109469  0  0.104143  0.113147  0  1.013802  0
H  H35  1  0.44898402  0.75388838  0.84704658  1  0.099902  0  0.10475  0.114516  0  1.012327  0
H  H36  1  0.44356700  0.48011506  0.85539867  1  0.121902  0  0.12126  0.147114  0  0.969412  0
H  H37  1  0.30886263  0.27432651  0.89751611  1  0.13283  0  0.120351  0.146311  0  0.970642  0
H  H38  1  0.97374403  0.73599678  0.84807415  1  0.141133  0  0.120725  0.146947  0  0.970076  0
H  H39  1  0.78197016  0.01709814  0.90396795  1  0.147029  0  0.12111  0.147444  0  0.969001  0
H  H40  1  0.78700163  0.56470388  0.39099147  1  0.047566  0  0.095779  0.139024  0  0.990361  0
H  H41  1  0.74729573  0.52122383  0.43378938  1  0.031429  0  0.095467  0.137991  0  0.990175  0
H  H42  1  0.71261659  0.53955549  0.38532317  1  0.021978  0  0.090055  0.121916  0  1.002297  0
H  H43  1  0.99477883  0.22016397  0.31972600  1  0.077125  0  0.094876  0.137712  0  0.992169  0
H  H44  1  0.95852003  0.17642756  0.36388832  1  0.06215  0  0.095856  0.138972  0  0.988171  0
H  H45  1  0.03310943  0.20318423  0.36696842  1  0.043567  0  0.089678  0.121601  0  1.003875  0
H  H46  1  0.11987531  0.69753368  0.52149921  1  0.079428  0  0.095949  0.139653  0  0.9895  0
H  H47  1  0.20237292  0.61159263  0.52067105  1  0.067954  0  0.095541  0.138514  0  0.991164  0
H  H48  1  0.20538839  0.69294509  0.53535599  1  0.026673  0  0.089224  0.120351  0  1.004498  0
H  H49  1  0.05392192  0.62725476  0.72918393  1  0.056836  0  0.095657  0.138825  0  0.989632  0
H  H50  1  0.14128067  0.54633892  0.72949389  1  0.047585  0  0.095313  0.138165  0  0.990308  0
H  H51  1  0.06083552  0.54094855  0.71515671  1  0.028066  0  0.089154  0.120385  0  1.004063  0
H  H52  1  0.76539005  0.19324260  0.09469774  1  0.058296  0  0.095202  0.137704  0  0.991201  0
H  H53  1  0.68065575  0.27662821  0.09070483  1  0.054184  0  0.095741  0.138982  0  0.989701  0
H  H54  1  0.71495653  0.21512610  0.05137395  1  0.036446  0  0.089707  0.121206  0  1.003614  0
H  H55  1  0.55171221  0.98681856  0.15380065  1  0.081197  0  0.094692  0.137956  0  0.995153  0
H  H56  1  0.47095294  0.07250513  0.16131756  1  0.06973  0  0.09638  0.1391  0  0.985812  0
H  H57  1  0.53703608  0.03159252  0.19847964  1  0.018054  0  0.089379  0.121201  0  1.002784  0
H  H58  1  0.18491135  0.96152889  0.85902666  1  0.038115  0  0.095906  0.139451  0  0.990007  0
H  H59  1  0.22760047  0.00297050  0.81668113  1  0.043533  0  0.095923  0.138795  0  0.989293  0
H  H60  1  0.20861314  0.03637238  0.86555168  1  0.03806  0  0.089102  0.120423  0  1.004776  0
H  H61  1  0.53028998  0.75637589  0.93019712  1  0.079189  0  0.094958  0.137777  0  0.991004  0
H  H62  1  0.57340139  0.79376996  0.88622734  1  0.056283  0  0.096085  0.139411  0  0.988534  0
H  H63  1  0.54764658  0.71872087  0.88274662  1  0.058354  0  0.089775  0.121613  0  1.002048  0
C  C64  1  0.06571318  0.31430649  0.55865840  1  1.565749  0  0.217639  0.612125  0  4.217794  0
C  C65  1  0.07513687  0.56635786  0.56815131  1  1.53805  0  0.230113  0.610294  0  4.147304  0
C  C66  1  0.18045060  0.43926428  0.43533839  1  1.558098  0  0.216725  0.610727  0  4.217447  0
C  C67  1  0.93651842  0.68322033  0.43957162  1  1.595555  0  0.217334  0.610964  0  4.21555  0
C  C68  1  0.92247397  0.43204607  0.43241718  1  1.559056  0  0.230139  0.610284  0  4.144556  0
C  C69  1  0.81887148  0.55890908  0.56513599  1  1.550909  0  0.2175  0.610933  0  4.216034  0
C  C70  1  0.56583740  0.30770082  0.31167320  1  1.534434  0  0.218108  0.611697  0  4.216726  0
C  C71  1  0.67571226  0.18729730  0.17933569  1  1.554007  0  0.228225  0.608844  0  4.148196  0
C  C72  1  0.68677396  0.43913339  0.19232383  1  1.607459  0  0.217124  0.609327  0  4.218683  0
C  C73  1  0.92935138  0.19172641  0.18561051  1  1.553212  0  0.217213  0.610814  0  4.216749  0
C  C74  1  0.82242038  0.31050132  0.32085973  1  1.554833  0  0.229525  0.611152  0  4.144424  0
C  C75  1  0.81298775  0.06119361  0.30822996  1  1.568141  0  0.216989  0.610104  0  4.21732  0
C  C76  1  0.43588358  0.68508770  0.69153128  1  1.574946  0  0.217848  0.61103  0  4.217943  0
C  C77  1  0.31827855  0.82743375  0.81775783  1  1.538701  0  0.229288  0.608761  0  4.147326  0
C  C78  1  0.19055915  0.93110522  0.68468191  1  1.553368  0  0.218642  0.61181  0  4.215807  0
C  C79  1  0.06750791  0.81374320  0.81123162  1  1.557371  0  0.217474  0.611125  0  4.218183  0
C  C80  1  0.18275452  0.67573311  0.68217333  1  1.547019  0  0.229091  0.609202  0  4.147222  0
C  C81  1  0.31053148  0.56959703  0.81435537  1  1.558191  0  0.217404  0.610284  0  4.218549  0
C  C82  1  0.44172619  0.18419982  0.93816747  1  1.547663  0  0.21807  0.610918  0  4.219156  0
C  C83  1  0.43845890  0.92857526  0.92936466  1  1.542734  0  0.230071  0.610362  0  4.148896  0
C  C84  1  0.68821626  0.93880752  0.94111307  1  1.589273  0  0.216967  0.6087  0  4.218815  0
C  C85  1  0.55695310  0.82023245  0.06396092  1  1.57146  0  0.216861  0.609158  0  4.216022  0
C  C86  1  0.56356685  0.07241940  0.07072386  1  1.546887  0  0.229879  0.611898  0  4.148036  0
C  C87  1  0.31069804  0.06456077  0.05757608  1  1.59213  0  0.216905  0.608331  0  4.218328  0
C  C88  1  0.89340855  0.40319712  0.40390547  1  -0.062134  0  -0.014546  -0.089381  0  3.926613  0
C  C89  1  0.85113848  0.33845359  0.34997383  1  -0.027748  0  -0.014473  -0.090786  0  3.930749  0
C  C90  1  0.82120250  0.44450272  0.38938492  1  -0.01026  0  0.002718  0.163617  0  3.940383  0
C  C91  1  0.92330753  0.29710334  0.36450055  1  -0.054413  0  0.001935  0.16271  0  3.940881  0
C  C92  1  0.80269762  0.41012507  0.36267992  1  0.033189  0  -0.086298  -0.156762  0  3.950372  0
C  C93  1  0.94186654  0.33148428  0.39120531  1  0.006833  0  -0.085536  -0.157055  0  3.947897  0
C  C94  1  0.10530483  0.59499345  0.59621083  1  -0.079822  0  -0.014774  -0.09006  0  3.92954  0
C  C95  1  0.15451038  0.64507322  0.65418325  1  -0.097999  0  -0.014105  -0.088419  0  3.928999  0
C  C96  1  0.14815477  0.63880954  0.58190376  1  0.009131  0  0.002561  0.163108  0  3.938661  0
C  C97  1  0.11214394  0.60078915  0.66849923  1  0.018943  0  0.002627  0.162686  0  3.937798  0
C  C98  1  0.17147603  0.66228263  0.61180220  1  0.021688  0  -0.086504  -0.157561  0  3.951161  0
C  C99  1  0.08904137  0.57707929  0.63860250  1  0.007227  0  -0.086114  -0.15599  0  3.950335  0
C  C100  1  0.30312409  0.45055931  0.40111774  1  0.038309  0  -0.089436  -0.136542  0  3.974982  0
C  C101  1  0.44300919  0.29563428  0.34563310  1  0.042405  0  -0.088777  -0.136814  0  3.972325  0
C  C102  1  0.25559210  0.41314924  0.41067940  1  -0.138627  0  -0.025524  -0.119713  0  3.991874  0
C  C103  1  0.49030861  0.33331763  0.33598185  1  -0.164112  0  -0.025285  -0.118635  0  3.990376  0
C  C104  1  0.37465856  0.33835073  0.36922708  1  -0.147912  0  -0.021842  -0.008902  0  4.066487  0
C  C105  1  0.37119893  0.40802267  0.37732855  1  -0.203288  0  -0.021972  -0.00747  0  4.068667  0
C  C106  1  0.72958020  0.57403449  0.63296119  1  0.025018  0  -0.088728  -0.136369  0  3.970687  0
C  C107  1  0.52663473  0.66913614  0.62500615  1  0.021184  0  -0.089453  -0.137343  0  3.976028  0
C  C108  1  0.74430992  0.58351125  0.59050369  1  -0.184742  0  -0.025288  -0.118221  0  3.98737  0
C  C109  1  0.51158654  0.65945534  0.66739302  1  -0.175632  0  -0.025459  -0.118317  0  3.991115  0
C  C110  1  0.60584100  0.63776774  0.61247787  1  -0.176041  0  -0.022478  -0.007292  0  4.073745  0
C  C111  1  0.65028465  0.60484670  0.64564473  1  -0.143971  0  -0.022366  -0.009661  0  4.065013  0
C  C112  1  0.08091753  0.22333983  0.62510812  1  0.018136  0  -0.089537  -0.136926  0  3.975911  0
C  C113  1  0.17593875  0.02059587  0.61691574  1  0.027078  0  -0.089454  -0.136889  0  3.9704  0
C  C114  1  0.09108422  0.23858971  0.58274770  1  -0.168423  0  -0.025313  -0.118547  0  3.991902  0
C  C115  1  0.16604298  0.00567751  0.65935187  1  -0.180959  0  -0.025017  -0.119042  0  3.990256  0
C  C116  1  0.14524377  0.09990237  0.60432260  1  -0.166024  0  -0.021788  -0.008473  0  4.064036  0
C  C117  1  0.11202404  0.14412058  0.63754461  1  -0.175147  0  -0.022389  -0.008099  0  4.073763  0
C  C118  1  0.84103014  0.80177942  0.40124412  1  0.037103  0  -0.088649  -0.136528  0  3.972574  0
C  C119  1  0.90857324  0.94230927  0.34637182  1  0.103101  0  -0.089343  -0.137677  0  3.972342  0
C  C120  1  0.91232946  0.75748583  0.41398402  1  -0.213446  0  -0.025469  -0.118995  0  3.991544  0
C  C121  1  0.83723959  0.98668035  0.33363202  1  -0.235897  0  -0.025105  -0.118328  0  3.98762  0
C  C122  1  0.91005594  0.87502689  0.37100217  1  -0.144133  0  -0.022827  -0.008396  0  4.067013  0
C  C123  1  0.83952150  0.86911164  0.37665672  1  -0.186805  0  -0.021586  -0.007558  0  4.066555  0
C  C124  1  0.64789693  0.15923884  0.14990620  1  -0.053051  0  -0.014354  -0.089449  0  3.932676  0
C  C125  1  0.59109504  0.10067414  0.10017754  1  -0.092802  0  -0.01464  -0.090759  0  3.935338  0
C  C126  1  0.66307482  0.17313379  0.10666648  1  -0.030559  0  0.002279  0.162583  0  3.940927  0
C  C127  1  0.57602567  0.08665471  0.14341392  1  0.020999  0  0.001775  0.161607  0  3.939463  0
C  C128  1  0.63409132  0.14253287  0.08317122  1  0.008663  0  -0.086366  -0.156542  0  3.951416  0
C  C129  1  0.60575358  0.11651773  0.16692062  1  0.006182  0  -0.085399  -0.154894  0  3.950653  0
C  C130  1  0.67410746  0.52916020  0.12575333  1  0.03971  0  -0.089312  -0.136564  0  3.975228  0
C  C131  1  0.56854575  0.73195975  0.13181513  1  0.021557  0  -0.088815  -0.136194  0  3.969956  0
C  C132  1  0.66093140  0.51477968  0.16806051  1  -0.182864  0  -0.025149  -0.117623  0  3.986569  0
C  C133  1  0.58170586  0.74584059  0.08944743  1  -0.157411  0  -0.024813  -0.118477  0  3.989483  0
C  C134  1  0.60188155  0.65300121  0.14516513  1  -0.15507  0  -0.022049  -0.008574  0  4.062235  0
C  C135  1  0.64030541  0.60800714  0.11256826  1  -0.177107  0  -0.021488  -0.00792  0  4.073345  0
C  C136  1  0.07424700  0.12432822  0.17328730  1  0.022738  0  -0.089757  -0.137239  0  3.976413  0
C  C137  1  0.16461693  0.13251321  0.06834401  1  0.036588  0  -0.089388  -0.137697  0  3.969387  0
C  C138  1  0.00338137  0.16713654  0.15978163  1  -0.14512  0  -0.025576  -0.118134  0  3.989354  0
C  C139  1  0.23532271  0.08954150  0.08208018  1  -0.150421  0  -0.024045  -0.116374  0  3.986788  0
C  C140  1  0.10571432  0.14490566  0.10148085  1  -0.178031  0  -0.021273  -0.006798  0  4.061243  0
C  C141  1  0.13279496  0.11130913  0.14004729  1  -0.196588  0  -0.022783  -0.009206  0  4.074023  0
C  C142  1  0.34679773  0.85681526  0.84625053  1  -0.034458  0  -0.014881  -0.089441  0  3.92774  0
C  C143  1  0.41083631  0.89973338  0.90019244  1  -0.043289  0  -0.014476  -0.088112  0  3.931382  0
C  C144  1  0.30487408  0.92884051  0.86084247  1  -0.011396  0  0.002349  0.163325  0  3.94071  0
C  C145  1  0.45286497  0.82780664  0.88553614  1  -0.005618  0  0.002542  0.163179  0  3.938162  0
C  C146  1  0.33892881  0.94766387  0.88758884  1  -0.005376  0  -0.08694  -0.158911  0  3.954016  0
C  C147  1  0.41874341  0.80888279  0.85885619  1  -0.016746  0  -0.085986  -0.157827  0  3.948546  0
C  C148  1  0.40245249  0.45612374  0.85737348  1  0.067313  0  -0.088199  -0.134626  0  3.968063  0
C  C149  1  0.35013398  0.29815048  0.89546305  1  -0.061313  0  -0.089373  -0.136247  0  3.973981  0
C  C150  1  0.33592081  0.49437636  0.83896744  1  -0.186111  0  -0.024985  -0.118126  0  3.989997  0
C  C151  1  0.41673761  0.25970122  0.91379126  1  -0.099206  0  -0.025572  -0.118728  0  3.991782  0
C  C152  1  0.34492872  0.36954556  0.87486019  1  -0.174577  0  -0.022051  -0.008067  0  4.069824  0
C  C153  1  0.40782821  0.38458461  0.87789739  1  -0.153737  0  -0.021909  -0.008917  0  4.06618  0
C  C154  1  0.95264796  0.79538441  0.85292410  1  0.017102  0  -0.089367  -0.137683  0  3.973015  0
C  C155  1  0.80305367  0.95762930  0.89926957  1  -0.006178  0  -0.089093  -0.137213  0  3.97113  0
C  C156  1  0.99298766  0.83895722  0.83651090  1  -0.171496  0  -0.025828  -0.11914  0  3.992879  0
C  C157  1  0.76282899  0.91398855  0.91584790  1  -0.202373  0  -0.024816  -0.117471  0  3.988387  0
C  C158  1  0.87220220  0.91455185  0.87639695  1  -0.159799  0  -0.021996  -0.0081  0  4.06742  0
C  C159  1  0.88355007  0.83843947  0.87582483  1  -0.128402  0  -0.021513  -0.006803  0  4.068228  0
C  C160  1  0.76383040  0.52166034  0.40044598  1  -0.005299  0  -0.239067  -0.409685  0  3.981872  0
C  C161  1  0.98066301  0.22010441  0.35316571  1  -0.098985  0  -0.238966  -0.410152  0  3.985183  0
C  C162  1  0.17023958  0.66147610  0.53747211  1  -0.078426  0  -0.239182  -0.409161  0  3.984768  0
C  C163  1  0.09086941  0.57748026  0.71295833  1  -0.044789  0  -0.23896  -0.408363  0  3.981342  0
C  C164  1  0.70848436  0.21684576  0.08460798  1  -0.034576  0  -0.238696  -0.408306  0  3.982857  0
C  C165  1  0.53173622  0.04179637  0.16548990  1  -0.0621  0  -0.238735  -0.409153  0  3.980958  0
C  C166  1  0.22731901  0.98558077  0.84996238  1  -0.026304  0  -0.238952  -0.409218  0  3.982356  0
C  C167  1  0.53017337  0.77100402  0.89677044  1  -0.101901  0  -0.238309  -0.40926  0  3.980081  0
S  S168  1  0.29317397  0.32636014  0.39094071  1  0.265518  0  0.081804  0.120342  0  2.727394  0
S  S169  1  0.45235546  0.42038456  0.35543663  1  0.269163  0  0.081797  0.120114  0  2.734365  0
S  S170  1  0.66236388  0.62986531  0.56588323  1  0.253716  0  0.080057  0.117879  0  2.743559  0
S  S171  1  0.59327066  0.61239888  0.69221028  1  0.244012  0  0.080855  0.118468  0  2.72624  0
S  S172  1  0.13828266  0.15711661  0.55781999  1  0.267082  0  0.081485  0.118854  0  2.726144  0
S  S173  1  0.11944014  0.08738816  0.68407523  1  0.257836  0  0.080723  0.119224  0  2.744538  0
S  S174  1  0.97769758  0.79717654  0.39631611  1  0.268433  0  0.08035  0.117596  0  2.734151  0
S  S175  1  0.77187162  0.94701692  0.35137695  1  0.276645  0  0.082159  0.12051  0  2.731179  0
S  S176  1  0.60766337  0.59684541  0.19201899  1  0.261736  0  0.082327  0.119506  0  2.71667  0
S  S177  1  0.63434022  0.66356745  0.06565879  1  0.273997  0  0.081516  0.120127  0  2.737178  0
S  S178  1  0.00747150  0.19175322  0.10676203  1  0.272165  0  0.080504  0.116657  0  2.723251  0
S  S179  1  0.23078186  0.06410310  0.13501627  1  0.297425  0  0.08119  0.119515  0  2.74296  0
S  S180  1  0.27968488  0.44402222  0.84648214  1  0.279973  0  0.080102  0.117144  0  2.735693  0
S  S181  1  0.47318879  0.30985728  0.90614917  1  0.278146  0  0.081009  0.118826  0  2.730627  0
S  S182  1  0.94745534  0.93209887  0.84864932  1  0.271534  0  0.082062  0.119666  0  2.731454  0
S  S183  1  0.80852705  0.82075760  0.90376473  1  0.272619  0  0.081706  0.118908  0  2.731441  0
O  O184  1  0.99902310  0.49925511  0.50007112  1  -1.220367  0  -0.571568  -1.027832  0  2.532707  0
O  O185  1  0.08459327  0.31575743  0.51973772  1  -1.154214  0  -0.32054  -0.547371  0  2.331712  0
O  O186  1  0.04019133  0.52452844  0.58495388  1  -1.167598  0  -0.317862  -0.552983  0  2.345548  0
O  O187  1  0.15765679  0.50180016  0.45049207  1  -1.168387  0  -0.317691  -0.541097  0  2.316187  0
O  O188  1  0.02712657  0.37145329  0.57875266  1  -1.178209  0  -0.318265  -0.542573  0  2.316175  0
O  O189  1  0.14476016  0.39683108  0.43949620  1  -1.150164  0  -0.320009  -0.547288  0  2.328345  0
O  O190  1  0.08587154  0.58578800  0.52955190  1  -1.165968  0  -0.306589  -0.536293  0  2.378603  0
O  O191  1  0.00549805  0.65311914  0.44792991  1  -1.170694  0  -0.321413  -0.549158  0  2.336649  0
O  O192  1  0.88206758  0.49952858  0.44211690  1  -1.162537  0  -0.306118  -0.537557  0  2.362877  0
O  O193  1  0.88705784  0.65552983  0.45097644  1  -1.178713  0  -0.317579  -0.540235  0  2.310985  0
O  O194  1  0.98661934  0.38648581  0.44503781  1  -1.179544  0  -0.31793  -0.551279  0  2.354578  0
O  O195  1  0.87834663  0.52623890  0.58383034  1  -1.169662  0  -0.316552  -0.538111  0  2.302497  0
O  O196  1  0.81677845  0.57275220  0.52618023  1  -1.138669  0  -0.32134  -0.551948  0  2.342851  0
O  O197  1  0.74872022  0.24940013  0.25000949  1  -1.23942  0  -0.571813  -1.028361  0  2.534117  0
O  O198  1  0.59843990  0.35323374  0.30594942  1  -1.149219  0  -0.320778  -0.549055  0  2.335733  0
O  O199  1  0.66848494  0.16113160  0.21726723  1  -1.170639  0  -0.317276  -0.551096  0  2.345581  0
O  O200  1  0.72641884  0.38220740  0.17217374  1  -1.167664  0  -0.318377  -0.542385  0  2.322725  0
O  O201  1  0.59181765  0.24289035  0.29852363  1  -1.170372  0  -0.317293  -0.540027  0  2.312365  0
O  O202  1  0.66731800  0.43690062  0.23121639  1  -1.183704  0  -0.318811  -0.544192  0  2.318807  0
O  O203  1  0.70441465  0.23523097  0.16474306  1  -1.176292  0  -0.3074  -0.537834  0  2.37416  0
O  O204  1  0.86989715  0.22627815  0.16675547  1  -1.171782  0  -0.320388  -0.547596  0  2.329793  0
O  O205  1  0.86237480  0.24293180  0.31119364  1  -1.172152  0  -0.306909  -0.538048  0  2.36244  0
O  O206  1  0.93119105  0.17642145  0.22444012  1  -1.161536  0  -0.317893  -0.542547  0  2.317859  0
O  O207  1  0.75913264  0.35711783  0.30765598  1  -1.181226  0  -0.317526  -0.551851  0  2.359242  0
O  O208  1  0.74363503  0.09237174  0.30044214  1  -1.16861  0  -0.319755  -0.547455  0  2.329816  0
O  O209  1  0.86290467  0.08825087  0.29638025  1  -1.162569  0  -0.318689  -0.541712  0  2.309957  0
O  O210  1  0.25084755  0.75123115  0.74993784  1  -1.220024  0  -0.571593  -1.027989  0  2.534224  0
O  O211  1  0.37867181  0.72333313  0.67141605  1  -1.177608  0  -0.317894  -0.541531  0  2.316702  0
O  O212  1  0.36288777  0.76191305  0.80651603  1  -1.179039  0  -0.317538  -0.551148  0  2.358066  0
O  O213  1  0.17638969  0.93321309  0.72361701  1  -1.140444  0  -0.32132  -0.550241  0  2.344105  0
O  O214  1  0.43452871  0.66674066  0.73050336  1  -1.16042  0  -0.32099  -0.547943  0  2.331114  0
O  O215  1  0.22348335  0.87163401  0.66601705  1  -1.170069  0  -0.317743  -0.539583  0  2.302073  0
O  O216  1  0.25198838  0.86902326  0.80669142  1  -1.168843  0  -0.305468  -0.535675  0  2.367517  0
O  O217  1  0.09554360  0.86311259  0.79987998  1  -1.165467  0  -0.320943  -0.548726  0  2.330481  0
O  O218  1  0.16135006  0.66723903  0.72066612  1  -1.174533  0  -0.306016  -0.535987  0  2.376169  0
O  O219  1  0.09743806  0.74493856  0.80299023  1  -1.169983  0  -0.318019  -0.540241  0  2.320264  0
O  O220  1  0.22625482  0.70885700  0.66539336  1  -1.168466  0  -0.317389  -0.55219  0  2.34432  0
O  O221  1  0.35302626  0.60500824  0.81024387  1  -1.157911  0  -0.317295  -0.539204  0  2.31054  0
O  O222  1  0.24780290  0.59262981  0.79912641  1  -1.17724  0  -0.321407  -0.549548  0  2.335708  0
O  O223  1  0.50054076  0.00128019  0.99989625  1  -1.237534  0  -0.572033  -1.028595  0  2.536187  0
O  O224  1  0.50561676  0.15923109  0.95245528  1  -1.17304  0  -0.320518  -0.548412  0  2.330781  0
O  O225  1  0.39080584  0.99052227  0.94360383  1  -1.167934  0  -0.318728  -0.553332  0  2.359214  0
O  O226  1  0.66170991  0.88834873  0.95340136  1  -1.171915  0  -0.320741  -0.548386  0  2.32877  0
O  O227  1  0.39738152  0.15064572  0.94289038  1  -1.157392  0  -0.31825  -0.541494  0  2.315704  0
O  O228  1  0.65648217  0.00819968  0.94845760  1  -1.173684  0  -0.316495  -0.537913  0  2.309523  0
O  O229  1  0.50687060  0.89000024  0.93801954  1  -1.169978  0  -0.307171  -0.537079  0  2.364443  0
O  O230  1  0.57223196  0.81866750  0.02500643  1  -1.174133  0  -0.320803  -0.549721  0  2.334054  0
O  O231  1  0.51462364  0.04491362  0.08515751  1  -1.174466  0  -0.308095  -0.538459  0  2.37361  0
O  O232  1  0.52281775  0.87940137  0.08285541  1  -1.163891  0  -0.316513  -0.53767  0  2.312564  0
O  O233  1  0.59098583  0.07828762  0.03293255  1  -1.176149  0  -0.317956  -0.552145  0  2.345021  0
O  O234  1  0.31311277  0.08552882  0.01889960  1  -1.178801  0  -0.316414  -0.537115  0  2.302413  0
O  O235  1  0.36765273  0.02355798  0.07773159  1  -1.180532  0  -0.320801  -0.548794  0  2.341755  0
