# generated using pymatgen
data_CoH11C18N2O5
_symmetry_space_group_name_H-M   'P 1'
_cell_length_a   9.03918678
_cell_length_b   13.86658083
_cell_length_c   13.96110000
_cell_angle_alpha   76.05439718
_cell_angle_beta   77.22862009
_cell_angle_gamma   77.60799305
_symmetry_Int_Tables_number   1
_chemical_formula_structural   CoH11C18N2O5
_chemical_formula_sum   'Co4 H44 C72 N8 O20'
_cell_volume   1632.08962393
_cell_formula_units_Z   4
loop_
 _symmetry_equiv_pos_site_id
 _symmetry_equiv_pos_as_xyz
  1  'x, y, z'
loop_
 _atom_site_type_symbol
 _atom_site_label
 _atom_site_symmetry_multiplicity
 _atom_site_fract_x
 _atom_site_fract_y
 _atom_site_fract_z
 _atom_site_occupancy
 _atom_site_hle17_ddec_charge
 _atom_site_hle17_ddec_spin_density
 _atom_site_hle17_ddec_sum_bond_order
 _atom_site_hle17_magmom
 _atom_site_hse06_10hf_ddec_charge
 _atom_site_hse06_10hf_ddec_spin_density
 _atom_site_hse06_10hf_ddec_sum_bond_order
 _atom_site_hse06_10hf_magmom
 _atom_site_hse06_ddec_charge
 _atom_site_hse06_ddec_spin_density
 _atom_site_hse06_ddec_sum_bond_order
 _atom_site_hse06_magmom
 _atom_site_pbe_bader_charge
 _atom_site_pbe_bader_spin_density
 _atom_site_pbe_cm5_charge
 _atom_site_pbe_ddec_charge
 _atom_site_pbe_ddec_spin_density
 _atom_site_pbe_ddec_sum_bond_order
 _atom_site_pbe_magmom
Co  Co0  1  0.70624748  0.84161617  0.51764956  1  0.942115  2.846327  2.06621  2.519  0.880329  2.819381  2.523579  2.56  0.966547  2.865344  2.439269  2.655  1.206079  2.537998  0.704597  0.817486  2.778224  2.582917  2.474
Co  Co1  1  0.79416196  0.48238098  0.16059099  1  0.942703  2.84455  2.06261  2.519  0.880242  2.817992  2.521047  2.561  0.967077  2.863839  2.436063  2.655  1.207528  2.538737  0.703027  0.817303  2.777131  2.58044  2.475
Co  Co2  1  0.29375162  0.15838533  0.48234741  1  0.942157  2.846322  2.06611  2.519  0.880395  2.819377  2.523451  2.56  0.966615  2.865344  2.439148  2.655  1.206046  2.538023  0.704602  0.817557  2.778253  2.58278  2.474
Co  Co3  1  0.20583659  0.51761827  0.83941377  1  0.942588  2.844561  2.062638  2.519  0.880137  2.817988  2.521087  2.561  0.967008  2.863843  2.436079  2.655  1.207606  2.538732  0.702987  0.817217  2.777126  2.580474  2.475
H  H4  1  0.51251655  0.40604783  0.85518184  1  0.089027  0.000697  0.968317  0.002  0.095477  0.000793  1.035143  0.001  0.098462  0.000576  1.032374  0.001  0.122248  0.002297  0.11422  0.09326  0.001013  1.037136  0.002
H  H5  1  0.98673114  0.14361037  0.59296575  1  0.0897  0.000733  0.968688  0.002  0.095565  0.000833  1.036267  0.001  0.098535  0.000607  1.033503  0.001  0.127333  0.002358  0.114074  0.09329  0.00106  1.038315  0.002
H  H6  1  0.48748032  0.59394915  0.14482800  1  0.089048  0.000697  0.968343  0.002  0.095443  0.000793  1.035215  0.001  0.098429  0.000576  1.032446  0.001  0.122289  0.002296  0.114202  0.093225  0.001013  1.037207  0.002
H  H7  1  0.01326490  0.85639415  0.40703309  1  0.089672  0.000733  0.968724  0.002  0.095536  0.000832  1.036307  0.001  0.098505  0.000607  1.033545  0.001  0.12773  0.002356  0.114062  0.093266  0.00106  1.03835  0.002
H  H8  1  0.75930423  0.44306554  0.88474737  1  0.130985  0.000288  0.951635  0.0  0.140945  0.000244  1.006757  0.0  0.144881  0.000147  1.004835  0.0  0.142664  0.00095  0.113655  0.138091  0.000355  1.008163  0.001
H  H9  1  0.73860294  0.11577300  0.55665499  1  0.130938  0.000285  0.955621  0.0  0.141842  0.000245  1.009828  0.0  0.145718  0.000147  1.007951  0.0  0.146332  0.000939  0.113524  0.139029  0.000355  1.01118  0.001
H  H10  1  0.24069417  0.55692993  0.11526189  1  0.131059  0.000288  0.951581  0.0  0.141013  0.000244  1.006706  0.0  0.144953  0.000147  1.004784  0.0  0.142637  0.00095  0.113686  0.138157  0.000355  1.008114  0.001
H  H11  1  0.26139364  0.88423378  0.44334251  1  0.131016  0.000284  0.955525  0.0  0.141912  0.000245  1.009744  0.0  0.145786  0.000147  1.007867  0.0  0.14627  0.000939  0.113549  0.139102  0.000355  1.011097  0.001
H  H12  1  0.34326651  0.77704463  0.00147123  1  0.121604  1.5e-05  0.922266  0.0  0.136097  -1.8e-05  0.972547  0.0  0.138955  -2.2e-05  0.971208  0.0  0.113601  0.000107  0.114352  0.134287  -1.1e-05  0.973335  0.0
H  H13  1  0.15700082  0.99797375  0.22422703  1  0.122449  1.2e-05  0.922247  0.0  0.137057  -2.1e-05  0.972447  0.0  0.139903  -2.5e-05  0.971122  0.0  0.098422  0.000109  0.114531  0.135261  -1.4e-05  0.973211  0.0
H  H14  1  0.65673277  0.22295612  0.99852661  1  0.121576  1.6e-05  0.922267  0.0  0.136073  -1.8e-05  0.972552  0.0  0.138931  -2.2e-05  0.971213  0.0  0.113575  0.000107  0.114346  0.134263  -1.1e-05  0.973342  0.0
H  H15  1  0.84300399  0.00202323  0.77577307  1  0.122477  1.2e-05  0.922176  0.0  0.13706  -2.1e-05  0.97241  0.0  0.139907  -2.5e-05  0.971083  0.0  0.098501  0.000109  0.114531  0.135265  -1.4e-05  0.973173  0.0
H  H16  1  0.07390704  0.05740313  0.87446082  1  0.094527  -2.1e-05  0.963398  0.0  0.103787  -3.4e-05  1.027722  0.0  0.107001  -4.2e-05  1.025204  0.0  0.078843  0.000118  0.102231  0.101552  -1.7e-05  1.029525  0.0
H  H17  1  0.42463975  0.12500688  0.94248116  1  0.094184  -2e-05  0.963569  0.0  0.103837  -3.3e-05  1.027498  0.0  0.107053  -4.1e-05  1.024979  0.0  0.082758  0.00012  0.102054  0.10155  -1.5e-05  1.02935  0.0
H  H18  1  0.92609870  0.94259461  0.12553682  1  0.094593  -2.1e-05  0.963228  0.0  0.103828  -3.4e-05  1.027588  0.0  0.107046  -4.2e-05  1.025061  0.0  0.078802  0.000118  0.102234  0.101591  -1.7e-05  1.029395  0.0
H  H19  1  0.57535692  0.87499086  0.05751778  1  0.094159  -2e-05  0.963525  0.0  0.103808  -3.3e-05  1.027469  0.0  0.107022  -4.1e-05  1.024957  0.0  0.08284  0.00012  0.102044  0.101513  -1.5e-05  1.02933  0.0
H  H20  1  0.31689086  0.70986468  0.81433267  1  0.105662  0.000763  0.957271  0.002  0.108819  0.000857  1.027875  0.001  0.11202  0.00058  1.025362  0.001  0.149253  0.002714  0.121807  0.10639  0.001152  1.029954  0.002
H  H21  1  0.18476058  0.18396646  0.29059527  1  0.106695  0.000762  0.957476  0.002  0.108773  0.000844  1.029533  0.001  0.112004  0.000569  1.027025  0.001  0.103526  0.002759  0.121678  0.106293  0.001136  1.031644  0.002
H  H22  1  0.68311035  0.29013306  0.18566849  1  0.10564  0.000762  0.957319  0.002  0.108841  0.000857  1.02789  0.001  0.112042  0.00058  1.025379  0.001  0.149177  0.002714  0.12181  0.10642  0.001152  1.029947  0.002
H  H23  1  0.81523915  0.81602826  0.70940109  1  0.106637  0.000762  0.957494  0.002  0.108751  0.000844  1.029486  0.001  0.111974  0.000569  1.027005  0.001  0.103571  0.002759  0.121697  0.106297  0.001136  1.031571  0.002
H  H24  1  0.11467279  0.91251758  0.01995105  1  0.090845  -6.6e-05  0.956864  0.0  0.105413  3.8e-05  1.010235  0.0  0.107432  1.7e-05  1.0099  0.0  0.057643  0.000182  0.104442  0.104026  6.4e-05  1.010496  0.0
H  H25  1  0.38511029  0.97962740  0.08826777  1  0.090365  -6.5e-05  0.957051  0.0  0.105045  3.8e-05  1.010339  0.0  0.10714  1.8e-05  1.009896  0.0  0.054212  0.000184  0.1045  0.10363  6.5e-05  1.010611  0.0
H  H26  1  0.88532896  0.08748242  0.98004662  1  0.090857  -6.7e-05  0.956876  0.0  0.105419  3.8e-05  1.010251  0.0  0.107441  1.8e-05  1.009913  0.0  0.055705  0.000183  0.104424  0.104031  6.4e-05  1.010514  0.0
H  H27  1  0.61489205  0.02037034  0.91173108  1  0.090433  -6.5e-05  0.957029  0.0  0.105099  3.8e-05  1.010326  0.0  0.107191  1.8e-05  1.009887  0.0  0.054253  0.000184  0.104528  0.103683  6.5e-05  1.010599  0.0
H  H28  1  0.78173314  0.62223370  0.87469934  1  0.138958  -5.2e-05  0.954032  0.0  0.145238  -0.000205  1.018216  0.0  0.150523  -0.000272  1.013809  0.0  0.155696  0.000254  0.11402  0.140962  -0.000121  1.021825  0.0
H  H29  1  0.71693408  0.12609805  0.37857549  1  0.138737  -5.5e-05  0.954253  0.0  0.145155  -0.00021  1.018077  0.0  0.150437  -0.000276  1.01369  0.0  0.155209  0.000253  0.114011  0.140878  -0.000128  1.021688  0.0
H  H30  1  0.21826807  0.37776404  0.12530254  1  0.138933  -5.1e-05  0.954027  0.0  0.14522  -0.000205  1.018207  0.0  0.150504  -0.000272  1.013801  0.0  0.155701  0.000254  0.114026  0.140945  -0.000121  1.021818  0.0
H  H31  1  0.28306141  0.87390421  0.62142397  1  0.138718  -5.5e-05  0.954154  0.0  0.14513  -0.00021  1.018002  0.0  0.150414  -0.000276  1.013613  0.0  0.155216  0.000252  0.114028  0.140853  -0.000128  1.021612  0.0
H  H32  1  0.49896157  0.62977539  0.35062854  1  0.120291  0.000335  0.943853  0.0  0.132925  0.000332  0.998308  0.0  0.137144  0.000224  0.995619  0.0  0.118721  0.000968  0.115226  0.129213  0.000437  1.001323  0.0
H  H33  1  0.00226864  0.65048582  0.37086534  1  0.119549  0.000326  0.945221  0.0  0.132161  0.000323  0.999914  0.0  0.136349  0.000217  0.997248  0.0  0.111847  0.000943  0.114574  0.128498  0.000426  1.002874  0.0
H  H34  1  0.50104354  0.37022913  0.64936327  1  0.120384  0.000335  0.943743  0.0  0.132984  0.000332  0.998219  0.0  0.1372  0.000224  0.995536  0.0  0.118801  0.000968  0.115254  0.129289  0.000437  1.001212  0.0
H  H35  1  0.99772853  0.34951870  0.62913978  1  0.119549  0.000325  0.945158  0.0  0.132121  0.000323  0.999903  0.0  0.136307  0.000217  0.99724  0.0  0.111615  0.000943  0.114552  0.128459  0.000426  1.002864  0.0
H  H36  1  0.59198109  0.48952074  0.65005821  1  0.104197  0.000142  0.96905  0.0  0.115318  0.000229  1.028565  0.0  0.11845  0.000151  1.027904  0.0  0.098737  0.000786  0.108434  0.112604  0.0003  1.029791  0.0
H  H37  1  0.90688952  0.34893729  0.51032886  1  0.103318  0.000137  0.968744  0.0  0.114741  0.00022  1.028084  0.0  0.117791  0.000143  1.027566  0.0  0.085615  0.000771  0.108231  0.11208  0.000288  1.029219  0.0
H  H38  1  0.40801593  0.51048002  0.34993709  1  0.104153  0.000143  0.969078  0.0  0.115303  0.000229  1.028572  0.0  0.118435  0.00015  1.027912  0.0  0.098627  0.000786  0.108403  0.112588  0.0003  1.029801  0.0
H  H39  1  0.09310597  0.65106497  0.48967776  1  0.103343  0.000137  0.968788  0.0  0.114769  0.00022  1.028117  0.0  0.117819  0.000143  1.027601  0.0  0.08577  0.000771  0.108263  0.112107  0.000288  1.029256  0.0
H  H40  1  0.69486806  0.64002730  0.64815283  1  0.078412  0.000851  0.943997  0.002  0.085286  0.000891  1.010651  0.001  0.087397  0.000666  1.009422  0.001  0.110974  0.002659  0.117088  0.083152  0.001136  1.012538  0.002
H  H41  1  0.80473528  0.35074938  0.36107776  1  0.077556  0.000837  0.944647  0.002  0.084851  0.000891  1.011221  0.001  0.087006  0.000667  1.009862  0.001  0.104799  0.002643  0.116758  0.082701  0.001135  1.013159  0.002
H  H42  1  0.30512970  0.35997496  0.35184774  1  0.078311  0.00085  0.944051  0.002  0.085192  0.000891  1.010717  0.001  0.087299  0.000666  1.009485  0.001  0.110991  0.002658  0.11707  0.083058  0.001136  1.012603  0.002
H  H43  1  0.19527402  0.64925213  0.63892349  1  0.07759  0.000837  0.944805  0.002  0.084861  0.000891  1.01138  0.001  0.087012  0.000667  1.010021  0.001  0.104979  0.002643  0.116827  0.082712  0.001135  1.013317  0.002
H  H44  1  0.60341923  0.77360445  0.36221039  1  0.100945  0.000665  0.930068  0.002  0.110917  0.000601  0.986203  0.001  0.114469  0.000392  0.982851  0.001  0.130604  0.002455  0.12949  0.107367  0.000833  0.989865  0.002
H  H45  1  0.89762263  0.63887881  0.22843238  1  0.102339  0.000655  0.927494  0.002  0.111564  0.000588  0.984573  0.001  0.115159  0.000381  0.981198  0.001  0.141236  0.00239  0.129489  0.107889  0.000818  0.988371  0.002
H  H46  1  0.39658096  0.22640158  0.63778534  1  0.100886  0.000664  0.930134  0.002  0.110894  0.000601  0.986215  0.001  0.114446  0.000392  0.982862  0.001  0.130717  0.002455  0.129449  0.107344  0.000833  0.989878  0.002
H  H47  1  0.10238652  0.36111892  0.77156979  1  0.102308  0.000655  0.927537  0.002  0.111566  0.000588  0.984567  0.001  0.11516  0.000381  0.981197  0.001  0.141236  0.002391  0.129492  0.107896  0.000818  0.988358  0.002
C  C48  1  0.52914824  0.48256120  0.85184971  1  0.078701  -0.009834  3.715508  -0.007  0.045529  0.002235  3.979749  0.003  0.052743  0.001847  3.99923  0.002  0.431125  0.003922  0.027033  0.0407  0.002711  3.965927  0.003
C  C49  1  0.97031994  0.14716517  0.51693546  1  0.078892  -0.010132  3.719522  -0.007  0.046053  0.002228  3.984063  0.003  0.053307  0.001828  4.003548  0.002  0.441567  0.003896  0.027355  0.041274  0.002715  3.970249  0.003
C  C50  1  0.47084996  0.51743502  0.14816012  1  0.078659  -0.009828  3.715691  -0.007  0.045562  0.002236  3.979887  0.003  0.052776  0.001848  3.999366  0.002  0.431069  0.003923  0.02706  0.040734  0.002713  3.966062  0.003
C  C51  1  0.02967821  0.85283558  0.48306183  1  0.078921  -0.010145  3.719552  -0.007  0.046079  0.002228  3.984084  0.003  0.053334  0.001828  4.003566  0.002  0.44105  0.003897  0.027321  0.041296  0.002715  3.97027  0.003
C  C52  1  0.66518397  0.50410642  0.86632352  1  -0.091736  0.005731  3.725252  0.009  -0.101366  0.001303  3.971109  0.003  -0.107709  0.000522  3.991359  0.002  -0.029652  0.004212  -0.07944  -0.096802  0.001964  3.957224  0.004
C  C53  1  0.83351884  0.13374080  0.49577669  1  -0.093728  0.00584  3.729209  0.009  -0.104572  0.001369  3.975579  0.003  -0.110828  0.000596  3.995746  0.002  -0.045084  0.004349  -0.081272  -0.100056  0.002032  3.961738  0.004
C  C54  1  0.33481383  0.49589132  0.13368313  1  -0.091822  0.005728  3.725436  0.009  -0.101452  0.001303  3.971308  0.003  -0.107799  0.000521  3.991562  0.002  -0.029576  0.004213  -0.07949  -0.09688  0.001964  3.957418  0.004
C  C55  1  0.16647400  0.86626297  0.50422207  1  -0.093838  0.005847  3.729216  0.009  -0.104684  0.001368  3.975593  0.003  -0.110937  0.000596  3.995756  0.002  -0.044984  0.004348  -0.081231  -0.100176  0.002032  3.961764  0.004
C  C56  1  0.23550306  0.08238022  0.69054097  1  0.631053  -0.006077  3.911141  -0.006  0.588632  0.001252  4.210259  0.0  0.62514  0.000409  4.206233  0.0  1.544505  0.002118  0.205748  0.562741  0.002079  4.211138  0.001
C  C57  1  0.26234666  0.30904799  0.91673090  1  0.630319  -0.00621  3.909251  -0.006  0.588632  0.001217  4.20746  0.0  0.625055  0.000382  4.203647  0.0  1.549041  0.002072  0.206136  0.56279  0.00204  4.208188  0.001
C  C58  1  0.76449243  0.91762204  0.30945992  1  0.631121  -0.006082  3.91092  -0.006  0.588675  0.001251  4.210049  0.0  0.625182  0.000408  4.206023  0.0  1.544194  0.002117  0.205799  0.562779  0.002078  4.210928  0.001
C  C59  1  0.73765056  0.69095201  0.08327101  1  0.630231  -0.00621  3.90937  -0.006  0.588552  0.001217  4.207594  0.0  0.624962  0.000382  4.203782  0.0  1.549181  0.002072  0.206159  0.562709  0.00204  4.208319  0.001
C  C60  1  0.55019922  0.67888349  0.84435927  1  0.23417  0.005099  3.790271  0.008  0.227834  0.001006  4.049482  0.002  0.234525  0.000367  4.063902  0.001  0.456949  0.00346  0.09363  0.222573  0.001529  4.04079  0.003
C  C61  1  0.95003784  0.15511634  0.32187320  1  0.236807  0.005199  3.784536  0.008  0.23012  0.001026  4.045056  0.002  0.236866  0.000408  4.059421  0.001  0.43372  0.003512  0.094629  0.224824  0.001547  4.036416  0.003
C  C62  1  0.44980293  0.32111500  0.15564014  1  0.234085  0.005098  3.790284  0.008  0.22776  0.001005  4.049515  0.002  0.234451  0.000366  4.063934  0.001  0.489876  0.003423  0.093625  0.222498  0.001529  4.040827  0.003
C  C63  1  0.04995922  0.84487989  0.67812604  1  0.236716  0.005206  3.784525  0.008  0.230096  0.001026  4.044927  0.002  0.236841  0.000407  4.05929  0.001  0.433845  0.003511  0.094601  0.224802  0.001547  4.036292  0.003
C  C64  1  0.53304824  0.93210894  0.67649920  1  0.677284  -0.004508  3.907963  -0.006  0.630564  0.002651  4.214583  0.001  0.670016  0.001182  4.204044  0.0  1.598675  0.004966  0.208548  0.602103  0.004233  4.220696  0.002
C  C65  1  0.96631285  0.32321968  0.06913755  1  0.682394  -0.004569  3.90333  -0.006  0.634086  0.002606  4.212069  0.001  0.673557  0.001147  4.201512  0.0  1.588223  0.004871  0.209174  0.605591  0.004175  4.218274  0.002
C  C66  1  0.46695425  0.06789257  0.32349943  1  0.677261  -0.004507  3.907917  -0.006  0.630629  0.00265  4.21441  0.001  0.670077  0.001181  4.203876  0.0  1.598577  0.004965  0.208536  0.602169  0.004232  4.220524  0.002
C  C67  1  0.03368698  0.67678334  0.93086254  1  0.682178  -0.004567  3.903408  -0.006  0.633877  0.002608  4.212156  0.001  0.673346  0.001148  4.201605  0.0  1.588227  0.004873  0.209188  0.60539  0.004177  4.218346  0.002
C  C68  1  0.40952725  0.92847571  0.76896493  1  -0.131783  0.001893  3.690502  0.003  -0.127552  0.001295  3.928048  0.002  -0.130421  0.000145  3.942925  0.001  0.018558  0.005232  -0.0091  -0.125799  0.002684  3.918561  0.004
C  C69  1  0.08988403  0.23069765  0.07232342  1  -0.133852  0.001986  3.688521  0.004  -0.12902  0.001353  3.92613  0.002  -0.131949  0.000197  3.94098  0.001  0.029007  0.005321  -0.009233  -0.127239  0.002748  3.916667  0.004
C  C70  1  0.59047451  0.07152429  0.23103275  1  -0.131763  0.001867  3.690475  0.003  -0.127614  0.001295  3.928061  0.002  -0.130477  0.000144  3.94294  0.001  0.018679  0.005232  -0.009144  -0.12587  0.002684  3.918578  0.004
C  C71  1  0.91011644  0.76929858  0.92767820  1  -0.133625  0.001987  3.688333  0.004  -0.128745  0.001351  3.925933  0.002  -0.131685  0.000193  3.940771  0.001  0.02891  0.005317  -0.009187  -0.126962  0.002745  3.916464  0.004
C  C72  1  0.42935048  0.84830876  0.85007710  1  0.230566  0.002332  3.762116  0.003  0.214139  0.001244  4.028994  0.002  0.221375  0.0009  4.046341  0.001  0.362515  0.003405  0.080609  0.209337  0.001737  4.017178  0.002
C  C73  1  0.07064758  0.14954660  0.15283667  1  0.231104  0.002313  3.764809  0.003  0.215863  0.001228  4.030396  0.002  0.223185  0.000888  4.047708  0.001  0.391905  0.00336  0.081284  0.211015  0.001715  4.018579  0.002
C  C74  1  0.57064994  0.15169200  0.14992058  1  0.230591  0.00235  3.762254  0.003  0.214206  0.001244  4.029082  0.002  0.221437  0.000899  4.046432  0.001  0.362453  0.003405  0.080651  0.209403  0.001737  4.01727  0.002
C  C75  1  0.92935269  0.85045038  0.84716480  1  0.230868  0.002312  3.764929  0.003  0.215557  0.001228  4.030592  0.002  0.222877  0.000888  4.047907  0.001  0.392332  0.003361  0.08123  0.210708  0.001716  4.018777  0.002
C  C76  1  0.32483182  0.84141181  0.94029917  1  -0.143971  -0.00307  3.726103  -0.002  -0.17272  -0.000342  3.990833  0.0  -0.174424  -0.000641  4.00874  0.0  -0.064198  0.000148  -0.086845  -0.171357  -5.7e-05  3.978113  0.0
C  C77  1  0.17517005  0.05926046  0.15970108  1  -0.146354  -0.003033  3.727143  -0.002  -0.175614  -0.000306  3.991737  0.0  -0.177398  -0.000612  4.009663  0.0  -0.004196  0.000179  -0.087617  -0.174164  -1.5e-05  3.978965  0.0
C  C78  1  0.67516579  0.15858668  0.05969874  1  -0.143931  -0.003109  3.726115  -0.002  -0.172692  -0.000341  3.990849  0.0  -0.174396  -0.000639  4.008758  0.0  -0.064481  0.000148  -0.086825  -0.17133  -5.7e-05  3.97813  0.0
C  C79  1  0.82483288  0.94073501  0.84029822  1  -0.146259  -0.003026  3.727125  -0.002  -0.175485  -0.000307  3.991716  0.0  -0.177268  -0.000612  4.009639  0.0  -0.004625  0.000178  -0.087599  -0.174037  -1.6e-05  3.978949  0.0
C  C80  1  0.27705010  0.00298169  0.77884765  1  -0.059471  0.005785  3.735914  0.008  -0.045771  0.002897  3.969576  0.004  -0.052384  0.001878  3.990251  0.003  0.020918  0.008024  -0.014351  -0.041381  0.004084  3.955936  0.005
C  C81  1  0.22176163  0.22069460  0.99723900  1  -0.058356  0.005793  3.732173  0.008  -0.044574  0.002902  3.965636  0.004  -0.051064  0.001881  3.986247  0.003  -0.014551  0.008035  -0.013661  -0.040237  0.004085  3.951973  0.005
C  C82  1  0.72295259  0.99701907  0.22115257  1  -0.059457  0.005803  3.735928  0.008  -0.045732  0.002898  3.96958  0.004  -0.052347  0.001879  3.990255  0.003  0.0209  0.008024  -0.014339  -0.041325  0.004084  3.95592  0.005
C  C83  1  0.77823598  0.77930390  0.00276177  1  -0.0583  0.00579  3.732107  0.008  -0.044602  0.002902  3.96567  0.004  -0.051045  0.001882  3.986221  0.003  -0.014467  0.008037  -0.013642  -0.040269  0.004085  3.952008  0.005
C  C84  1  0.17390534  0.99778070  0.86981773  1  -0.066316  -0.002123  3.740261  -0.001  -0.098911  0.000241  4.002305  0.001  -0.099042  -0.000189  4.022957  0.0  -0.012427  0.00156  -0.083682  -0.098643  0.000714  3.988157  0.001
C  C85  1  0.32507522  0.12971393  0.00249871  1  -0.067134  -0.002091  3.740548  -0.001  -0.100086  0.000262  4.002973  0.001  -0.100308  -0.000171  4.023685  0.0  -0.043447  0.001618  -0.084299  -0.099729  0.000739  3.988804  0.001
C  C86  1  0.82609395  0.00222005  0.13018083  1  -0.066449  -0.002159  3.740305  -0.001  -0.099026  0.000241  4.00233  0.001  -0.099158  -0.000189  4.022985  0.0  -0.012275  0.00156  -0.083714  -0.098762  0.000714  3.988177  0.001
C  C87  1  0.67492599  0.87028380  0.99749886  1  -0.067059  -0.002085  3.740548  -0.001  -0.099987  0.000262  4.002981  0.001  -0.100225  -0.00017  4.023685  0.0  -0.043724  0.001618  -0.084265  -0.099622  0.000738  3.988811  0.001
C  C88  1  0.41740500  0.65296302  0.82870820  1  0.007363  -0.011973  3.680287  -0.008  -0.030827  0.001013  3.944935  0.001  -0.023498  0.001016  3.960534  0.001  0.514464  0.001697  0.033191  -0.036635  0.001024  3.935218  0.002
C  C89  1  0.08349277  0.16999461  0.34732767  1  0.004815  -0.012196  3.679372  -0.008  -0.032562  0.000907  3.944548  0.001  -0.025322  0.000922  3.960208  0.001  0.563994  0.001498  0.032324  -0.038308  0.000904  3.934828  0.002
C  C90  1  0.58259621  0.34703471  0.17129511  1  0.007365  -0.011968  3.68033  -0.008  -0.030878  0.001015  3.944996  0.001  -0.023549  0.001016  3.960591  0.001  0.481045  0.001737  0.033151  -0.036687  0.001026  3.935285  0.002
C  C91  1  0.91650676  0.83000087  0.65267069  1  0.004914  -0.012208  3.679388  -0.008  -0.03248  0.000907  3.944508  0.001  -0.025241  0.000923  3.960164  0.001  0.564024  0.001498  0.032325  -0.038248  0.000904  3.934777  0.002
C  C92  1  0.53118867  0.54453942  0.50108226  1  0.085032  -0.023913  3.759346  -0.015  0.096498  -0.006619  3.991843  -0.003  0.102486  -0.002827  4.010669  -0.001  -0.001409  -0.011506  0.007435  0.091397  -0.012767  3.980865  -0.007
C  C93  1  0.96898510  0.49895068  0.45572907  1  0.085393  -0.023878  3.754162  -0.015  0.096741  -0.006611  3.987314  -0.003  0.10278  -0.002791  4.006032  -0.001  0.00176  -0.011555  0.008305  0.091561  -0.012826  3.976529  -0.007
C  C94  1  0.46881570  0.45546360  0.49890787  1  0.084985  -0.023894  3.75918  -0.015  0.096367  -0.006618  3.991766  -0.003  0.102354  -0.002825  4.010589  -0.001  -0.039461  -0.011601  0.007416  0.091278  -0.012766  3.980775  -0.007
C  C95  1  0.03101153  0.50105158  0.54427166  1  0.085409  -0.023891  3.753872  -0.015  0.096761  -0.006612  3.987034  -0.003  0.102808  -0.002792  4.005741  -0.001  -0.038921  -0.011666  0.008292  0.091578  -0.012827  3.976249  -0.007
C  C96  1  0.19698759  0.91737394  0.94992992  1  -0.042161  0.003278  3.76511  0.004  -0.058116  0.001659  4.026212  0.002  -0.0602  0.001145  4.048064  0.001  0.030512  0.004586  -0.085528  -0.056517  0.002412  4.010994  0.003
C  C97  1  0.30267038  0.04965331  0.08339998  1  -0.041647  0.003263  3.766033  0.004  -0.057824  0.001647  4.027698  0.002  -0.05989  0.001136  4.049519  0.001  0.017519  0.004543  -0.085821  -0.056219  0.002392  4.012482  0.003
C  C98  1  0.80301549  0.08262530  0.05006917  1  -0.042158  0.003298  3.765174  0.004  -0.058117  0.001659  4.026272  0.002  -0.060201  0.001144  4.048124  0.001  0.032543  0.004585  -0.085518  -0.056518  0.002412  4.011054  0.003
C  C99  1  0.69733137  0.95034669  0.91659913  1  -0.041809  0.003261  3.766045  0.004  -0.057976  0.001648  4.027695  0.002  -0.060041  0.001136  4.049518  0.001  0.017528  0.004544  -0.085871  -0.056369  0.002393  4.012471  0.003
C  C100  1  0.67701881  0.60353293  0.86257186  1  -0.110534  -0.012533  3.653115  -0.008  -0.138117  0.000163  3.904678  0.0  -0.134861  0.000558  3.916456  0.001  -0.055582  2.5e-05  -0.076276  -0.140732  -0.000402  3.897752  0.0
C  C101  1  0.82209829  0.13765077  0.39700970  1  -0.109873  -0.012937  3.653169  -0.008  -0.137194  7.9e-05  3.905597  0.0  -0.133906  0.000483  3.91725  0.001  -0.036173  -0.000149  -0.075865  -0.139848  -0.000558  3.898788  0.0
C  C102  1  0.32298013  0.39646481  0.13743321  1  -0.110362  -0.012526  3.65308  -0.008  -0.137964  0.000164  3.904668  0.0  -0.134707  0.00056  3.916448  0.001  -0.055462  2.8e-05  -0.076205  -0.140578  -0.000399  3.897734  0.0
C  C103  1  0.17789799  0.86234847  0.60298894  1  -0.109718  -0.012953  3.653037  -0.008  -0.137075  8e-05  3.905451  0.0  -0.133785  0.000483  3.917101  0.001  -0.036221  -0.000149  -0.075876  -0.139728  -0.000558  3.898641  0.0
C  C104  1  0.53686612  0.62752593  0.42000315  1  -0.14476  0.005555  3.675826  0.009  -0.1624  0.001054  3.917524  0.002  -0.168965  0.00112  3.934033  0.002  -0.028399  0.001421  -0.075732  -0.159254  -0.000173  3.909943  0.002
C  C105  1  0.96395625  0.58056474  0.37324176  1  -0.144141  0.005506  3.673975  0.009  -0.161863  0.001038  3.915959  0.002  -0.168368  0.001106  3.932409  0.002  -0.04462  0.001391  -0.075897  -0.158783  -0.000205  3.908422  0.002
C  C106  1  0.46313731  0.37247633  0.57999087  1  -0.144915  0.005545  3.675607  0.009  -0.162508  0.001054  3.917336  0.002  -0.169072  0.001119  3.933842  0.002  -0.028549  0.00142  -0.075787  -0.159377  -0.000173  3.909748  0.002
C  C107  1  0.03604683  0.41943450  0.62676450  1  -0.144135  0.005513  3.673798  0.009  -0.161846  0.001038  3.91582  0.002  -0.16835  0.001105  3.932266  0.002  -0.044642  0.00139  -0.075912  -0.158765  -0.000205  3.908283  0.002
C  C108  1  0.58999131  0.55042587  0.58439074  1  -0.155995  0.006141  3.711724  0.01  -0.174532  0.00141  3.957728  0.003  -0.182374  0.001406  3.976814  0.003  -0.020928  0.002673  -0.083326  -0.170067  0.000532  3.947475  0.003
C  C109  1  0.90962257  0.41509394  0.44987180  1  -0.154252  0.006067  3.707431  0.01  -0.172873  0.001372  3.953631  0.003  -0.180656  0.001376  3.972808  0.003  -0.018659  0.0026  -0.083358  -0.168448  0.000473  3.943348  0.003
C  C110  1  0.41001020  0.44957940  0.41560427  1  -0.155982  0.006131  3.711561  0.01  -0.174524  0.00141  3.957569  0.003  -0.182367  0.001406  3.976655  0.003  -0.020834  0.002674  -0.083299  -0.170061  0.000532  3.94731  0.003
C  C111  1  0.09037820  0.58490983  0.55013227  1  -0.154364  0.006074  3.707388  0.01  -0.172969  0.001373  3.953528  0.003  -0.180759  0.001376  3.972703  0.003  -0.018185  0.002602  -0.083416  -0.168542  0.000473  3.943243  0.003
C  C112  1  0.64880241  0.63481500  0.58407104  1  0.12959  -0.020907  3.708112  -0.014  0.101925  -0.003064  3.964186  -0.001  0.112237  -0.001808  3.979099  -0.001  0.466814  -0.004174  0.044277  0.093523  -0.004781  3.957035  -0.002
C  C113  1  0.85111365  0.41533751  0.36614268  1  0.127989  -0.020701  3.704497  -0.014  0.099756  -0.002988  3.960739  -0.001  0.110042  -0.001726  3.975771  -0.001  0.465095  -0.004096  0.042989  0.091366  -0.004716  3.953556  -0.002
C  C114  1  0.35119269  0.36518877  0.41592381  1  0.129792  -0.020898  3.708152  -0.014  0.102102  -0.003066  3.964252  -0.001  0.112422  -0.00181  3.979157  -0.001  0.466584  -0.004176  0.044287  0.093697  -0.004783  3.957104  -0.002
C  C115  1  0.14889245  0.58466324  0.63386278  1  0.128083  -0.020711  3.704683  -0.014  0.099885  -0.002989  3.960899  -0.001  0.11018  -0.001726  3.975926  -0.001  0.464609  -0.004098  0.043046  0.091494  -0.004717  3.953716  -0.002
C  C116  1  0.59720006  0.70960678  0.42501835  1  0.141594  -0.020931  3.670446  -0.014  0.114747  -0.003059  3.920961  -0.001  0.125734  -0.001419  3.933935  0.0  0.467231  -0.004835  0.055635  0.105419  -0.005292  3.916279  -0.002
C  C117  1  0.90364765  0.57552664  0.29184460  1  0.139505  -0.020787  3.67074  -0.013  0.112948  -0.003003  3.921352  -0.001  0.123915  -0.001356  3.934339  0.0  0.478705  -0.004764  0.055255  0.103698  -0.005244  3.916721  -0.002
C  C118  1  0.40280377  0.29039398  0.57497742  1  0.141659  -0.020908  3.670392  -0.014  0.114812  -0.003058  3.920865  -0.001  0.125799  -0.001419  3.933837  0.0  0.466999  -0.004832  0.055688  0.105483  -0.005289  3.916191  -0.002
C  C119  1  0.09635805  0.42447562  0.70815698  1  0.139387  -0.020787  3.671043  -0.013  0.11283  -0.003002  3.921655  -0.001  0.123792  -0.001357  3.93465  0.0  0.478723  -0.004763  0.055217  0.10358  -0.005241  3.91702  -0.002
N  N120  1  0.40780356  0.55620525  0.83325842  1  -0.322961  0.044274  3.427447  0.066  -0.27102  0.031517  3.739215  0.038  -0.300093  0.024232  3.757061  0.028  -1.244068  0.073137  -0.348012  -0.249504  0.038298  3.725748  0.047
N  N121  1  0.09267717  0.16512241  0.44353139  1  -0.323115  0.044531  3.433186  0.067  -0.270859  0.0317  3.744339  0.038  -0.299863  0.024378  3.762315  0.028  -1.249883  0.073636  -0.348081  -0.249311  0.038497  3.730753  0.047
N  N122  1  0.59219804  0.44379098  0.16674734  1  -0.322969  0.044273  3.427418  0.066  -0.271043  0.031517  3.739219  0.038  -0.300109  0.024231  3.757062  0.028  -1.243731  0.073135  -0.347993  -0.249524  0.038297  3.725748  0.047
N  N123  1  0.90731610  0.83487533  0.55646875  1  -0.323212  0.044539  3.433148  0.067  -0.270959  0.031702  3.744297  0.038  -0.299964  0.02438  3.762267  0.028  -1.249988  0.073647  -0.348112  -0.24941  0.0385  3.730721  0.047
N  N124  1  0.65279405  0.71414868  0.50580015  1  -0.322729  0.04188  3.354529  0.068  -0.27105  0.030179  3.65553  0.041  -0.295056  0.024534  3.662961  0.032  -1.247622  0.067495  -0.342752  -0.2556  0.034906  3.652924  0.047
N  N125  1  0.84769858  0.49412372  0.28730520  1  -0.322303  0.041211  3.352613  0.067  -0.269602  0.02978  3.653059  0.04  -0.293659  0.024202  3.660466  0.031  -1.231941  0.066428  -0.340701  -0.254204  0.03445  3.650461  0.046
N  N126  1  0.34720578  0.28585433  0.49419707  1  -0.322734  0.041873  3.354524  0.068  -0.271074  0.03018  3.655553  0.041  -0.295082  0.024535  3.662987  0.032  -1.247322  0.067491  -0.342736  -0.255624  0.034904  3.652947  0.047
N  N127  1  0.15230885  0.50587628  0.71269309  1  -0.322193  0.041213  3.352912  0.067  -0.269525  0.029779  3.65337  0.04  -0.293588  0.0242  3.660781  0.031  -1.232123  0.066432  -0.340708  -0.254131  0.034451  3.650776  0.046
O  O128  1  0.31204711  0.06305883  0.60425177  1  -0.613328  0.0655  2.115208  0.106  -0.571854  0.047703  2.405855  0.07  -0.618982  0.034378  2.395956  0.049  -1.119034  0.119721  -0.319864  -0.534561  0.061359  2.40984  0.09
O  O129  1  0.18667052  0.39588717  0.93567878  1  -0.611486  0.065927  2.112637  0.107  -0.570602  0.047919  2.40293  0.071  -0.617916  0.034509  2.393108  0.05  -1.116565  0.120623  -0.31927  -0.533257  0.061643  2.406793  0.091
O  O130  1  0.68795612  0.93694418  0.39574640  1  -0.613314  0.065494  2.11531  0.106  -0.571797  0.047698  2.405938  0.07  -0.61892  0.034375  2.396034  0.049  -1.119102  0.119715  -0.31987  -0.534507  0.061354  2.409928  0.09
O  O131  1  0.81332896  0.60411283  0.06432495  1  -0.611548  0.065931  2.112807  0.107  -0.570619  0.047921  2.403044  0.071  -0.617925  0.03451  2.393229  0.05  -1.116484  0.120624  -0.319291  -0.533268  0.061645  2.406905  0.091
O  O132  1  0.62232852  0.99355627  0.65580605  1  -0.589586  0.00531  1.90797  0.009  -0.556333  0.006692  2.130416  0.011  -0.58479  0.00451  2.123173  0.008  -1.162562  0.019187  -0.30612  -0.534499  0.009202  2.134412  0.015
O  O133  1  0.87681066  0.34339697  0.00876444  1  -0.59188  0.005131  1.906353  0.009  -0.558086  0.006511  2.12906  0.011  -0.586472  0.004382  2.12188  0.008  -1.14964  0.018752  -0.307419  -0.536349  0.00895  2.133056  0.014
O  O134  1  0.37766964  0.00644449  0.34419267  1  -0.589587  0.00531  1.907947  0.009  -0.556353  0.006693  2.130344  0.011  -0.58481  0.004511  2.1231  0.008  -1.162499  0.019188  -0.306121  -0.53452  0.009203  2.134339  0.015
O  O135  1  0.12318507  0.65660002  0.99123553  1  -0.591781  0.00513  1.906569  0.009  -0.557985  0.006511  2.129272  0.011  -0.586371  0.004383  2.122095  0.008  -1.149599  0.018752  -0.307413  -0.536251  0.008949  2.133264  0.014
O  O136  1  0.56392060  0.77612539  0.84078602  1  -0.29161  0.001292  2.3909  0.002  -0.219338  0.0005  2.616258  0.001  -0.239372  0.000201  2.624504  0.0  -1.098038  0.002167  -0.143548  -0.205234  0.000878  2.610368  0.001
O  O137  1  0.93638104  0.15875333  0.22533317  1  -0.291433  0.001317  2.390802  0.002  -0.220252  0.000506  2.616722  0.001  -0.240324  0.000206  2.624949  0.001  -1.102029  0.002193  -0.14426  -0.206156  0.000888  2.610908  0.002
O  O138  1  0.43607908  0.22387385  0.15921285  1  -0.291584  0.001292  2.390997  0.002  -0.219322  0.0005  2.616358  0.001  -0.239359  0.000201  2.624612  0.0  -1.097912  0.002167  -0.14357  -0.205214  0.000878  2.61046  0.001
O  O139  1  0.06361622  0.84124214  0.77466623  1  -0.29134  0.001317  2.390761  0.002  -0.220113  0.000506  2.616601  0.001  -0.240183  0.000206  2.624825  0.001  -1.102053  0.002193  -0.144223  -0.206021  0.000888  2.610792  0.002
O  O140  1  0.54077879  0.86068042  0.62815820  1  -0.631266  0.067635  2.061251  0.113  -0.598933  0.047456  2.352371  0.073  -0.647391  0.034494  2.340918  0.053  -1.125816  0.119177  -0.331586  -0.559339  0.060548  2.356688  0.092
O  O141  1  0.95905974  0.37195224  0.14000418  1  -0.6327  0.067782  2.058188  0.113  -0.599879  0.047521  2.350569  0.073  -0.648488  0.034539  2.33888  0.053  -1.127195  0.119383  -0.331794  -0.560257  0.060612  2.355038  0.092
O  O142  1  0.45922124  0.13932184  0.37183775  1  -0.631341  0.067626  2.061341  0.113  -0.599008  0.047452  2.352387  0.073  -0.647465  0.03449  2.340938  0.053  -1.125838  0.119162  -0.331583  -0.559416  0.06054  2.356704  0.092
O  O143  1  0.04094072  0.62804399  0.85999601  1  -0.632628  0.06779  2.057894  0.113  -0.599841  0.047527  2.3503  0.073  -0.648461  0.034544  2.338615  0.053  -1.12723  0.119397  -0.331826  -0.560221  0.060619  2.354759  0.092
O  O144  1  0.13252783  0.15741632  0.70018040  1  -0.613687  0.005327  1.876997  0.009  -0.580032  0.007213  2.094671  0.012  -0.606623  0.005029  2.086928  0.008  -1.16856  0.020341  -0.326903  -0.558649  0.009932  2.098199  0.016
O  O145  1  0.36380882  0.29901402  0.84105411  1  -0.614486  0.005415  1.874594  0.009  -0.581111  0.007319  2.091904  0.012  -0.607827  0.005094  2.084234  0.008  -1.174899  0.020653  -0.327952  -0.559585  0.010087  2.095348  0.016
O  O146  1  0.86747372  0.84258443  0.29981784  1  -0.613729  0.005332  1.876716  0.009  -0.580062  0.007216  2.094394  0.012  -0.606654  0.00503  2.086653  0.008  -1.168226  0.020347  -0.326919  -0.558677  0.009935  2.097922  0.016
O  O147  1  0.63618120  0.70098749  0.15894560  1  -0.614444  0.005416  1.874519  0.009  -0.581056  0.00732  2.091814  0.012  -0.607777  0.005094  2.084161  0.008  -1.174995  0.020654  -0.327977  -0.559527  0.010088  2.095252  0.016
