# generated using pymatgen
data_Mn2H4WC8(N4O)2
_symmetry_space_group_name_H-M   'P 1'
_cell_length_a   12.75415807
_cell_length_b   13.21446727
_cell_length_c   13.71702225
_cell_angle_alpha   113.07789208
_cell_angle_beta   111.80497665
_cell_angle_gamma   101.10152208
_symmetry_Int_Tables_number   1
_chemical_formula_structural   Mn2H4WC8(N4O)2
_chemical_formula_sum   'Mn8 H16 W4 C32 N32 O8'
_cell_volume   1813.34457980
_cell_formula_units_Z   4
loop_
 _symmetry_equiv_pos_site_id
 _symmetry_equiv_pos_as_xyz
  1  'x, y, z'
loop_
 _atom_site_type_symbol
 _atom_site_label
 _atom_site_symmetry_multiplicity
 _atom_site_fract_x
 _atom_site_fract_y
 _atom_site_fract_z
 _atom_site_occupancy
 _atom_site_pbe_bader_charge
 _atom_site_pbe_bader_spin_density
 _atom_site_pbe_cm5_charge
 _atom_site_pbe_ddec_charge
 _atom_site_pbe_ddec_spin_density
 _atom_site_pbe_ddec_sum_bond_order
 _atom_site_pbe_magmom
Mn  Mn0  1  0.39728518  0.13993961  0.89239930  1  1.525445  4.438969  0.73451  0.968567  4.617772  2.58862  4.344
Mn  Mn1  1  0.23602347  0.77712371  0.32421815  1  1.485083  4.380891  0.784807  0.933302  4.547118  2.677831  4.263
Mn  Mn2  1  0.41218808  0.45302844  0.67623082  1  1.486312  4.379034  0.785213  0.932798  4.538903  2.681368  4.262
Mn  Mn3  1  0.76397369  0.22287148  0.67579223  1  1.485044  4.380811  0.784788  0.933216  4.547075  2.67805  4.263
Mn  Mn4  1  0.99551914  0.75241971  0.89232298  1  1.529848  4.436562  0.735494  0.969943  4.615937  2.592235  4.343
Mn  Mn5  1  0.00447209  0.24758125  0.10767297  1  1.529926  4.436597  0.735475  0.969998  4.616024  2.592128  4.343
Mn  Mn6  1  0.58781698  0.54697759  0.32378147  1  1.486389  4.378906  0.785217  0.932653  4.53878  2.681678  4.262
Mn  Mn7  1  0.60270460  0.86005541  0.10757924  1  1.525406  4.438905  0.73451  0.968416  4.617686  2.588921  4.344
H  H8  1  0.20003747  0.95152820  0.68187813  1  0.669636  0.000828  0.291215  0.397236  0.001214  0.934631  0.001
H  H9  1  0.12891121  0.87752342  0.47346473  1  0.629328  0.000795  0.298554  0.377186  0.000488  0.950996  0.0
H  H10  1  0.84438316  0.59608725  0.47307960  1  0.634686  0.000807  0.298918  0.378612  0.000471  0.949336  0.0
H  H11  1  0.15560317  0.40389765  0.52690544  1  0.634796  0.000806  0.298934  0.3786  0.00047  0.949334  0.0
H  H12  1  0.84727470  0.02894078  0.22336739  1  0.629157  0.002144  0.324986  0.405824  0.001212  0.877465  0.002
H  H13  1  0.15272420  0.97104203  0.77663002  1  0.629609  0.002144  0.324985  0.405898  0.001212  0.877399  0.002
H  H14  1  0.87566270  0.19431214  0.22354405  1  0.617199  0.002223  0.324737  0.405452  0.00124  0.878025  0.002
H  H15  1  0.87109509  0.12248162  0.52655125  1  0.629187  0.000795  0.298611  0.377314  0.000487  0.950854  0.0
H  H16  1  0.98239152  0.73025312  0.68169731  1  0.66291  0.000831  0.291843  0.398178  0.001219  0.933286  0.001
H  H17  1  0.19636300  0.42954023  0.44246932  1  0.629766  0.000412  0.322191  0.394834  0.000903  0.896494  0.0
H  H18  1  0.80363400  0.57044189  0.55751913  1  0.629873  0.000412  0.322171  0.394898  0.000904  0.896467  0.0
H  H19  1  0.12432939  0.80567209  0.77643109  1  0.617357  0.002223  0.324671  0.405429  0.001239  0.877908  0.002
H  H20  1  0.74586237  0.01263544  0.44246027  1  0.603351  0.000449  0.322266  0.395163  0.000924  0.896295  0.0
H  H21  1  0.25415536  0.98734808  0.55754698  1  0.603308  0.000448  0.322246  0.395097  0.000925  0.896313  0.0
H  H22  1  0.01760214  0.26973718  0.31828951  1  0.662988  0.000833  0.291793  0.398017  0.00122  0.933491  0.001
H  H23  1  0.79997128  0.04847435  0.31812827  1  0.669572  0.000829  0.291215  0.39722  0.001214  0.934622  0.001
W  W24  1  0.78923195  0.53901380  0.07804115  1  1.932289  0.044184  0.962843  0.453735  0.05548  6.126566  0.036
W  W25  1  0.39045498  0.14076360  0.28144463  1  1.932739  0.050645  0.961059  0.450759  0.063487  6.132381  0.042
W  W26  1  0.60954034  0.85923717  0.71855925  1  1.932594  0.050645  0.961035  0.450693  0.063488  6.132805  0.042
W  W27  1  0.21077330  0.46099247  0.92196109  1  1.932509  0.044181  0.962853  0.453768  0.055476  6.126377  0.036
C  C28  1  0.24580715  0.19989337  0.22571123  1  0.751815  0.062691  0.035473  0.04117  0.054523  3.776195  0.046
C  C29  1  0.52022993  0.97379636  0.77390764  1  0.747436  0.06259  0.03606  0.041662  0.054371  3.778935  0.046
C  C30  1  0.50103288  0.31578008  0.33460612  1  0.763756  0.078442  0.046396  0.067872  0.071389  3.765077  0.06
C  C31  1  0.23856706  0.44126197  0.77359412  1  0.757463  0.076183  0.056047  0.087178  0.070258  3.742399  0.059
C  C32  1  0.75419981  0.80011912  0.77429622  1  0.752056  0.062724  0.035605  0.041244  0.054557  3.776084  0.047
C  C33  1  0.37614190  0.24523158  0.43647551  1  0.786972  0.081628  0.05394  0.085764  0.073692  3.759086  0.063
C  C34  1  0.74167951  0.69070875  0.13474553  1  0.757004  0.06876  0.038341  0.048784  0.060297  3.767011  0.051
C  C35  1  0.63246959  0.51119928  0.92378521  1  0.779264  0.081311  0.06085  0.092647  0.072702  3.727965  0.062
C  C36  1  0.96506782  0.66780032  0.22685404  1  0.787918  0.075301  0.056518  0.088355  0.070073  3.740279  0.059
C  C37  1  0.12420791  0.36156770  0.98184007  1  0.754162  0.049043  0.034596  0.041381  0.042831  3.783081  0.037
C  C38  1  0.60633256  0.85889981  0.87344592  1  0.767568  0.064276  0.051907  0.075024  0.055837  3.753435  0.048
C  C39  1  0.76142754  0.55874901  0.22639964  1  0.758169  0.07622  0.055938  0.087068  0.070304  3.742381  0.059
C  C40  1  0.87580235  0.63843847  0.01816681  1  0.754019  0.049053  0.03465  0.041466  0.042838  3.783237  0.037
C  C41  1  0.89351930  0.44443246  0.13523090  1  0.753231  0.069082  0.038621  0.051561  0.060603  3.767531  0.052
C  C42  1  0.64305805  0.37945328  0.01808789  1  0.749233  0.049046  0.034846  0.041692  0.042657  3.78259  0.037
C  C43  1  0.39365687  0.14109478  0.12655056  1  0.767815  0.064223  0.052045  0.075334  0.05579  3.753263  0.048
C  C44  1  0.62384866  0.75476381  0.56352605  1  0.786669  0.081676  0.053894  0.085654  0.073729  3.759054  0.063
C  C45  1  0.44029909  0.80855465  0.56338480  1  0.77921  0.081465  0.054568  0.086009  0.073377  3.758083  0.063
C  C46  1  0.23261027  0.98548254  0.12667499  1  0.777171  0.064069  0.05186  0.073906  0.055838  3.753946  0.048
C  C47  1  0.79209919  0.41244904  0.92395032  1  0.796598  0.080703  0.061104  0.09276  0.072523  3.729134  0.061
C  C48  1  0.35694047  0.62054682  0.98190665  1  0.749525  0.049038  0.03476  0.041548  0.042655  3.782878  0.037
C  C49  1  0.55969662  0.19143699  0.43662222  1  0.778287  0.0815  0.054467  0.085934  0.07339  3.758022  0.063
C  C50  1  0.49897315  0.68421988  0.66539466  1  0.764154  0.078435  0.04634  0.067849  0.071392  3.765353  0.06
C  C51  1  0.36753540  0.48880045  0.07622532  1  0.779549  0.08129  0.060928  0.092667  0.072689  3.728132  0.062
C  C52  1  0.76738701  0.01451663  0.87332021  1  0.777191  0.064074  0.051945  0.074001  0.055842  3.753708  0.048
C  C53  1  0.25831761  0.30929600  0.86524377  1  0.757039  0.068759  0.038354  0.048734  0.060297  3.767059  0.051
C  C54  1  0.47977442  0.02620363  0.22609184  1  0.747586  0.062592  0.036098  0.041723  0.054375  3.778603  0.046
C  C55  1  0.20790529  0.58756354  0.07605338  1  0.79682  0.080672  0.061099  0.09268  0.072499  3.729082  0.061
C  C56  1  0.03494048  0.33222181  0.77316786  1  0.787508  0.075323  0.056548  0.088306  0.070097  3.739771  0.059
C  C57  1  0.10649985  0.55559095  0.86477564  1  0.751343  0.069141  0.038562  0.051448  0.060612  3.767292  0.052
C  C58  1  0.66668469  0.98087262  0.66499115  1  0.759108  0.078513  0.045911  0.067893  0.071375  3.764316  0.06
C  C59  1  0.33330082  0.01912281  0.33500792  1  0.758682  0.078508  0.045878  0.067981  0.071361  3.764086  0.06
N  N60  1  0.45066315  0.50772989  0.16524785  1  -1.396669  0.063973  -0.374394  -0.367329  0.022867  3.352692  -0.013
N  N61  1  0.06423803  0.73843777  0.30746243  1  -1.441324  0.063986  -0.38573  -0.406851  0.028158  3.328045  -0.002
N  N62  1  0.47013329  0.03568164  0.80329240  1  -1.371791  0.060281  -0.365744  -0.354837  0.02979  3.335363  -0.001
N  N63  1  0.54933286  0.49227070  0.83476423  1  -1.396353  0.063968  -0.374342  -0.367376  0.022862  3.352317  -0.013
N  N64  1  0.69991299  0.05473415  0.64337114  1  -1.40246  0.065128  -0.387612  -0.389936  0.026949  3.361887  -0.006
N  N65  1  0.70915494  0.77007286  0.15709004  1  -1.375812  0.056554  -0.3686  -0.368423  0.026355  3.318834  -0.003
N  N66  1  0.16635387  0.23236251  0.19626094  1  -1.3749  0.060509  -0.365029  -0.354417  0.029846  3.33442  -0.001
N  N67  1  0.55587259  0.41113632  0.35600687  1  -1.406085  0.065395  -0.387934  -0.389606  0.026988  3.362811  -0.006
N  N68  1  0.44414478  0.58887309  0.64401691  1  -1.406554  0.065411  -0.387887  -0.389613  0.026988  3.362992  -0.006
N  N69  1  0.37606940  0.30690916  0.52548534  1  -1.410893  0.065298  -0.382827  -0.384933  0.025535  3.360664  -0.01
N  N70  1  0.94833826  0.38750711  0.15789115  1  -1.369602  0.056585  -0.370272  -0.372153  0.026511  3.31825  -0.003
N  N71  1  0.25725762  0.43132678  0.69297796  1  -1.407643  0.063382  -0.3861  -0.406342  0.028259  3.328754  -0.002
N  N72  1  0.14595048  0.90232295  0.04055331  1  -1.379182  0.062424  -0.356208  -0.346785  0.030266  3.304552  -0.002
N  N73  1  0.07515238  0.30758009  0.01380509  1  -1.354811  0.060426  -0.350057  -0.352128  0.035283  3.294048  0.011
N  N74  1  0.62391078  0.69307356  0.47451491  1  -1.410605  0.065299  -0.382794  -0.384776  0.025528  3.360679  -0.01
N  N75  1  0.05168702  0.61252083  0.84211567  1  -1.367503  0.056515  -0.370254  -0.372043  0.026502  3.318032  -0.003
N  N76  1  0.43788680  0.70652749  0.01391307  1  -1.352616  0.060475  -0.349393  -0.351799  0.035228  3.293157  0.011
N  N77  1  0.60551499  0.86183249  0.95952320  1  -1.362032  0.061868  -0.355885  -0.347003  0.030174  3.303624  -0.002
N  N78  1  0.92485710  0.69241182  0.98619158  1  -1.354789  0.060422  -0.350108  -0.352214  0.035286  3.294306  0.011
N  N79  1  0.74271532  0.56865638  0.30700313  1  -1.40849  0.063426  -0.385966  -0.406229  0.028243  3.328775  -0.002
N  N80  1  0.78593831  0.34217559  0.83478296  1  -1.413021  0.064252  -0.373831  -0.366937  0.022955  3.353905  -0.013
N  N81  1  0.39447743  0.13816932  0.04047497  1  -1.362253  0.061851  -0.356041  -0.347411  0.030196  3.303377  -0.002
N  N82  1  0.52986710  0.96431675  0.19669776  1  -1.371864  0.060268  -0.365813  -0.35496  0.029791  3.335275  -0.001
N  N83  1  0.93576086  0.26156989  0.69255707  1  -1.441252  0.06398  -0.385778  -0.406849  0.028144  3.32729  -0.002
N  N84  1  0.21407233  0.65783149  0.16522369  1  -1.413248  0.064249  -0.373797  -0.36685  0.022959  3.353801  -0.013
N  N85  1  0.56211280  0.29346284  0.98607294  1  -1.352323  0.060465  -0.349427  -0.351899  0.035224  3.293003  0.011
N  N86  1  0.35124609  0.78124960  0.47445475  1  -1.404955  0.065051  -0.382629  -0.384759  0.025532  3.360159  -0.01
N  N87  1  0.83365394  0.76765000  0.80374610  1  -1.375144  0.060527  -0.365154  -0.354456  0.029836  3.334473  -0.001
N  N88  1  0.85405336  0.09767552  0.95943372  1  -1.37923  0.062431  -0.356334  -0.346885  0.030273  3.304326  -0.002
N  N89  1  0.64874982  0.21874465  0.52555701  1  -1.404044  0.065022  -0.382512  -0.384684  0.025521  3.360105  -0.01
N  N90  1  0.29084752  0.22993456  0.84290145  1  -1.375911  0.056559  -0.368594  -0.368385  0.026351  3.318821  -0.003
N  N91  1  0.30006907  0.94526742  0.35663640  1  -1.402228  0.065143  -0.387576  -0.390044  0.026951  3.361736  -0.006
O  O92  1  0.22405664  0.96754298  0.76667678  1  -1.283218  0.063449  -0.562266  -0.763537  0.045979  2.067438  0.036
O  O93  1  0.87617921  0.60313012  0.55359489  1  -1.246827  0.007465  -0.564534  -0.737307  0.00424  1.951529  0.004
O  O94  1  0.17783647  0.95093464  0.55396284  1  -1.215578  0.007559  -0.563986  -0.736055  0.00433  1.953238  0.004
O  O95  1  0.04301410  0.79889665  0.76651440  1  -1.267262  0.064145  -0.562496  -0.763801  0.046095  2.067516  0.036
O  O96  1  0.12381369  0.39685837  0.44639169  1  -1.246788  0.007461  -0.564575  -0.737182  0.004238  1.951635  0.004
O  O97  1  0.82217735  0.04907412  0.44604995  1  -1.215476  0.007556  -0.564071  -0.736249  0.004329  1.953197  0.004
O  O98  1  0.95698219  0.20110382  0.23346419  1  -1.26719  0.064159  -0.562491  -0.763655  0.046103  2.067942  0.036
O  O99  1  0.77594838  0.03245057  0.23332698  1  -1.282699  0.063443  -0.562243  -0.763405  0.045974  2.067466  0.036
