# generated using pymatgen
data_Zn2H33C32N2O11
_symmetry_space_group_name_H-M   'P 1'
_cell_length_a   9.88223789
_cell_length_b   11.00796426
_cell_length_c   23.94690127
_cell_angle_alpha   90.08755905
_cell_angle_beta   89.37723776
_cell_angle_gamma   89.96933147
_symmetry_Int_Tables_number   1
_chemical_formula_structural   Zn2H33C32N2O11
_chemical_formula_sum   'Zn4 H66 C64 N4 O22'
_cell_volume   2604.86614236
_cell_formula_units_Z   2
loop_
 _symmetry_equiv_pos_site_id
 _symmetry_equiv_pos_as_xyz
  1  'x, y, z'
loop_
 _atom_site_type_symbol
 _atom_site_label
 _atom_site_symmetry_multiplicity
 _atom_site_fract_x
 _atom_site_fract_y
 _atom_site_fract_z
 _atom_site_occupancy
 _atom_site_pbe_bader_charge
 _atom_site_pbe_bader_spin_density
 _atom_site_pbe_cm5_charge
 _atom_site_pbe_ddec_charge
 _atom_site_pbe_ddec_spin_density
 _atom_site_pbe_ddec_sum_bond_order
 _atom_site_pbe_magmom
Zn  Zn0  1  0.62587792  0.50164507  0.50305456  1  1.28951  0  0.680496  0.83418  0  2.299641  0
Zn  Zn1  1  0.33591775  0.48257534  0.48973178  1  1.293339  0  0.68428  0.837695  0  2.302518  0
Zn  Zn2  1  0.37413728  0.50312589  0.04427707  1  1.288045  0  0.680618  0.834271  0  2.300301  0
Zn  Zn3  1  0.66403972  0.48411481  0.05771696  1  1.29568  0  0.684672  0.838166  0  2.303068  0
H  H4  1  0.86451107  0.27876571  0.40794775  1  0.056306  0  0.101302  0.141692  0  1.003212  0
H  H5  1  0.71875112  0.36778430  0.42265684  1  0.078814  0  0.104434  0.159142  0  1.029619  0
H  H6  1  0.83935669  0.41701201  0.37214296  1  0.064112  0  0.102209  0.145541  0  1.00465  0
H  H7  1  0.14106631  0.53699940  0.61637056  1  0.121037  0  0.104959  0.161619  0  1.024129  0
H  H8  1  0.24033605  0.62268549  0.56980006  1  0.100086  0  0.103134  0.155998  0  1.031082  0
H  H9  1  0.08889059  0.68638811  0.59802857  1  0.056114  0  0.098083  0.137005  0  1.018055  0
H  H10  1  0.06502278  0.37679907  0.36881497  1  0.029458  0  0.098433  0.136632  0  1.001847  0
H  H11  1  0.22297044  0.38950310  0.40322458  1  0.1175  0  0.10744  0.171907  0  1.032324  0
H  H12  1  0.11437558  0.26517685  0.41771924  1  0.067186  0  0.10814  0.158269  0  0.964519  0
H  H13  1  0.89170309  0.72696277  0.58049271  1  0.045591  0  0.104591  0.146938  0  0.983945  0
H  H14  1  0.73824874  0.64660838  0.57241188  1  0.102036  0  0.104377  0.165986  0  1.043382  0
H  H15  1  0.86069791  0.59694759  0.62157101  1  0.075272  0  0.105928  0.156748  0  0.973837  0
H  H16  1  0.20717680  0.08511188  0.58464431  1  0.021552  0  0.086531  0.117606  0  1.013667  0
H  H17  1  0.28432548  0.22411970  0.56523034  1  0.075976  0  0.091266  0.139449  0  1.023909  0
H  H18  1  0.16727835  0.15482326  0.52032359  1  0.012542  0  0.086368  0.119336  0  1.00297  0
H  H19  1  0.78002359  0.83251655  0.49649461  1  0.017431  0  0.086614  0.120187  0  1.006306  0
H  H20  1  0.67194917  0.75519851  0.45007101  1  0.073516  0  0.089336  0.136897  0  1.057474  0
H  H21  1  0.75160025  0.89171064  0.42908914  1  0.043359  0  0.086125  0.117496  0  1.014702  0
H  H22  1  0.13265907  0.93959553  0.52251291  1  0.031217  0  0.088908  0.122512  0  1.009049  0
H  H23  1  0.20431615  0.79212189  0.52077047  1  0.075964  0  0.088897  0.136537  0  1.059182  0
H  H24  1  0.20422238  0.87866534  0.58367028  1  -0.014488  0  0.090133  0.122345  0  0.996369  0
H  H25  1  0.74708636  0.09828552  0.42401326  1  0.026243  0  0.087702  0.11799  0  1.001302  0
H  H26  1  0.74096270  0.19244123  0.48440436  1  0.085038  0  0.090408  0.141814  0  1.054227  0
H  H27  1  0.81333208  0.04478565  0.48758912  1  0.039688  0  0.088239  0.121241  0  1.012257  0
H  H28  1  0.80164083  0.72385151  0.31885442  1  0.058298  0  0.092315  0.126071  0  0.992984  0
H  H29  1  0.76310689  0.61346470  0.37017770  1  0.084896  0  0.091644  0.14163  0  1.058176  0
H  H30  1  0.83986011  0.57062772  0.30479262  1  0.000788  0  0.08368  0.109996  0  1.020359  0
H  H31  1  0.19713320  0.72551615  0.22899060  1  0.045798  0  0.092199  0.125752  0  0.992125  0
H  H32  1  0.23543350  0.61549700  0.17726076  1  0.089028  0  0.0915  0.14115  0  1.057388  0
H  H33  1  0.15828409  0.57225629  0.24246798  1  0.026367  0  0.08358  0.10938  0  1.019707  0
H  H34  1  0.81694618  0.57042997  0.20787661  1  0.031106  0  0.086369  0.119237  0  1.017549  0
H  H35  1  0.72413543  0.67048202  0.16470684  1  0.09222  0  0.091547  0.139722  0  1.021093  0
H  H36  1  0.79832897  0.72417310  0.22740834  1  0.01584  0  0.086958  0.116394  0  1.008547  0
H  H37  1  0.18153302  0.56950228  0.33965559  1  0.02733  0  0.086272  0.119325  0  1.016853  0
H  H38  1  0.27414237  0.66950743  0.38302249  1  0.08235  0  0.091392  0.139561  0  1.020951  0
H  H39  1  0.19960564  0.72339578  0.32049952  1  0.011811  0  0.086979  0.116318  0  1.00939  0
H  H40  1  0.13512393  0.28012451  0.13926080  1  0.064189  0  0.100913  0.141001  0  1.004255  0
H  H41  1  0.28134047  0.36795142  0.12412378  1  0.129596  0  0.10458  0.159869  0  1.029643  0
H  H42  1  0.16187884  0.41853593  0.17494544  1  0.061582  0  0.102424  0.146435  0  1.004727  0
H  H43  1  0.85758756  0.53859935  0.93136059  1  0.143465  0  0.104894  0.161647  0  1.025473  0
H  H44  1  0.75988440  0.62559842  0.97815160  1  0.092795  0  0.10332  0.156015  0  1.031283  0
H  H45  1  0.91151673  0.68769723  0.94948828  1  0.082994  0  0.098149  0.136779  0  1.018209  0
H  H46  1  0.93485099  0.37954845  0.17855959  1  0.031228  0  0.098373  0.136394  0  1.000966  0
H  H47  1  0.77706360  0.39132148  0.14396553  1  0.160467  0  0.107277  0.171331  0  1.032105  0
H  H48  1  0.88623760  0.26706505  0.12980404  1  0.087385  0  0.10805  0.157855  0  0.965199  0
H  H49  1  0.10853006  0.72812402  0.96709202  1  0.038851  0  0.104592  0.146783  0  0.985023  0
H  H50  1  0.26191329  0.64758725  0.97521212  1  0.149108  0  0.104456  0.165695  0  1.044174  0
H  H51  1  0.13962260  0.59789708  0.92599978  1  0.081267  0  0.106171  0.156918  0  0.973963  0
H  H52  1  0.79744068  0.08402443  0.96463576  1  0.008868  0  0.086425  0.117663  0  1.013191  0
H  H53  1  0.71921560  0.22369764  0.98268501  1  0.082903  0  0.091742  0.140585  0  1.021441  0
H  H54  1  0.83413313  0.15574793  0.02891434  1  0.02656  0  0.086208  0.119597  0  1.003201  0
H  H55  1  0.22058298  0.83390114  0.04916762  1  0.037418  0  0.086992  0.120433  0  1.00706  0
H  H56  1  0.32668132  0.75822655  0.09682960  1  0.057918  0  0.089885  0.137817  0  1.055028  0
H  H57  1  0.24585579  0.89534454  0.11645620  1  0.021163  0  0.085788  0.1167  0  1.015277  0
H  H58  1  0.86864358  0.94030547  0.02859704  1  0.028416  0  0.088663  0.12219  0  1.007885  0
H  H59  1  0.79713834  0.79278855  0.02929988  1  0.084268  0  0.088843  0.136685  0  1.058443  0
H  H60  1  0.80154566  0.87934037  0.96652613  1  0.0498  0  0.089615  0.121468  0  0.99871  0
H  H61  1  0.24952594  0.10200697  0.12056421  1  0.021039  0  0.087625  0.117491  0  1.003225  0
H  H62  1  0.25841781  0.19414094  0.05971121  1  0.101456  0  0.090571  0.142269  0  1.051468  0
H  H63  1  0.18695809  0.04615526  0.05669190  1  0.037599  0  0.088086  0.120984  0  1.012999  0
H  H64  1  0.14699695  0.37656464  0.69076181  1  0.637303  0  0.329261  0.363382  0  0.89674  0
H  H65  1  0.19244392  0.40203692  0.81151522  1  0.658589  0  0.313715  0.375448  0  0.939156  0
H  H66  1  0.31050318  0.43878204  0.90986804  1  0.646673  0  0.301598  0.356109  0  0.990784  0
H  H67  1  0.85343303  0.37888028  0.85649295  1  0.613806  0  0.328814  0.362926  0  0.896836  0
H  H68  1  0.80784529  0.40344457  0.73577291  1  0.660372  0  0.313493  0.375143  0  0.940318  0
H  H69  1  0.68957372  0.43862750  0.63743513  1  0.647308  0  0.301605  0.356606  0  0.991303  0
C  C70  1  0.45600401  0.72702085  0.50669305  1  1.510119  0  0.221937  0.612554  0  4.117193  0
C  C71  1  0.48230391  0.44278207  0.60654500  1  1.536421  0  0.219135  0.618681  0  4.113049  0
C  C72  1  0.48029018  0.25537978  0.49213487  1  1.553862  0  0.222091  0.610776  0  4.112087  0
C  C73  1  0.50544518  0.55507236  0.39135113  1  1.53837  0  0.219128  0.600583  0  4.134226  0
C  C74  1  0.54443407  0.72839060  0.04122314  1  1.530768  0  0.221212  0.611435  0  4.119874  0
C  C75  1  0.51793129  0.44420234  0.94080530  1  1.542159  0  0.219068  0.618537  0  4.114048  0
C  C76  1  0.52038418  0.25695250  0.05482851  1  1.553144  0  0.22229  0.610605  0  4.11247  0
C  C77  1  0.49289230  0.55654414  0.15599075  1  1.559564  0  0.219128  0.601578  0  4.135099  0
C  C78  1  0.90499760  0.43744305  0.45647867  1  0.469613  0  0.131143  0.224077  0  3.894029  0
C  C79  1  0.05747904  0.55003587  0.53544188  1  0.468463  0  0.136653  0.238403  0  3.887953  0
C  C80  1  0.04759464  0.43252133  0.45436791  1  0.54451  0  0.133183  0.225777  0  3.903001  0
C  C81  1  0.91491591  0.55990558  0.53595056  1  0.528374  0  0.133106  0.224528  0  3.895923  0
C  C82  1  0.48330292  0.11957616  0.50137238  1  -0.091494  0  -0.018831  -0.152929  0  3.894641  0
C  C83  1  0.46157781  0.86408496  0.50370624  1  0.033407  0  -0.017729  -0.14425  0  3.902386  0
C  C84  1  0.36367525  0.06422811  0.52230110  1  0.035218  0  -0.006076  0.095398  0  3.914965  0
C  C85  1  0.58410046  0.91894193  0.48619104  1  -0.074784  0  -0.009606  0.089524  0  3.920998  0
C  C86  1  0.35063697  0.93677287  0.52091996  1  -0.033485  0  -0.010684  0.088565  0  3.923864  0
C  C87  1  0.59580173  0.04670941  0.48594035  1  0.067331  0  -0.007676  0.09623  0  3.914393  0
C  C88  1  0.42203277  0.41897671  0.84528047  1  0.555146  0  0.083257  0.272391  0  4.027227  0
C  C89  1  0.66600262  0.40558026  0.85421268  1  0.547472  0  0.062723  0.186994  0  4.071349  0
C  C90  1  0.68037712  0.40553604  0.79649199  1  0.457284  0  0.047305  0.122574  0  4.116153  0
C  C91  1  0.56631210  0.41159415  0.76113433  1  0.114138  0  -0.031494  -0.114695  0  4.07123  0
C  C92  1  0.57824433  0.41880596  0.70205294  1  0.484329  0  0.083358  0.272749  0  4.027657  0
C  C93  1  0.33432947  0.40396828  0.69308112  1  0.545467  0  0.063138  0.188108  0  4.070994  0
C  C94  1  0.31995664  0.40424323  0.75082039  1  0.453781  0  0.04711  0.122025  0  4.116576  0
C  C95  1  0.43395652  0.41128838  0.78618304  1  0.026608  0  -0.030813  -0.114136  0  4.070007  0
C  C96  1  0.53630117  0.42037095  0.88018459  1  0.003401  0  -0.047464  -0.275543  0  3.969963  0
C  C97  1  0.46394946  0.41928673  0.66714559  1  0.013719  0  -0.047099  -0.276321  0  3.970599  0
C  C98  1  0.50644789  0.60152568  0.33214320  1  -0.074782  0  -0.016344  -0.143393  0  3.887628  0
C  C99  1  0.49178139  0.60253305  0.21531980  1  -0.092949  0  -0.016397  -0.145654  0  3.890303  0
C  C100  1  0.62667438  0.61653741  0.30003810  1  0.035629  0  -0.008897  0.090514  0  3.911714  0
C  C101  1  0.37158375  0.61724527  0.24748443  1  0.032712  0  -0.008834  0.090969  0  3.913247  0
C  C102  1  0.61839244  0.62005462  0.24134607  1  0.030548  0  -0.00758  0.093626  0  3.916798  0
C  C103  1  0.37982011  0.61965375  0.30620412  1  0.002818  0  -0.007183  0.092112  0  3.917558  0
C  C104  1  0.09514873  0.43858638  0.09076976  1  0.466862  0  0.131176  0.224987  0  3.895154  0
C  C105  1  0.94249723  0.55164768  0.01207781  1  0.490381  0  0.13728  0.239297  0  3.886416  0
C  C106  1  0.95255017  0.43404126  0.09292995  1  0.546737  0  0.133255  0.224655  0  3.902532  0
C  C107  1  0.08506029  0.56125030  0.01154133  1  0.532134  0  0.132466  0.223801  0  3.896689  0
C  C108  1  0.51749721  0.12107950  0.04560663  1  -0.060683  0  -0.018842  -0.152935  0  3.895488  0
C  C109  1  0.53908496  0.86546960  0.04410959  1  0.035691  0  -0.01725  -0.144168  0  3.902163  0
C  C110  1  0.63795838  0.06512780  0.02573326  1  0.043977  0  -0.005582  0.095883  0  3.91418  0
C  C111  1  0.41586755  0.92086227  0.06052635  1  -0.058486  0  -0.009023  0.089138  0  3.920645  0
C  C112  1  0.65085321  0.93768005  0.02760672  1  -0.005933  0  -0.010858  0.089188  0  3.921751  0
C  C113  1  0.40420110  0.04864369  0.06027975  1  0.017047  0  -0.007773  0.096937  0  3.913832  0
C  C114  1  0.82657326  0.37191371  0.41277083  1  -0.0388  0  -0.237766  -0.450316  0  3.941814  0
C  C115  1  0.13609716  0.60331667  0.58206330  1  -0.074542  0  -0.244806  -0.463224  0  3.946992  0
C  C116  1  0.11702863  0.36321142  0.40858119  1  -0.050782  0  -0.236033  -0.456737  0  3.935287  0
C  C117  1  0.84639540  0.63576274  0.57973047  1  -0.065206  0  -0.236482  -0.456515  0  3.929597  0
C  C118  1  0.25033576  0.13627768  0.54940183  1  -0.025643  0  -0.246698  -0.40093  0  3.985274  0
C  C119  1  0.70231167  0.84524580  0.46436244  1  -0.062823  0  -0.249603  -0.406676  0  3.97712  0
C  C120  1  0.21603051  0.88318792  0.53790010  1  -0.027723  0  -0.249735  -0.416331  0  3.988033  0
C  C121  1  0.73143255  0.09927806  0.46966894  1  -0.089731  0  -0.250696  -0.416468  0  3.989929  0
C  C122  1  0.76499729  0.63031448  0.32536042  1  -0.086227  0  -0.247442  -0.41194  0  3.982167  0
C  C123  1  0.23343197  0.63187589  0.22214866  1  -0.105673  0  -0.246917  -0.410062  0  3.980503  0
C  C124  1  0.74539813  0.64711984  0.20809781  1  -0.073881  0  -0.244622  -0.39791  0  3.976253  0
C  C125  1  0.25279068  0.64631144  0.33958273  1  -0.053431  0  -0.244388  -0.397357  0  3.977559  0
C  C126  1  0.17370344  0.37295148  0.13432578  1  -0.090354  0  -0.238035  -0.451952  0  3.943058  0
C  C127  1  0.86373488  0.60516351  0.96560849  1  -0.137375  0  -0.245403  -0.463598  0  3.946113  0
C  C128  1  0.88314985  0.36522629  0.13875381  1  -0.117603  0  -0.235392  -0.455146  0  3.934158  0
C  C129  1  0.15376251  0.63687211  0.96787058  1  -0.109037  0  -0.236298  -0.45612  0  3.932121  0
C  C130  1  0.75252909  0.13634178  0.99923085  1  -0.046993  0  -0.246602  -0.402574  0  3.98404  0
C  C131  1  0.29678683  0.84779213  0.08181665  1  -0.059534  0  -0.250265  -0.406361  0  3.975674  0
C  C132  1  0.78650234  0.88383655  0.01214758  1  -0.102142  0  -0.248931  -0.415279  0  3.986663  0
C  C133  1  0.26759343  0.10147674  0.07505279  1  -0.107217  0  -0.250432  -0.41559  0  3.989365  0
N  N134  1  0.84088766  0.50148822  0.49717499  1  -1.215446  0  -0.293638  -0.269635  0  3.408609  0
N  N135  1  0.12145496  0.48805530  0.49408424  1  -1.224211  0  -0.29081  -0.264676  0  3.397733  0
N  N136  1  0.15914425  0.50257871  0.05015053  1  -1.224895  0  -0.293782  -0.270093  0  3.410715  0
N  N137  1  0.87858964  0.48972413  0.05335138  1  -1.225457  0  -0.291515  -0.264515  0  3.396181  0
O  O138  1  0.55641116  0.67314813  0.52868600  1  -1.173749  0  -0.312921  -0.550659  0  2.352647  0
O  O139  1  0.35330799  0.67082492  0.48736812  1  -1.168283  0  -0.307195  -0.547998  0  2.350171  0
O  O140  1  0.38146910  0.45256148  0.57489213  1  -1.17996  0  -0.298413  -0.527149  0  2.366694  0
O  O141  1  0.60659009  0.45579604  0.58862912  1  -1.163076  0  -0.31399  -0.542221  0  2.371868  0
O  O142  1  0.36508234  0.30044891  0.48088676  1  -1.155209  0  -0.308455  -0.529688  0  2.377349  0
O  O143  1  0.58885023  0.31832696  0.49508963  1  -1.176442  0  -0.314707  -0.556213  0  2.396537  0
O  O144  1  0.60737097  0.57089434  0.42316215  1  -1.168373  0  -0.308434  -0.549153  0  2.401674  0
O  O145  1  0.40131020  0.49515373  0.40641017  1  -1.176427  0  -0.310495  -0.544135  0  2.379112  0
O  O146  1  0.44432564  0.67457588  0.01895729  1  -1.180253  0  -0.312514  -0.55061  0  2.353023  0
O  O147  1  0.64682172  0.67208299  0.06075392  1  -1.172546  0  -0.307248  -0.54767  0  2.355123  0
O  O148  1  0.61875562  0.45443578  0.97242503  1  -1.184312  0  -0.298522  -0.5275  0  2.366905  0
O  O149  1  0.39356484  0.45698429  0.95871604  1  -1.163687  0  -0.313982  -0.542116  0  2.371037  0
O  O150  1  0.63554625  0.30211550  0.06607321  1  -1.157022  0  -0.308108  -0.529096  0  2.380667  0
O  O151  1  0.41173623  0.31991243  0.05206076  1  -1.178789  0  -0.314874  -0.556664  0  2.398961  0
O  O152  1  0.39128052  0.57311160  0.12409643  1  -1.171969  0  -0.308112  -0.548268  0  2.401431  0
O  O153  1  0.59677153  0.49603333  0.14094856  1  -1.169986  0  -0.311176  -0.545653  0  2.376129  0
O  O154  1  0.21892701  0.38800659  0.66259540  1  -1.136101  0  -0.341039  -0.409957  0  2.315601  0
O  O155  1  0.18901074  0.39363488  0.77033574  1  -1.173172  0  -0.376697  -0.484394  0  2.301313  0
O  O156  1  0.29447379  0.42772933  0.86727355  1  -1.168828  0  -0.353691  -0.478138  0  2.328473  0
O  O157  1  0.78150015  0.39019914  0.88469260  1  -1.111082  0  -0.340426  -0.409271  0  2.31482  0
O  O158  1  0.81140311  0.39556290  0.77696897  1  -1.177064  0  -0.376227  -0.483843  0  2.301658  0
O  O159  1  0.70570877  0.42808487  0.68005856  1  -1.171895  0  -0.353773  -0.478727  0  2.329189  0
