# generated using pymatgen
data_AlH7C12O7
_symmetry_space_group_name_H-M   'P 1'
_cell_length_a   6.62934433
_cell_length_b   14.60750863
_cell_length_c   14.51948753
_cell_angle_alpha   90.15253444
_cell_angle_beta   91.19336520
_cell_angle_gamma   89.27887130
_symmetry_Int_Tables_number   1
_chemical_formula_structural   AlH7C12O7
_chemical_formula_sum   'Al4 H28 C48 O28'
_cell_volume   1405.62074577
_cell_formula_units_Z   4
loop_
 _symmetry_equiv_pos_site_id
 _symmetry_equiv_pos_as_xyz
  1  'x, y, z'
loop_
 _atom_site_type_symbol
 _atom_site_label
 _atom_site_symmetry_multiplicity
 _atom_site_fract_x
 _atom_site_fract_y
 _atom_site_fract_z
 _atom_site_occupancy
 _atom_site_pbe_bader_charge
 _atom_site_pbe_bader_spin_density
 _atom_site_pbe_cm5_charge
 _atom_site_pbe_ddec_charge
 _atom_site_pbe_ddec_spin_density
 _atom_site_pbe_ddec_sum_bond_order
 _atom_site_pbe_magmom
Al  Al0  1  0.02240647  0.00661298  0.49836744  1  2.503827  0  0.402244  1.64168  0  2.585092  0
Al  Al1  1  0.52349321  0.00472073  0.50470815  1  2.502016  0  0.398548  1.642936  0  2.571519  0
Al  Al2  1  0.95691679  0.49432634  0.00454157  1  2.502687  0  0.398699  1.631456  0  2.589134  0
Al  Al3  1  0.45569694  0.50951034  0.00869980  1  2.503321  0  0.405434  1.64439  0  2.559189  0
H  H4  1  0.77041345  0.12382917  0.48712266  1  0.604936  0  0.354665  0.428471  0  0.859394  0
H  H5  1  0.27784990  0.88799320  0.51842681  1  0.598365  0  0.35179  0.424128  0  0.86766  0
H  H6  1  0.69457912  0.38207207  0.00008537  1  0.618031  0  0.356441  0.430131  0  0.853617  0
H  H7  1  0.17963410  0.61954744  0.99924395  1  0.64445  0  0.355705  0.429911  0  0.85417  0
H  H8  1  0.88302517  0.48254833  0.74373997  1  0.075114  0  0.099378  0.103185  0  1.0438  0
H  H9  1  0.65177770  0.48540684  0.60929223  1  0.066057  0  0.098536  0.09571  0  1.000935  0
H  H10  1  0.98614543  0.26497211  0.48576035  1  0.058728  0  0.101182  0.104971  0  1.013954  0
H  H11  1  0.70643189  0.37733810  0.47785367  1  0.039149  0  0.101641  0.101518  0  0.997423  0
H  H12  1  0.43309893  0.51196934  0.26715594  1  0.074849  0  0.100952  0.104326  0  1.020348  0
H  H13  1  0.19543210  0.51284404  0.39561753  1  0.068312  0  0.1014  0.100184  0  0.993164  0
H  H14  1  0.48607773  0.74972377  0.51062776  1  0.022331  0  0.093455  0.08938  0  1.064124  0
H  H15  1  0.22370844  0.63239816  0.51882301  1  0.061439  0  0.096104  0.094088  0  1.020083  0
H  H16  1  0.01941351  0.58700111  0.82465636  1  0.100352  0  0.102709  0.095191  0  1.105401  0
H  H17  1  0.32009065  0.59340630  0.73055744  1  0.053748  0  0.097915  0.097173  0  1.001449  0
H  H18  1  0.15529641  0.86760354  0.65091454  1  0.123333  0  0.105549  0.10959  0  1.088174  0
H  H19  1  0.39817922  0.73917858  0.64839418  1  0.083376  0  0.096168  0.088286  0  1.024287  0
H  H20  1  0.94157599  0.24476123  0.00468254  1  0.063342  0  0.09966  0.104866  0  1.026529  0
H  H21  1  0.70642328  0.11662777  0.99181577  1  0.051645  0  0.102564  0.100912  0  0.989717  0
H  H22  1  0.98736626  0.98919328  0.22899297  1  0.060537  0  0.100567  0.106129  0  1.019643  0
H  H23  1  0.72761998  0.98795948  0.10517042  1  0.049898  0  0.103261  0.101301  0  0.986431  0
H  H24  1  0.58556994  0.16186488  0.64051273  1  0.64261  0  0.319662  0.352229  0  0.961281  0
H  H25  1  0.54013570  0.38418300  0.85571543  1  0.646713  0  0.315663  0.352246  0  0.975908  0
H  H26  1  0.08178244  0.85096351  0.36278093  1  0.634672  0  0.319232  0.35212  0  0.967414  0
H  H27  1  0.06494249  0.61821955  0.15828862  1  0.65445  0  0.319177  0.358021  0  0.954718  0
H  H28  1  0.47484653  0.96256290  0.72580326  1  0.67389  0  0.320788  0.364478  0  0.937786  0
H  H29  1  0.40917714  0.72866978  0.92377317  1  0.645434  0  0.318328  0.35167  0  0.944554  0
H  H30  1  0.59896328  0.11669741  0.34055152  1  0.650492  0  0.318207  0.357085  0  0.95843  0
H  H31  1  0.53737859  0.36312976  0.15371503  1  0.629801  0  0.316938  0.34899  0  0.978903  0
C  C32  1  0.26921078  0.06007240  0.34232025  1  1.510056  0  0.265161  0.658671  0  4.068948  0
C  C33  1  0.26628374  0.15877202  0.56955451  1  1.501644  0  0.27048  0.671953  0  4.045941  0
C  C34  1  0.78225468  0.94176656  0.65666758  1  1.500615  0  0.265208  0.654578  0  4.064677  0
C  C35  1  0.77301296  0.85177303  0.43357920  1  1.489934  0  0.269238  0.670058  0  4.035701  0
C  C36  1  0.22145464  0.35419268  0.08611541  1  1.467323  0  0.267308  0.665525  0  4.043272  0
C  C37  1  0.20301914  0.42994532  0.85188081  1  1.498498  0  0.26307  0.653753  0  4.061511  0
C  C38  1  0.70758520  0.64334641  0.91617366  1  1.513258  0  0.272755  0.675489  0  4.032874  0
C  C39  1  0.72506614  0.57036600  0.15957756  1  1.514117  0  0.266927  0.663459  0  4.066661  0
C  C40  1  0.22559719  0.37647177  0.76628938  1  -0.024203  0  -0.030656  -0.236427  0  3.937806  0
C  C41  1  0.07184002  0.37196039  0.69392891  1  0.002985  0  -0.004263  0.073733  0  3.95786  0
C  C42  1  0.40538052  0.32529897  0.75800216  1  0.626706  0  0.099199  0.222869  0  4.028911  0
C  C43  1  0.90593705  0.43389291  0.68829408  1  -0.027796  0  -0.09408  -0.123093  0  3.972905  0
C  C44  1  0.77534580  0.43533965  0.61265113  1  -0.062693  0  -0.097529  -0.08528  0  4.040855  0
C  C45  1  0.26416235  0.24330772  0.62431105  1  0.05889  0  -0.032653  -0.241532  0  3.977621  0
C  C46  1  0.42255160  0.25625165  0.68780286  1  0.531687  0  0.100406  0.227141  0  4.037255  0
C  C47  1  0.09589279  0.30705992  0.62077710  1  0.047918  0  -0.006804  0.071859  0  3.982795  0
C  C48  1  0.96125065  0.31080444  0.54378499  1  -0.036493  0  -0.100467  -0.145475  0  4.005213  0
C  C49  1  0.80465390  0.37423320  0.53904505  1  -0.016041  0  -0.097401  -0.088002  0  4.056189  0
C  C50  1  0.74753674  0.62656657  0.24370151  1  -0.007616  0  -0.027743  -0.224273  0  3.957635  0
C  C51  1  0.59646242  0.63161643  0.31358838  1  0.011137  0  -0.00331  0.072623  0  3.973368  0
C  C52  1  0.92000115  0.68036787  0.25070550  1  0.624415  0  0.096495  0.216008  0  4.040778  0
C  C53  1  0.44351456  0.56516009  0.31958767  1  -0.039413  0  -0.092128  -0.121572  0  3.972033  0
C  C54  1  0.31033702  0.56547176  0.39169221  1  -0.053857  0  -0.096668  -0.086601  0  4.040536  0
C  C55  1  0.77174455  0.76691920  0.37935714  1  0.054303  0  -0.034599  -0.248134  0  3.959318  0
C  C56  1  0.92993924  0.75282019  0.31773766  1  0.551623  0  0.102992  0.231965  0  4.025286  0
C  C57  1  0.61044812  0.70112879  0.38303154  1  0.017205  0  -0.005456  0.077137  0  3.974949  0
C  C58  1  0.47233005  0.69910081  0.45598013  1  -0.072486  0  -0.103381  -0.147982  0  4.011352  0
C  C59  1  0.32560433  0.63278241  0.46077494  1  0.023961  0  -0.099066  -0.086756  0  4.047802  0
C  C60  1  0.73192860  0.71845213  0.84946547  1  0.062965  0  -0.033005  -0.242095  0  3.965406  0
C  C61  1  0.90775396  0.72243799  0.79217616  1  -0.019324  0  -0.007696  0.072278  0  3.971701  0
C  C62  1  0.58723933  0.78862201  0.84581995  1  0.569379  0  0.098218  0.220612  0  4.044712  0
C  C63  1  0.04752366  0.64862745  0.78646706  1  -0.007114  0  -0.106792  -0.157036  0  4.014616  0
C  C64  1  0.21749855  0.65229272  0.73341089  1  -0.06741  0  -0.100533  -0.085562  0  4.055039  0
C  C65  1  0.78166700  0.87087740  0.72931161  1  0.032381  0  -0.030629  -0.236784  0  3.933653  0
C  C66  1  0.61039434  0.86457154  0.78414002  1  0.530552  0  0.100673  0.223556  0  4.032525  0
C  C67  1  0.93905109  0.80123820  0.73593999  1  0.006121  0  -0.003493  0.07895  0  3.948683  0
C  C68  1  0.12136288  0.80511803  0.68671668  1  -0.023229  0  -0.102214  -0.141795  0  3.97385  0
C  C69  1  0.25785180  0.73292136  0.68557287  1  -0.136464  0  -0.100688  -0.087786  0  4.06742  0
C  C70  1  0.24582424  0.26663111  0.13427384  1  0.049563  0  -0.035065  -0.248036  0  3.961674  0
C  C71  1  0.09825364  0.19431092  0.12723898  1  -0.009023  0  -0.005103  0.074554  0  3.966963  0
C  C72  1  0.41753512  0.25489844  0.19170976  1  0.572313  0  0.100203  0.22766  0  4.028798  0
C  C73  1  0.94885741  0.19083120  0.05615061  1  -0.0095  0  -0.10005  -0.142306  0  3.993138  0
C  C74  1  0.81695403  0.11828161  0.04855153  1  -0.049461  0  -0.095334  -0.08346  0  4.048459  0
C  C75  1  0.27419284  0.11719572  0.25887392  1  0.025574  0  -0.028113  -0.227722  0  3.956416  0
C  C76  1  0.43487829  0.17780772  0.25267935  1  0.570435  0  0.097287  0.220339  0  4.039699  0
C  C77  1  0.11159611  0.11987259  0.19112918  1  0.013026  0  -0.005227  0.070641  0  3.97234  0
C  C78  1  0.97430591  0.04679476  0.18183342  1  -0.02183  0  -0.092231  -0.122103  0  3.971095  0
C  C79  1  0.82921409  0.04585035  0.11202524  1  -0.00282  0  -0.094858  -0.084743  0  4.045149  0
O  O80  1  0.09977467  0.04109548  0.37656820  1  -1.256395  0  -0.233761  -0.585552  0  2.360203  0
O  O81  1  0.44001722  0.12158575  0.55230264  1  -1.269388  0  -0.242195  -0.620293  0  2.383937  0
O  O82  1  0.60818009  0.97696306  0.63137697  1  -1.265507  0  -0.251883  -0.629197  0  2.35953  0
O  O83  1  0.94491133  0.89239400  0.44469535  1  -1.268487  0  -0.240788  -0.618699  0  2.408108  0
O  O84  1  0.94403806  0.96356650  0.61789886  1  -1.263999  0  -0.227306  -0.565687  0  2.384687  0
O  O85  1  0.61095342  0.88609760  0.46557020  1  -1.276691  0  -0.233689  -0.592339  0  2.357231  0
O  O86  1  0.44121111  0.03852332  0.38092358  1  -1.26519  0  -0.244821  -0.615156  0  2.374541  0
O  O87  1  0.10033251  0.12214971  0.54529436  1  -1.269832  0  -0.22814  -0.587405  0  2.367315  0
O  O88  1  0.76816626  0.05804810  0.47698109  1  -1.405155  0  -0.447117  -0.986589  0  2.195721  0
O  O89  1  0.27472825  0.95409480  0.52571861  1  -1.403023  0  -0.448477  -0.988108  0  2.210659  0
O  O90  1  0.04964990  0.38246183  0.05643506  1  -1.264524  0  -0.22784  -0.581282  0  2.362498  0
O  O91  1  0.36920319  0.45335958  0.89385315  1  -1.26758  0  -0.247576  -0.627244  0  2.426329  0
O  O92  1  0.52848152  0.61914866  0.93996087  1  -1.249359  0  -0.238558  -0.609732  0  2.305018  0
O  O93  1  0.88923738  0.53763344  0.12568389  1  -1.269685  0  -0.241779  -0.61118  0  2.379659  0
O  O94  1  0.86575745  0.60602934  0.95062702  1  -1.276362  0  -0.232779  -0.595636  0  2.421856  0
O  O95  1  0.55131056  0.56173707  0.12146334  1  -1.26106  0  -0.231488  -0.58705  0  2.342567  0
O  O96  1  0.38245351  0.40326920  0.07740304  1  -1.271853  0  -0.246248  -0.627749  0  2.41622  0
O  O97  1  0.02973547  0.44801289  0.88427190  1  -1.254839  0  -0.232209  -0.576456  0  2.352804  0
O  O98  1  0.70057281  0.44720757  0.98726595  1  -1.419517  0  -0.447407  -0.983007  0  2.190808  0
O  O99  1  0.20017161  0.55810933  0.02343856  1  -1.445691  0  -0.445903  -0.977107  0  2.183159  0
O  O100  1  0.59137081  0.20481262  0.69366756  1  -1.126902  0  -0.33063  -0.389863  0  2.308706  0
O  O101  1  0.56646244  0.33020924  0.81486699  1  -1.146078  0  -0.332159  -0.393452  0  2.328313  0
O  O102  1  0.09263749  0.80564796  0.31144489  1  -1.118188  0  -0.328434  -0.390161  0  2.313842  0
O  O103  1  0.07884894  0.67534569  0.19507053  1  -1.138611  0  -0.332979  -0.3957  0  2.324097  0
O  O104  1  0.45617866  0.92479052  0.78226357  1  -1.151615  0  -0.328773  -0.388666  0  2.295069  0
O  O105  1  0.41944214  0.79031980  0.89631124  1  -1.133082  0  -0.330274  -0.387648  0  2.299718  0
O  O106  1  0.60383408  0.17511930  0.30513615  1  -1.142438  0  -0.333846  -0.399391  0  2.311871  0
O  O107  1  0.56959855  0.31417735  0.19992277  1  -1.118662  0  -0.333891  -0.397255  0  2.308463  0
