# generated using pymatgen
data_Na2CuH6C2O9
_symmetry_space_group_name_H-M   'P 1'
_cell_length_a   6.10659979
_cell_length_b   9.78922703
_cell_length_c   13.58148307
_cell_angle_alpha   92.12506863
_cell_angle_beta   89.99989522
_cell_angle_gamma   90.00007858
_symmetry_Int_Tables_number   1
_chemical_formula_structural   Na2CuH6C2O9
_chemical_formula_sum   'Na8 Cu4 H24 C8 O36'
_cell_volume   811.32764405
_cell_formula_units_Z   4
loop_
 _symmetry_equiv_pos_site_id
 _symmetry_equiv_pos_as_xyz
  1  'x, y, z'
loop_
 _atom_site_type_symbol
 _atom_site_label
 _atom_site_symmetry_multiplicity
 _atom_site_fract_x
 _atom_site_fract_y
 _atom_site_fract_z
 _atom_site_occupancy
 _atom_site_hle17_ddec_charge
 _atom_site_hle17_ddec_spin_density
 _atom_site_hle17_ddec_sum_bond_order
 _atom_site_hle17_magmom
 _atom_site_hse06_10hf_ddec_charge
 _atom_site_hse06_10hf_ddec_spin_density
 _atom_site_hse06_10hf_ddec_sum_bond_order
 _atom_site_hse06_10hf_magmom
 _atom_site_hse06_ddec_charge
 _atom_site_hse06_ddec_spin_density
 _atom_site_hse06_ddec_sum_bond_order
 _atom_site_hse06_magmom
 _atom_site_pbe_cm5_charge
 _atom_site_pbe_ddec_charge
 _atom_site_pbe_ddec_spin_density
 _atom_site_pbe_ddec_sum_bond_order
 _atom_site_pbe_magmom
Na  Na0  1  0.75725711  0.83628275  0.80242254  1  0.896934  -0.000233  0.418049  0.0  0.8565  -4e-06  0.574764  0.0  0.865821  -0.000123  0.553968  0.0  0.713991  0.84962  0.0003  0.589764  0.0
Na  Na1  1  0.25726366  0.66370797  0.69758033  1  0.89693  -0.000233  0.418076  0.0  0.856542  -4e-06  0.57471  0.0  0.865859  -0.000122  0.553917  0.0  0.714004  0.849658  0.0003  0.58971  0.0
Na  Na2  1  0.24274045  0.16371903  0.19757845  1  0.896931  -0.000233  0.418062  0.0  0.856541  -3e-06  0.574698  0.0  0.865852  -0.000122  0.553913  0.0  0.714014  0.849651  0.000299  0.589699  0.0
Na  Na3  1  0.74273390  0.33629075  0.30242058  1  0.896915  -0.000233  0.418087  0.0  0.856511  -4e-06  0.574743  0.0  0.865806  -0.000122  0.553925  0.0  0.713996  0.849616  0.000299  0.589746  0.0
Na  Na4  1  0.51653441  0.89206944  0.59469782  1  0.902518  5.4e-05  0.394343  0.0  0.866235  0.000129  0.54248  0.0  0.875013  6.7e-05  0.521585  0.0  0.684194  0.85941  0.000216  0.557917  0.0
Na  Na5  1  0.01652366  0.60792515  0.90530168  1  0.902511  5.4e-05  0.394331  0.0  0.866241  0.000129  0.542458  0.0  0.875005  6.7e-05  0.52158  0.0  0.684208  0.859422  0.000218  0.557896  0.0
Na  Na6  1  0.48346479  0.10793029  0.40530164  1  0.902525  5.4e-05  0.394316  0.0  0.866246  0.000129  0.542438  0.0  0.875022  6.7e-05  0.521547  0.0  0.684198  0.859411  0.000215  0.557878  0.0
Na  Na7  1  0.98347389  0.39207561  0.09470003  1  0.902501  5.4e-05  0.394345  0.0  0.866236  0.000129  0.54247  0.0  0.874971  6.7e-05  0.52161  0.0  0.684202  0.859409  0.000217  0.55791  0.0
Cu  Cu8  1  0.49356127  0.12135737  0.82277493  1  0.992057  0.668095  1.634614  0.497  0.992379  0.775145  2.01322  0.628  1.094438  0.844132  1.938351  0.723  0.691334  0.922009  0.730301  2.078847  0.573
Cu  Cu9  1  0.99355857  0.37863194  0.67722625  1  0.991888  0.668081  1.634746  0.497  0.992316  0.775144  2.013196  0.628  1.09426  0.844124  1.93846  0.723  0.691269  0.92187  0.730305  2.078952  0.573
Cu  Cu10  1  0.50644447  0.87863930  0.17722594  1  0.992032  0.668068  1.634533  0.497  0.992379  0.775139  2.013102  0.628  1.094367  0.844128  1.938278  0.723  0.691336  0.921969  0.730278  2.078803  0.573
Cu  Cu11  1  0.00644062  0.62136881  0.32277325  1  0.991925  0.668132  1.63483  0.497  0.992314  0.775168  2.013311  0.628  1.093684  0.844126  1.9391  0.723  0.69125  0.921869  0.730337  2.079067  0.573
H  H12  1  0.92747518  0.05097158  0.90828292  1  0.421252  0.000359  0.874397  0.0  0.399151  0.000508  0.926053  0.0  0.411291  0.000346  0.908296  0.0  0.296716  0.390608  0.000652  0.938618  0.0
H  H13  1  0.42748438  0.44902583  0.59171556  1  0.421163  0.000359  0.874472  0.0  0.399067  0.000508  0.926166  0.0  0.411199  0.000346  0.908417  0.0  0.296663  0.390525  0.000652  0.938725  0.0
H  H14  1  0.07252074  0.94903224  0.09171812  1  0.421283  0.000358  0.874288  0.0  0.399187  0.000508  0.926002  0.0  0.411321  0.000346  0.908251  0.0  0.296742  0.390648  0.000652  0.938559  0.0
H  H15  1  0.57251154  0.55097593  0.40828248  1  0.421196  0.00036  0.87443  0.0  0.399087  0.000509  0.926153  0.0  0.411168  0.000347  0.908469  0.0  0.296652  0.390547  0.000652  0.938711  0.0
H  H16  1  0.75931429  0.00790915  0.98867669  1  0.428904  -0.0001  0.871311  0.0  0.40497  6.2e-05  0.923459  0.0  0.417081  -4e-06  0.905975  0.0  0.295026  0.396735  0.000144  0.935413  0.0
H  H17  1  0.25931079  0.49209019  0.51132714  1  0.428934  -0.0001  0.871286  0.0  0.404955  6.2e-05  0.923504  0.0  0.417051  -3e-06  0.906043  0.0  0.295009  0.396709  0.000144  0.93547  0.0
H  H18  1  0.24068654  0.99209365  0.01132506  1  0.428931  -0.0001  0.871283  0.0  0.404992  6.2e-05  0.923439  0.0  0.417103  -4e-06  0.905955  0.0  0.295035  0.396752  0.000144  0.9354  0.0
H  H19  1  0.74067693  0.50791260  0.48867240  1  0.4289  -0.0001  0.871321  0.0  0.404926  6.2e-05  0.923531  0.0  0.417001  -4e-06  0.906097  0.0  0.295008  0.39669  0.000143  0.935484  0.0
H  H20  1  0.75910998  0.85666577  0.41017758  1  0.433626  7.7e-05  0.868317  0.0  0.402417  0.000138  0.932732  0.0  0.41315  1.9e-05  0.916869  0.0  0.294295  0.394907  0.00027  0.94382  0.0
H  H21  1  0.25910707  0.64333949  0.08982206  1  0.433669  7.7e-05  0.868252  0.0  0.402445  0.000138  0.93269  0.0  0.413184  1.9e-05  0.91682  0.0  0.294303  0.394939  0.00027  0.943774  0.0
H  H22  1  0.24089740  0.14333498  0.58982118  1  0.433624  7.6e-05  0.868318  0.0  0.402406  0.000138  0.932749  0.0  0.413146  1.9e-05  0.916878  0.0  0.2943  0.3949  0.000269  0.943832  0.0
H  H23  1  0.74089376  0.35666128  0.91018186  1  0.43362  7.7e-05  0.868327  0.0  0.402408  0.000138  0.932748  0.0  0.413147  1.9e-05  0.916878  0.0  0.294283  0.394899  0.00027  0.943837  0.0
H  H24  1  0.52200259  0.81623355  0.37844761  1  0.421414  -0.000487  0.866255  0.0  0.394781  -0.000363  0.931213  0.0  0.402647  -0.000335  0.919256  0.0  0.301615  0.389086  -0.000368  0.939846  0.0
H  H25  1  0.02200129  0.68377355  0.12155080  1  0.421367  -0.000487  0.866323  0.0  0.394742  -0.000363  0.931263  0.0  0.402642  -0.000334  0.919243  0.0  0.301602  0.389045  -0.000367  0.939896  0.0
H  H26  1  0.47800151  0.18376925  0.62155193  1  0.421363  -0.000488  0.866301  0.0  0.394728  -0.000363  0.931284  0.0  0.402607  -0.000334  0.919305  0.0  0.301595  0.389026  -0.000368  0.939926  0.0
H  H27  1  0.97799954  0.31622925  0.87845095  1  0.421419  -0.000486  0.866254  0.0  0.3948  -0.000363  0.931175  0.0  0.402681  -0.000334  0.919192  0.0  0.301643  0.389107  -0.000367  0.939804  0.0
H  H28  1  0.10271990  0.80763741  0.50942928  1  0.426727  -0.000157  0.870978  0.0  0.399267  -2.6e-05  0.928273  0.0  0.408431  -6e-05  0.914759  0.0  0.296639  0.39274  2e-05  0.937902  0.0
H  H29  1  0.60270414  0.69235112  0.99057074  1  0.426787  -0.000156  0.870908  0.0  0.399292  -2.6e-05  0.928261  0.0  0.408463  -6e-05  0.914739  0.0  0.296646  0.392757  2.1e-05  0.937896  0.0
H  H30  1  0.89728420  0.19235924  0.49056938  1  0.426658  -0.000157  0.871063  0.0  0.399208  -2.6e-05  0.928337  0.0  0.40838  -6e-05  0.914813  0.0  0.296616  0.392679  1.9e-05  0.937967  0.0
H  H31  1  0.39729506  0.30764657  0.00942942  1  0.426681  -0.000156  0.871038  0.0  0.39924  -2.6e-05  0.928294  0.0  0.408411  -6e-05  0.914771  0.0  0.296604  0.392717  2.1e-05  0.937918  0.0
H  H32  1  0.04421097  0.88960996  0.60780164  1  0.428541  -0.000105  0.874607  0.0  0.400363  -4.4e-05  0.934209  0.0  0.411679  -4.4e-05  0.917427  0.0  0.293519  0.392347  -1.6e-05  0.946099  0.0
H  H33  1  0.54419377  0.61037852  0.89219842  1  0.428405  -0.000105  0.874757  0.0  0.400231  -4.4e-05  0.934349  0.0  0.411547  -4.4e-05  0.917566  0.0  0.293531  0.392216  -1.6e-05  0.946237  0.0
H  H34  1  0.95578986  0.11038874  0.39219559  1  0.428474  -0.000105  0.874683  0.0  0.400309  -4.4e-05  0.934265  0.0  0.411622  -4.4e-05  0.917486  0.0  0.293522  0.392295  -1.6e-05  0.946151  0.0
H  H35  1  0.45580378  0.38962018  0.10780176  1  0.428406  -0.000105  0.874766  0.0  0.400226  -4.4e-05  0.934366  0.0  0.411536  -4.4e-05  0.917593  0.0  0.293505  0.392214  -1.6e-05  0.946251  0.0
C  C36  1  0.25463701  0.92207534  0.82966958  1  0.930909  -0.015853  3.961231  -0.012  0.871321  -0.006991  4.268007  -0.006  0.918281  -0.005747  4.24995  -0.005  0.259626  0.839894  -0.007161  4.279087  -0.006
C  C37  1  0.75464024  0.57791432  0.67032665  1  0.930916  -0.01586  3.96125  -0.012  0.87136  -0.006988  4.267989  -0.006  0.918319  -0.005744  4.249919  -0.005  0.259651  0.839939  -0.007161  4.279061  -0.006
C  C38  1  0.74535563  0.07791722  0.17032824  1  0.930921  -0.015861  3.961292  -0.012  0.871358  -0.006989  4.268028  -0.006  0.918313  -0.005744  4.249971  -0.005  0.259666  0.839943  -0.007161  4.279095  -0.006
C  C39  1  0.24536222  0.42207312  0.32966810  1  0.930599  -0.015862  3.961582  -0.012  0.871034  -0.006989  4.268342  -0.006  0.917967  -0.005747  4.250196  -0.005  0.259482  0.839596  -0.007163  4.279411  -0.006
C  C40  1  0.84777832  0.11702968  0.67275626  1  0.93133  -0.008883  3.92666  -0.008  0.870052  -0.001671  4.232235  -0.002  0.917585  -0.001615  4.212078  -0.002  0.271095  0.837486  -0.001569  4.2438  -0.002
C  C41  1  0.34777502  0.38295849  0.82724575  1  0.931213  -0.008876  3.926708  -0.008  0.869952  -0.001668  4.232259  -0.002  0.917481  -0.001614  4.212113  -0.002  0.271055  0.837397  -0.001566  4.243838  -0.002
C  C42  1  0.15222742  0.88296799  0.32724095  1  0.931293  -0.008884  3.926824  -0.008  0.870026  -0.001669  4.232377  -0.002  0.917529  -0.001614  4.212164  -0.002  0.271044  0.83746  -0.001568  4.243945  -0.002
C  C43  1  0.65222909  0.61703920  0.17275588  1  0.93132  -0.008874  3.927028  -0.008  0.870084  -0.001668  4.232506  -0.002  0.917559  -0.001612  4.212382  -0.002  0.271158  0.837528  -0.001565  4.244084  -0.002
O  O44  1  0.41649318  0.93487265  0.76708749  1  -0.790611  0.093623  2.027759  0.128  -0.769418  0.062936  2.322143  0.094  -0.81342  0.045816  2.30746  0.076  -0.453226  -0.741222  0.072275  2.333779  0.102
O  O45  1  0.91648959  0.56512023  0.73291236  1  -0.790568  0.093636  2.027701  0.128  -0.769417  0.06294  2.322062  0.094  -0.813403  0.045819  2.307395  0.076  -0.453205  -0.741197  0.072278  2.333681  0.102
O  O46  1  0.58350765  0.06512912  0.23291203  1  -0.790635  0.09362  2.027809  0.128  -0.769455  0.062935  2.32219  0.094  -0.813458  0.045816  2.30752  0.076  -0.453263  -0.741244  0.072277  2.333801  0.102
O  O47  1  0.08350633  0.43488154  0.26708716  1  -0.790544  0.093624  2.027851  0.128  -0.769401  0.062932  2.322225  0.094  -0.813146  0.045814  2.307388  0.076  -0.45322  -0.741167  0.072278  2.333825  0.102
O  O48  1  0.22997901  0.03068922  0.88945849  1  -0.693418  0.08661  1.946485  0.12  -0.645942  0.059392  2.181017  0.091  -0.692822  0.04285  2.16915  0.072  -0.32777  -0.616407  0.067555  2.191288  0.097
O  O49  1  0.72998331  0.46930498  0.61054230  1  -0.693283  0.0866  1.946652  0.12  -0.645805  0.059383  2.181163  0.091  -0.692681  0.042845  2.169322  0.072  -0.327697  -0.616272  0.06755  2.191449  0.097
O  O50  1  0.77001527  0.96931257  0.11054398  1  -0.693304  0.086581  1.946668  0.12  -0.64584  0.059376  2.181217  0.091  -0.692719  0.04284  2.16936  0.072  -0.327711  -0.616335  0.067536  2.191521  0.097
O  O51  1  0.27000442  0.53070500  0.38946257  1  -0.693332  0.086661  1.946031  0.12  -0.645794  0.059411  2.180486  0.091  -0.692475  0.042864  2.168522  0.072  -0.327645  -0.616239  0.067588  2.190761  0.097
O  O52  1  0.13625514  0.81698446  0.83149780  1  -0.78235  0.027148  1.919352  0.036  -0.748034  0.016531  2.164686  0.024  -0.774463  0.008451  2.146614  0.013  -0.473843  -0.730164  0.022405  2.176979  0.03
O  O53  1  0.63625860  0.68300613  0.66849929  1  -0.782501  0.027154  1.919336  0.036  -0.74821  0.016535  2.164672  0.024  -0.774643  0.008452  2.146603  0.013  -0.473958  -0.730335  0.02241  2.176957  0.03
O  O54  1  0.86374896  0.18301526  0.16850167  1  -0.7825  0.027162  1.919215  0.036  -0.748201  0.016538  2.164541  0.024  -0.77464  0.008453  2.146475  0.013  -0.47394  -0.730321  0.022414  2.176819  0.03
O  O55  1  0.36373240  0.31700791  0.33150053  1  -0.782137  0.027114  1.920139  0.036  -0.747836  0.016519  2.165465  0.023  -0.774337  0.008446  2.147433  0.013  -0.473742  -0.72997  0.022388  2.177748  0.03
O  O56  1  0.71537400  0.18845725  0.72978303  1  -0.730823  0.067378  2.067644  0.095  -0.710581  0.041308  2.3682  0.064  -0.755155  0.029408  2.351215  0.051  -0.352066  -0.67755  0.050696  2.379653  0.074
O  O57  1  0.21535766  0.31152877  0.77022051  1  -0.730824  0.06738  2.067587  0.095  -0.710621  0.041311  2.36817  0.064  -0.755176  0.029409  2.351189  0.051  -0.352047  -0.677588  0.050689  2.379643  0.074
O  O58  1  0.28464157  0.81153431  0.27021845  1  -0.730771  0.067395  2.067636  0.095  -0.710576  0.041318  2.368271  0.064  -0.755022  0.029415  2.351141  0.051  -0.352011  -0.67754  0.050705  2.379738  0.074
O  O59  1  0.78464972  0.68846993  0.22977967  1  -0.730864  0.067371  2.067752  0.095  -0.710655  0.041304  2.368309  0.064  -0.754934  0.029407  2.351196  0.051  -0.352072  -0.677617  0.050681  2.379782  0.074
O  O60  1  0.84990156  0.98709360  0.66684315  1  -0.762  0.010198  1.937432  0.014  -0.709404  0.005361  2.164753  0.008  -0.733147  0.002504  2.147857  0.005  -0.410543  -0.69182  0.008045  2.175522  0.011
O  O61  1  0.34989089  0.51289206  0.83315585  1  -0.761839  0.010198  1.937376  0.014  -0.709256  0.00536  2.164679  0.008  -0.732998  0.002504  2.147789  0.005  -0.410516  -0.691671  0.008043  2.175447  0.011
O  O62  1  0.15010582  0.01289995  0.33314734  1  -0.761967  0.010194  1.93741  0.014  -0.70938  0.005359  2.164712  0.008  -0.733174  0.002503  2.147848  0.005  -0.410549  -0.691795  0.008042  2.175478  0.011
O  O63  1  0.65011158  0.48710463  0.16684944  1  -0.761855  0.010199  1.937386  0.014  -0.709287  0.005362  2.164676  0.008  -0.733033  0.002504  2.147773  0.005  -0.410548  -0.691698  0.008044  2.175443  0.011
O  O64  1  0.98002231  0.18974711  0.61800272  1  -0.712653  0.071838  2.061479  0.097  -0.651364  0.048117  2.306909  0.07  -0.69371  0.036319  2.2914  0.058  -0.3346  -0.622154  0.055055  2.318463  0.076
O  O65  1  0.48002519  0.31024422  0.88199705  1  -0.712701  0.071831  2.061562  0.097  -0.651429  0.048113  2.30702  0.07  -0.693791  0.036317  2.291496  0.058  -0.334614  -0.622237  0.055041  2.318583  0.076
O  O66  1  0.01998016  0.81025261  0.38199454  1  -0.712648  0.071841  2.061479  0.097  -0.651369  0.048116  2.306917  0.07  -0.693494  0.036319  2.29129  0.058  -0.334597  -0.622151  0.055053  2.318469  0.076
O  O67  1  0.51998547  0.68974836  0.11800593  1  -0.712813  0.071825  2.061772  0.097  -0.651468  0.048111  2.307171  0.07  -0.693873  0.036315  2.291705  0.058  -0.334694  -0.622272  0.055035  2.318734  0.076
O  O68  1  0.77152910  0.02810709  0.91762653  1  -0.896157  -2.4e-05  1.859611  0.003  -0.862073  -0.000632  2.044719  0.001  -0.883548  -0.001689  2.004049  0.0  -0.642696  -0.845982  0.00061  2.073952  0.003
O  O69  1  0.27153675  0.47188612  0.58237494  1  -0.896099  -2.3e-05  1.859649  0.003  -0.862035  -0.000631  2.044822  0.001  -0.883503  -0.001689  2.004205  0.0  -0.64266  -0.845928  0.000609  2.074069  0.003
O  O70  1  0.22846682  0.97189776  0.08237601  1  -0.896227  -2.5e-05  1.859464  0.003  -0.862176  -0.000632  2.044618  0.001  -0.88365  -0.00169  2.003969  0.0  -0.642755  -0.846075  0.000609  2.073858  0.003
O  O71  1  0.72845589  0.52811769  0.41762316  1  -0.896083  -2.4e-05  1.85962  0.003  -0.862032  -0.000631  2.044822  0.001  -0.883253  -0.001688  2.004197  0.0  -0.642636  -0.845929  0.00061  2.074062  0.003
O  O72  1  0.60220595  0.87189215  0.42781736  1  -0.918578  5.1e-05  1.762196  0.001  -0.878685  -0.000232  1.940448  0.0  -0.892299  -0.000435  1.908225  0.0  -0.697033  -0.868523  1.6e-05  1.96326  0.001
O  O73  1  0.10220307  0.62811604  0.07218101  1  -0.918563  4.9e-05  1.762227  0.001  -0.87867  -0.000232  1.940483  0.0  -0.892241  -0.000435  1.908159  0.0  -0.697024  -0.868504  1.9e-05  1.96329  0.001
O  O74  1  0.39780143  0.12811167  0.57218221  1  -0.918543  5.1e-05  1.762259  0.001  -0.878646  -0.000232  1.940524  0.0  -0.892234  -0.000435  1.908259  0.0  -0.697025  -0.868488  1.5e-05  1.963335  0.001
O  O75  1  0.89779939  0.37188881  0.92782079  1  -0.918579  4.8e-05  1.762228  0.001  -0.878701  -0.000232  1.940466  0.0  -0.892282  -0.000435  1.908202  0.0  -0.697058  -0.868535  1.8e-05  1.963271  0.001
O  O76  1  0.14856854  0.82064050  0.57880835  1  -0.927539  0.000415  1.739014  0.0  -0.881868  0.00033  1.905248  0.0  -0.89683  0.000141  1.871868  0.0  -0.70625  -0.870931  0.000557  1.928961  0.001
O  O77  1  0.64854810  0.67934705  0.92119160  1  -0.927448  0.000415  1.739068  0.0  -0.88176  0.00033  1.905341  0.0  -0.896712  0.000141  1.871939  0.0  -0.706241  -0.870809  0.000559  1.929085  0.001
O  O78  1  0.85143393  0.17935616  0.42119031  1  -0.927395  0.000414  1.739155  0.0  -0.88174  0.00033  1.905385  0.0  -0.896702  0.000141  1.871988  0.0  -0.706214  -0.870813  0.000555  1.929098  0.001
O  O79  1  0.35144782  0.32065370  0.07880863  1  -0.927355  0.000415  1.739171  0.0  -0.881695  0.00033  1.905419  0.0  -0.896651  0.000141  1.872025  0.0  -0.706172  -0.870761  0.000558  1.929124  0.001
