# generated using pymatgen
data_Li2H8C6N2O7
_symmetry_space_group_name_H-M   'P 1'
_cell_length_a   7.40758249
_cell_length_b   7.89942700
_cell_length_c   16.34761577
_cell_angle_alpha   90.00017925
_cell_angle_beta   89.99973412
_cell_angle_gamma   93.22977430
_symmetry_Int_Tables_number   1
_chemical_formula_structural   Li2H8C6N2O7
_chemical_formula_sum   'Li8 H32 C24 N8 O28'
_cell_volume   955.07204969
_cell_formula_units_Z   4
loop_
 _symmetry_equiv_pos_site_id
 _symmetry_equiv_pos_as_xyz
  1  'x, y, z'
loop_
 _atom_site_type_symbol
 _atom_site_label
 _atom_site_symmetry_multiplicity
 _atom_site_fract_x
 _atom_site_fract_y
 _atom_site_fract_z
 _atom_site_occupancy
 _atom_site_hle17_bader_spin_density
 _atom_site_hle17_ddec_charge
 _atom_site_hle17_ddec_spin_density
 _atom_site_hle17_ddec_sum_bond_order
 _atom_site_hle17_magmom
 _atom_site_hse06_10hf_bader_spin_density
 _atom_site_hse06_10hf_ddec_charge
 _atom_site_hse06_10hf_ddec_spin_density
 _atom_site_hse06_10hf_ddec_sum_bond_order
 _atom_site_hse06_10hf_magmom
 _atom_site_hse06_bader_spin_density
 _atom_site_hse06_ddec_charge
 _atom_site_hse06_ddec_spin_density
 _atom_site_hse06_ddec_sum_bond_order
 _atom_site_hse06_magmom
 _atom_site_pbe_bader_spin_density
 _atom_site_pbe_cm5_charge
 _atom_site_pbe_ddec_charge
 _atom_site_pbe_ddec_spin_density
 _atom_site_pbe_ddec_sum_bond_order
 _atom_site_pbe_magmom
Li  Li0  1  0.08467551  0.78353976  0.54446400  1  0  0.857697  0  0.390949  0  0  0.827814  0  0.478083  0  0  0.835174  0  0.464521  0  0  0.502122  0.822438  0  0.487872  0
Li  Li1  1  0.91532367  0.71646056  0.04446355  1  0  0.857702  0  0.390955  0  0  0.827807  0  0.478113  0  0  0.835166  0  0.464549  0  0  0.502119  0.82243  0  0.487902  0
Li  Li2  1  0.91532335  0.21645992  0.45553658  1  0  0.857693  0  0.39097  0  0  0.827796  0  0.47813  0  0  0.835156  0  0.464566  0  0  0.502122  0.822419  0  0.48792  0
Li  Li3  1  0.08467399  0.28354166  0.95553580  1  0  0.857705  0  0.390955  0  0  0.827817  0  0.4781  0  0  0.835174  0  0.464537  0  0  0.502125  0.822439  0  0.48789  0
Li  Li4  1  0.04362888  0.57895129  0.36848042  1  0  0.848743  0  0.393524  0  0  0.796769  0  0.517574  0  0  0.807756  0  0.498999  0  0  0.484815  0.788958  0  0.530703  0
Li  Li5  1  0.95637237  0.92104843  0.86848169  1  0  0.848751  0  0.393514  0  0  0.796781  0  0.51757  0  0  0.807767  0  0.498996  0  0  0.484811  0.78897  0  0.530699  0
Li  Li6  1  0.95637254  0.42104586  0.63151831  1  0  0.848756  0  0.393525  0  0  0.796787  0  0.517565  0  0  0.807773  0  0.498992  0  0  0.484814  0.788976  0  0.530695  0
Li  Li7  1  0.04362799  0.07895379  0.13152011  1  0  0.848754  0  0.393509  0  0  0.796787  0  0.517554  0  0  0.807776  0  0.498977  0  0  0.484815  0.788977  0  0.530683  0
H  H8  1  0.99156297  0.89892094  0.40899567  1  0  0.438427  0  0.863423  0  0  0.407302  0  0.927334  0  0  0.418441  0  0.911036  0  0  0.30814  0.399453  0  0.938816  0
H  H9  1  0.00843923  0.60107903  0.90899477  1  0  0.438413  0  0.863446  0  0  0.40729  0  0.927356  0  0  0.418429  0  0.911055  0  0  0.308129  0.399441  0  0.938837  0
H  H10  1  0.00843597  0.10108001  0.59100429  1  0  0.438434  0  0.863416  0  0  0.407306  0  0.927336  0  0  0.418444  0  0.911037  0  0  0.308129  0.399456  0  0.938818  0
H  H11  1  0.99156098  0.39892066  0.09100519  1  0  0.438422  0  0.863436  0  0  0.407301  0  0.927345  0  0  0.41844  0  0.911044  0  0  0.308116  0.399451  0  0.938827  0
H  H12  1  0.83462720  0.77369137  0.44433851  1  0  0.424111  0  0.861982  0  0  0.396768  0  0.928602  0  0  0.406245  0  0.914399  0  0  0.316811  0.390026  0  0.938729  0
H  H13  1  0.16537330  0.72630880  0.94433747  1  0  0.424086  0  0.862055  0  0  0.396755  0  0.928616  0  0  0.406231  0  0.914417  0  0  0.31682  0.390015  0  0.938739  0
H  H14  1  0.16537159  0.22630704  0.55566084  1  0  0.424127  0  0.861971  0  0  0.396781  0  0.928586  0  0  0.406258  0  0.914383  0  0  0.316819  0.390039  0  0.938712  0
H  H15  1  0.83462557  0.27369088  0.05566371  1  0  0.424131  0  0.862008  0  0  0.396806  0  0.928541  0  0  0.406281  0  0.914344  0  0  0.31684  0.390066  0  0.938665  0
H  H16  1  0.28344332  0.58213731  0.62063743  1  0  0.402679  0  0.908466  0  0  0.362532  0  0.98746  0  0  0.373276  0  0.971906  0  0  0.294718  0.354992  0  0.998356  0
H  H17  1  0.71655639  0.91786219  0.12063771  1  0  0.402666  0  0.908481  0  0  0.362516  0  0.987479  0  0  0.37326  0  0.971925  0  0  0.294715  0.354976  0  0.998376  0
H  H18  1  0.71655555  0.41786237  0.37936314  1  0  0.402677  0  0.908472  0  0  0.362528  0  0.98747  0  0  0.373271  0  0.971916  0  0  0.294713  0.354988  0  0.998366  0
H  H19  1  0.28344254  0.08213875  0.87936286  1  0  0.402688  0  0.908455  0  0  0.362542  0  0.987448  0  0  0.373285  0  0.971894  0  0  0.294723  0.355002  0  0.998344  0
H  H20  1  0.20797205  0.51587899  0.53285402  1  0  0.42198  0  0.884692  0  0  0.393336  0  0.944862  0  0  0.404534  0  0.928431  0  0  0.306078  0.385435  0  0.956452  0
H  H21  1  0.79202725  0.98412126  0.03285302  1  0  0.421991  0  0.884678  0  0  0.393326  0  0.944878  0  0  0.404524  0  0.928447  0  0  0.30609  0.385427  0  0.956465  0
H  H22  1  0.79202952  0.48412070  0.46714716  1  0  0.422042  0  0.884603  0  0  0.393334  0  0.944866  0  0  0.404531  0  0.928435  0  0  0.306086  0.385435  0  0.956454  0
H  H23  1  0.20797176  0.01588096  0.96714755  1  0  0.422057  0  0.884576  0  0  0.393351  0  0.944834  0  0  0.404548  0  0.928403  0  0  0.306093  0.385453  0  0.956419  0
H  H24  1  0.32404554  0.02288996  0.50136392  1  0  0.421525  0  0.884077  0  0  0.393124  0  0.944335  0  0  0.402263  0  0.930882  0  0  0.299941  0.386697  0  0.9538  0
H  H25  1  0.67595357  0.47710891  0.00136315  1  0  0.421534  0  0.884079  0  0  0.39314  0  0.944328  0  0  0.402279  0  0.930876  0  0  0.299947  0.386714  0  0.953791  0
H  H26  1  0.67595467  0.97710973  0.49863665  1  0  0.421537  0  0.88407  0  0  0.393139  0  0.944324  0  0  0.402279  0  0.930871  0  0  0.299945  0.386713  0  0.953789  0
H  H27  1  0.32404408  0.52289330  0.99863742  1  0  0.421488  0  0.884135  0  0  0.393091  0  0.944388  0  0  0.402231  0  0.930934  0  0  0.299925  0.386665  0  0.953851  0
H  H28  1  0.41749135  0.85788185  0.53122385  1  0  0.418743  0  0.893736  0  0  0.387059  0  0.959912  0  0  0.397312  0  0.944823  0  0  0.291085  0.379855  0  0.9705  0
H  H29  1  0.58251067  0.64211839  0.03122461  1  0  0.418767  0  0.893711  0  0  0.387082  0  0.959889  0  0  0.397335  0  0.944802  0  0  0.291086  0.379878  0  0.97048  0
H  H30  1  0.58250887  0.14211783  0.46877672  1  0  0.418735  0  0.893746  0  0  0.387045  0  0.95993  0  0  0.397298  0  0.944841  0  0  0.29108  0.379841  0  0.970518  0
H  H31  1  0.41748557  0.35788255  0.96877535  1  0  0.418758  0  0.893722  0  0  0.387067  0  0.959912  0  0  0.39732  0  0.944825  0  0  0.291101  0.379861  0  0.970504  0
H  H32  1  0.52126651  0.70384368  0.89143701  1  0  0.098065  0  0.956836  0  0  0.102671  0  1.024038  0  0  0.107123  0  1.020076  0  0  0.123903  0.099395  0  1.027094  0
H  H33  1  0.47873408  0.79614857  0.39143761  1  0  0.098044  0  0.956861  0  0  0.102666  0  1.024038  0  0  0.107121  0  1.020074  0  0  0.123879  0.099388  0  1.027097  0
H  H34  1  0.47873363  0.29615473  0.10856356  1  0  0.098077  0  0.956861  0  0  0.102678  0  1.024067  0  0  0.107129  0  1.020105  0  0  0.123905  0.0994  0  1.027125  0
H  H35  1  0.52126705  0.20384351  0.60856174  1  0  0.098026  0  0.956863  0  0  0.102639  0  1.024062  0  0  0.107091  0  1.0201  0  0  0.123882  0.099362  0  1.027119  0
H  H36  1  0.29119185  0.58500670  0.78657783  1  0  0.108356  0  0.943718  0  0  0.112886  0  1.00847  0  0  0.117532  0  1.004114  0  0  0.129828  0.10944  0  1.011783  0
H  H37  1  0.70881269  0.91498873  0.28657751  1  0  0.108421  0  0.943765  0  0  0.112951  0  1.008501  0  0  0.117598  0  1.004145  0  0  0.129857  0.109505  0  1.011815  0
H  H38  1  0.70881121  0.41499552  0.21342213  1  0  0.108333  0  0.943734  0  0  0.112856  0  1.008487  0  0  0.117502  0  1.004129  0  0  0.129813  0.109409  0  1.011801  0
H  H39  1  0.29118851  0.08500461  0.71342122  1  0  0.108385  0  0.943708  0  0  0.112913  0  1.008457  0  0  0.11756  0  1.004101  0  0  0.129842  0.109466  0  1.011771  0
C  C40  1  0.91393098  0.89014601  0.69662912  1  0  0.666011  0  3.916855  0  0  0.613905  0  4.21952  0  0  0.64716  0  4.210689  0  0  0.235095  0.591465  0  4.224775  0
C  C41  1  0.08606941  0.60985522  0.19663027  1  0  0.665878  0  3.917105  0  0  0.613887  0  4.219585  0  0  0.647142  0  4.210752  0  0  0.235119  0.59145  0  4.224844  0
C  C42  1  0.08607059  0.10985368  0.30337206  1  0  0.666014  0  3.916931  0  0  0.613923  0  4.219561  0  0  0.647179  0  4.210728  0  0  0.23515  0.591483  0  4.224822  0
C  C43  1  0.91392953  0.39014573  0.80336969  1  0  0.665972  0  3.917019  0  0  0.6139  0  4.219636  0  0  0.647154  0  4.210802  0  0  0.235091  0.591462  0  4.224891  0
C  C44  1  0.74590310  0.78412015  0.72203843  1  0  0.025758  0  3.722115  0  0  0.026438  0  3.974062  0  0  0.02303  0  3.992672  0  0  0.130356  0.028273  0  3.96201  0
C  C45  1  0.25409696  0.71587997  0.22203938  1  0  0.025856  0  3.722164  0  0  0.026515  0  3.974105  0  0  0.023107  0  3.992717  0  0  0.130381  0.028347  0  3.962057  0
C  C46  1  0.25409847  0.21587954  0.27796153  1  0  0.025796  0  3.721988  0  0  0.026448  0  3.973941  0  0  0.02304  0  3.992549  0  0  0.130332  0.028282  0  3.961894  0
C  C47  1  0.74590183  0.28411844  0.77795936  1  0  0.025841  0  3.722  0  0  0.02649  0  3.973983  0  0  0.023084  0  3.992592  0  0  0.130333  0.028321  0  3.961931  0
C  C48  1  0.55022350  0.70608464  0.82609840  1  0  0.082829  0  3.666927  0  0  0.054343  0  3.936904  0  0  0.05571  0  3.95146  0  0  0.060828  0.053094  0  3.927391  0
C  C49  1  0.44977531  0.79391229  0.32609967  1  0  0.082867  0  3.666988  0  0  0.054379  0  3.936945  0  0  0.055745  0  3.951501  0  0  0.060813  0.05313  0  3.927434  0
C  C50  1  0.44977550  0.29391758  0.17390156  1  0  0.08279  0  3.667022  0  0  0.054305  0  3.936976  0  0  0.055672  0  3.951533  0  0  0.060836  0.053056  0  3.927465  0
C  C51  1  0.55022468  0.20608359  0.67389968  1  0  0.082884  0  3.666917  0  0  0.054385  0  3.936889  0  0  0.055752  0  3.951445  0  0  0.060835  0.053135  0  3.927375  0
C  C52  1  0.42522345  0.63815763  0.76911953  1  0  0.094523  0  3.630776  0  0  0.065414  0  3.888547  0  0  0.069009  0  3.903309  0  0  0.069065  0.063096  0  3.878682  0
C  C53  1  0.57477742  0.86184150  0.26912064  1  0  0.094366  0  3.630971  0  0  0.065244  0  3.888743  0  0  0.068837  0  3.903505  0  0  0.068992  0.062928  0  3.878879  0
C  C54  1  0.57477698  0.36184586  0.23087982  1  0  0.094529  0  3.630866  0  0  0.065443  0  3.888606  0  0  0.069037  0  3.90337  0  0  0.069069  0.063127  0  3.878742  0
C  C55  1  0.42522272  0.13815691  0.73087871  1  0  0.094423  0  3.630838  0  0  0.065316  0  3.888613  0  0  0.06891  0  3.903377  0  0  0.069017  0.063  0  3.878745  0
C  C56  1  0.62800895  0.70167338  0.66528404  1  0  0.068148  0  3.677121  0  0  0.06296  0  3.93069  0  0  0.064462  0  3.946021  0  0  0.141366  0.061614  0  3.920883  0
C  C57  1  0.37199189  0.79833020  0.16528609  1  0  0.06826  0  3.677013  0  0  0.062993  0  3.930654  0  0  0.064493  0  3.945986  0  0  0.141392  0.06165  0  3.92085  0
C  C58  1  0.37199404  0.29832758  0.33471592  1  0  0.068203  0  3.676964  0  0  0.063065  0  3.930503  0  0  0.064567  0  3.945834  0  0  0.141419  0.06172  0  3.920702  0
C  C59  1  0.62800705  0.20167075  0.83471387  1  0  0.068211  0  3.67699  0  0  0.062983  0  3.930644  0  0  0.064483  0  3.945976  0  0  0.141374  0.061638  0  3.920837  0
C  C60  1  0.67998167  0.67164734  0.57714879  1  0  0.67559  0  3.901208  0  0  0.611034  0  4.217704  0  0  0.646453  0  4.204808  0  0  0.241861  0.586819  0  4.225974  0
C  C61  1  0.32002003  0.82835571  0.07715160  1  0  0.675529  0  3.901159  0  0  0.611046  0  4.217584  0  0  0.646463  0  4.204685  0  0  0.24183  0.586827  0  4.225861  0
C  C62  1  0.32001854  0.32835234  0.42284995  1  0  0.675515  0  3.901218  0  0  0.610895  0  4.217799  0  0  0.646313  0  4.204905  0  0  0.241796  0.586676  0  4.226074  0
C  C63  1  0.67998138  0.17164144  0.92284775  1  0  0.675465  0  3.901281  0  0  0.61092  0  4.217803  0  0  0.646337  0  4.204906  0  0  0.24177  0.586703  0  4.226076  0
N  N64  1  0.70800326  0.78113700  0.80222325  1  0  -0.294015  0  3.141108  0  0  -0.263956  0  3.411344  0  0  -0.269134  0  3.426485  0  0  -0.300959  -0.260148  0  3.401292  0
N  N65  1  0.29199444  0.71885978  0.30222412  1  0  -0.294046  0  3.141182  0  0  -0.263988  0  3.411416  0  0  -0.269167  0  3.426556  0  0  -0.300927  -0.260179  0  3.401367  0
N  N66  1  0.29199695  0.21886268  0.19777671  1  0  -0.294047  0  3.14112  0  0  -0.263984  0  3.411353  0  0  -0.269161  0  3.426492  0  0  -0.300972  -0.260179  0  3.40131  0
N  N67  1  0.70800293  0.28113736  0.69777523  1  0  -0.294049  0  3.141089  0  0  -0.263958  0  3.411301  0  0  -0.269137  0  3.426439  0  0  -0.30093  -0.26015  0  3.401253  0
N  N68  1  0.46575579  0.63402680  0.68910965  1  0  -0.271212  0  3.106587  0  0  -0.221047  0  3.3509  0  0  -0.231086  0  3.365618  0  0  -0.272596  -0.214202  0  3.341097  0
N  N69  1  0.53424339  0.86597565  0.18911146  1  0  -0.271209  0  3.106628  0  0  -0.221009  0  3.350947  0  0  -0.231046  0  3.365665  0  0  -0.272579  -0.214165  0  3.341146  0
N  N70  1  0.53424712  0.36597289  0.31089031  1  0  -0.271196  0  3.106579  0  0  -0.221058  0  3.350881  0  0  -0.231098  0  3.365601  0  0  -0.27261  -0.214213  0  3.341081  0
N  N71  1  0.46575420  0.13402530  0.81088850  1  0  -0.271194  0  3.106581  0  0  -0.221012  0  3.350911  0  0  -0.231051  0  3.365631  0  0  -0.272565  -0.214168  0  3.341106  0
O  O72  1  0.01065877  0.95821009  0.75187794  1  0  -0.656239  0  1.930719  0  0  -0.613945  0  2.16035  0  0  -0.635858  0  2.14939  0  0  -0.354484  -0.598691  0  2.167369  0
O  O73  1  0.98934242  0.54179147  0.25187708  1  0  -0.656239  0  1.930903  0  0  -0.613976  0  2.160467  0  0  -0.63589  0  2.149504  0  0  -0.354535  -0.598719  0  2.16748  0
O  O74  1  0.98934294  0.04179213  0.24812324  1  0  -0.6563  0  1.930777  0  0  -0.614009  0  2.160395  0  0  -0.635924  0  2.149434  0  0  -0.354558  -0.598747  0  2.167401  0
O  O75  1  0.01065644  0.45820821  0.74812227  1  0  -0.656285  0  1.930892  0  0  -0.613997  0  2.160501  0  0  -0.635911  0  2.14954  0  0  -0.35452  -0.598742  0  2.167517  0
O  O76  1  0.93767976  0.90737184  0.61941174  1  0  -0.718781  0  2.01605  0  0  -0.661744  0  2.244553  0  0  -0.686971  0  2.233894  0  0  -0.371602  -0.643943  0  2.251298  0
O  O77  1  0.06232281  0.59263020  0.11941168  1  0  -0.718716  0  2.016034  0  0  -0.661723  0  2.2445  0  0  -0.686952  0  2.233841  0  0  -0.371607  -0.643922  0  2.251246  0
O  O78  1  0.06232060  0.09263038  0.38058945  1  0  -0.718735  0  2.016106  0  0  -0.661707  0  2.2446  0  0  -0.686934  0  2.233944  0  0  -0.37159  -0.643905  0  2.251347  0
O  O79  1  0.93768018  0.40737076  0.88058706  1  0  -0.718773  0  2.016088  0  0  -0.661752  0  2.244608  0  0  -0.686979  0  2.233949  0  0  -0.3716  -0.643951  0  2.251353  0
O  O80  1  0.78590090  0.55377072  0.56595062  1  0  -0.675311  0  2.025556  0  0  -0.620797  0  2.266979  0  0  -0.646486  0  2.255489  0  0  -0.326556  -0.60269  0  2.27441  0
O  O81  1  0.21410070  0.94622846  0.06595262  1  0  -0.675293  0  2.025591  0  0  -0.620807  0  2.26702  0  0  -0.646495  0  2.255526  0  0  -0.326539  -0.602701  0  2.274454  0
O  O82  1  0.21409932  0.44622896  0.43404812  1  0  -0.675262  0  2.02553  0  0  -0.620768  0  2.267002  0  0  -0.646457  0  2.255512  0  0  -0.32656  -0.602659  0  2.274435  0
O  O83  1  0.78589696  0.05377375  0.93404857  1  0  -0.67518  0  2.025777  0  0  -0.62069  0  2.267238  0  0  -0.646376  0  2.255748  0  0  -0.326472  -0.602585  0  2.274671  0
O  O84  1  0.61170105  0.75640140  0.51993385  1  0  -0.654498  0  2.025968  0  0  -0.585931  0  2.244327  0  0  -0.612403  0  2.231791  0  0  -0.299088  -0.567286  0  2.252528  0
O  O85  1  0.38830947  0.74360387  0.01993639  1  0  -0.654463  0  2.025756  0  0  -0.585937  0  2.244087  0  0  -0.61241  0  2.231553  0  0  -0.299076  -0.567289  0  2.252286  0
O  O86  1  0.38829909  0.24359702  0.48006489  1  0  -0.654489  0  2.025994  0  0  -0.585863  0  2.244342  0  0  -0.612337  0  2.231809  0  0  -0.299035  -0.567214  0  2.25254  0
O  O87  1  0.61168549  0.25639833  0.98006234  1  0  -0.654468  0  2.025648  0  0  -0.585923  0  2.244019  0  0  -0.612394  0  2.231484  0  0  -0.299079  -0.567273  0  2.252214  0
O  O88  1  0.96503552  0.78285386  0.43317283  1  0  -0.931895  0  1.813673  0  0  -0.886936  0  1.997824  0  0  -0.901904  0  1.964004  0  0  -0.658647  -0.876499  0  2.02161  0
O  O89  1  0.03496508  0.71714624  0.93317389  1  0  -0.931857  0  1.813797  0  0  -0.886896  0  1.997919  0  0  -0.901864  0  1.9641  0  0  -0.658647  -0.87646  0  2.021704  0
O  O90  1  0.03496476  0.21714709  0.56682713  1  0  -0.931907  0  1.813653  0  0  -0.886942  0  1.997804  0  0  -0.901911  0  1.963985  0  0  -0.65865  -0.876506  0  2.021591  0
O  O91  1  0.96503378  0.28285344  0.06682729  1  0  -0.931895  0  1.813744  0  0  -0.88694  0  1.997845  0  0  -0.901908  0  1.964024  0  0  -0.658645  -0.876505  0  2.021632  0
O  O92  1  0.17275173  0.56879337  0.58550153  1  0  -0.934356  0  1.852482  0  0  -0.883857  0  2.037188  0  0  -0.899993  0  2.003316  0  0  -0.675319  -0.872469  0  2.060818  0
O  O93  1  0.82724712  0.93120846  0.08550099  1  0  -0.934363  0  1.852497  0  0  -0.883829  0  2.037211  0  0  -0.899966  0  2.003335  0  0  -0.675318  -0.872441  0  2.06084  0
O  O94  1  0.82724706  0.43120504  0.41449965  1  0  -0.934419  0  1.852419  0  0  -0.883837  0  2.037167  0  0  -0.899971  0  2.003295  0  0  -0.675324  -0.872449  0  2.060796  0
O  O95  1  0.17275189  0.06879376  0.91449959  1  0  -0.934439  0  1.852397  0  0  -0.883874  0  2.037166  0  0  -0.900008  0  2.003292  0  0  -0.675334  -0.872487  0  2.060794  0
O  O96  1  0.30261503  0.91682846  0.53198804  1  0  -0.916899  0  1.790799  0  0  -0.876161  0  1.963853  0  0  -0.891659  0  1.93307  0  0  -0.676741  -0.865145  0  1.985332  0
O  O97  1  0.69738541  0.58316798  0.03198847  1  0  -0.916956  0  1.790798  0  0  -0.876205  0  1.963832  0  0  -0.891702  0  1.933049  0  0  -0.676747  -0.86519  0  1.985314  0
O  O98  1  0.69738383  0.08317122  0.46801192  1  0  -0.916901  0  1.790816  0  0  -0.876165  0  1.963878  0  0  -0.891663  0  1.933093  0  0  -0.676739  -0.865149  0  1.985356  0
O  O99  1  0.30261210  0.41683169  0.96801210  1  0  -0.9169  0  1.790834  0  0  -0.876145  0  1.963864  0  0  -0.891642  0  1.933082  0  0  -0.676749  -0.865128  0  1.985345  0
