# generated using pymatgen
data_Zn4H50C53N4O23
_symmetry_space_group_name_H-M   'P 1'
_cell_length_a   10.75443394
_cell_length_b   19.16903439
_cell_length_c   19.22242718
_cell_angle_alpha   94.38345359
_cell_angle_beta   92.48683666
_cell_angle_gamma   97.21313959
_symmetry_Int_Tables_number   1
_chemical_formula_structural   Zn4H50C53N4O23
_chemical_formula_sum   'Zn4 H50 C53 N4 O23'
_cell_volume   3914.25502764
_cell_formula_units_Z   1
loop_
 _symmetry_equiv_pos_site_id
 _symmetry_equiv_pos_as_xyz
  1  'x, y, z'
loop_
 _atom_site_type_symbol
 _atom_site_label
 _atom_site_symmetry_multiplicity
 _atom_site_fract_x
 _atom_site_fract_y
 _atom_site_fract_z
 _atom_site_occupancy
 _atom_site_pbe_bader_charge
 _atom_site_pbe_bader_spin_density
 _atom_site_pbe_cm5_charge
 _atom_site_pbe_ddec_charge
 _atom_site_pbe_ddec_spin_density
 _atom_site_pbe_ddec_sum_bond_order
 _atom_site_pbe_magmom
Zn  Zn0  1  0.39899372  0.43469893  0.43180979  1  1.312434  0  0.676732  0.961606  0  2.378984  0
Zn  Zn1  1  0.61565642  0.56246688  0.45016999  1  1.314038  0  0.674679  0.964777  0  2.39348  0
Zn  Zn2  1  0.59372005  0.44654394  0.56428806  1  1.312376  0  0.679234  0.961804  0  2.377813  0
Zn  Zn3  1  0.39999183  0.55717502  0.55942375  1  1.31818  0  0.68237  0.976623  0  2.346619  0
H  H4  1  0.38447405  0.40648847  0.21231510  1  0.104212  0  0.10762  0.114644  0  0.99074  0
H  H5  1  0.89163846  0.47180012  0.39158242  1  0.036077  0  0.097715  0.097784  0  0.972118  0
H  H6  1  0.59996448  0.28610224  0.35608026  1  0.038606  0  0.084782  0.118581  0  1.011896  0
H  H7  1  0.76376474  0.28811568  0.34556909  1  0.023005  0  0.087489  0.115809  0  1.017815  0
H  H8  1  0.66180127  0.20743519  0.32857825  1  0.021535  0  0.08994  0.124354  0  0.995085  0
H  H9  1  0.72296901  0.29018436  0.47290879  1  0.065484  0  0.095157  0.098209  0  1.002453  0
H  H10  1  0.78229721  0.21200603  0.44482323  1  0.043216  0  0.090957  0.090437  0  1.008805  0
H  H11  1  0.16003274  0.35635483  0.83925157  1  0.023486  0  0.085267  0.111829  0  1.024221  0
H  H12  1  0.23811986  0.35202219  0.92176954  1  0.030195  0  0.08585  0.112511  0  1.004291  0
H  H13  1  0.07911172  0.36918423  0.91695700  1  0.007596  0  0.084635  0.11112  0  1.000998  0
H  H14  1  0.22539500  0.47961640  0.95293466  1  0.046168  0  0.094738  0.08733  0  1.01254  0
H  H15  1  0.38805445  0.41436768  0.08206760  1  0.095161  0  0.108807  0.11216  0  1.007428  0
H  H16  1  0.14480339  0.48673295  0.87258054  1  0.045863  0  0.094341  0.088861  0  0.989848  0
H  H17  1  0.14429941  0.38801648  0.66155830  1  0.01541  0  0.084648  0.115261  0  1.001815  0
H  H18  1  0.30979291  0.39467565  0.66414658  1  0.059563  0  0.083895  0.120574  0  1.026959  0
H  H19  1  0.22698256  0.35055301  0.72851747  1  0.016678  0  0.082977  0.108317  0  1.014875  0
H  H20  1  0.14930033  0.46420419  0.77243935  1  0.035112  0  0.092687  0.086231  0  1.011269  0
H  H21  1  0.23338589  0.50936114  0.70946592  1  0.06169  0  0.093897  0.098618  0  0.992709  0
H  H22  1  0.78962950  0.45765579  0.97945020  1  0.613774  0  0.341191  0.37821  0  0.856623  0
H  H23  1  0.70376247  0.69892301  0.19522034  1  0.023785  0  0.085785  0.110129  0  1.002853  0
H  H24  1  0.82582128  0.64473068  0.18782034  1  0.014347  0  0.084369  0.108197  0  1.003768  0
H  H25  1  0.81493705  0.71217030  0.13043169  1  0.020822  0  0.091248  0.120726  0  0.993757  0
H  H26  1  0.65251624  0.59320210  0.24392249  1  0.122613  0  0.105924  0.116856  0  1.019495  0
H  H27  1  0.73487352  0.59805038  0.06531787  1  0.090772  0  0.096978  0.103853  0  0.996574  0
H  H28  1  0.61444400  0.64968060  0.07485480  1  0.055033  0  0.100852  0.101443  0  0.958141  0
H  H29  1  0.74110241  0.43110476  0.73155974  1  0.045178  0  0.08456  0.120471  0  1.012484  0
H  H30  1  0.87831783  0.49337372  0.74913588  1  0.035726  0  0.084559  0.112362  0  1.002669  0
H  H31  1  0.80687552  0.44981514  0.81840377  1  0.024333  0  0.080601  0.108215  0  1.024284  0
H  H32  1  0.69103054  0.55574251  0.73018503  1  0.027319  0  0.093189  0.091822  0  0.988683  0
H  H33  1  0.75745298  0.57567124  0.81567480  1  0.085518  0  0.098212  0.107713  0  0.983783  0
H  H34  1  0.12660477  0.75408016  0.43319915  1  0.615892  0  0.34824  0.384879  0  0.850735  0
H  H35  1  0.13369121  0.07961938  0.42038432  1  0.052074  0  0.083647  0.114738  0  1.015942  0
H  H36  1  0.21745853  0.00554464  0.42439883  1  0.038072  0  0.087761  0.116264  0  1.01167  0
H  H37  1  0.02928307  0.54624512  0.56769678  1  0.136422  0  0.120016  0.151715  0  0.982763  0
H  H38  1  0.07663788  0.00758916  0.46915834  1  0.01663  0  0.085078  0.111927  0  1.002062  0
H  H39  1  0.26267308  0.03500810  0.55306297  1  0.054957  0  0.098547  0.094819  0  0.991177  0
H  H40  1  0.18006607  0.10892066  0.55032165  1  0.012704  0  0.092341  0.090286  0  0.991568  0
H  H41  1  0.09228464  0.24183133  0.49681331  1  0.625955  0  0.349488  0.383036  0  0.846497  0
H  H42  1  0.90486843  0.75681740  0.54311568  1  0.6146  0  0.349059  0.384391  0  0.847755  0
H  H43  1  0.85026721  0.07465722  0.45475146  1  0.607111  0  0.340776  0.381121  0  0.856407  0
H  H44  1  0.67654785  0.98693797  0.63717437  1  0.004756  0  0.089446  0.117792  0  1.002464  0
H  H45  1  0.74165610  0.91122960  0.66256574  1  0.045615  0  0.089337  0.118968  0  0.998065  0
H  H46  1  0.84206486  0.98970323  0.64907866  1  0.033018  0  0.090891  0.121039  0  0.990582  0
H  H47  1  0.84491165  0.90363390  0.54516255  1  0.057791  0  0.09264  0.096452  0  1.007543  0
H  H48  1  0.34625634  0.89611008  0.46288899  1  0.129693  0  0.116511  0.12162  0  1.015399  0
H  H49  1  0.77195738  0.97749591  0.52227065  1  0.06998  0  0.093673  0.086481  0  1.044035  0
H  H50  1  0.08199862  0.43428669  0.33053848  1  0.050262  0  0.089011  0.123969  0  0.996443  0
H  H51  1  0.06449433  0.35593741  0.37396931  1  0.039952  0  0.083628  0.115707  0  1.01393  0
H  H52  1  0.94167472  0.37445701  0.31592717  1  0.001884  0  0.082646  0.103011  0  1.019305  0
H  H53  1  0.88495443  0.39658689  0.43819390  1  0.010721  0  0.091825  0.084047  0  0.981566  0
C  C54  1  0.51329315  0.68856884  0.50796137  1  1.648083  0  0.230667  0.612885  0  4.202502  0
C  C55  1  0.51958204  0.76727383  0.50680586  1  -0.02991  0  0.018965  -0.01882  0  3.874188  0
C  C56  1  0.63333464  0.80970589  0.52742956  1  -0.007049  0  -0.000291  -0.097415  0  3.884482  0
C  C57  1  0.49156560  0.31086457  0.48685741  1  1.565276  0  0.234391  0.618558  0  4.179232  0
C  C58  1  0.64535791  0.88355569  0.52564416  1  0.100187  0  0.026653  0.086989  0  3.833263  0
C  C59  1  0.46914448  0.49795611  0.76706469  1  -0.027793  0  -0.005828  -0.124951  0  3.891047  0
C  C60  1  0.58075609  0.51107975  0.81004003  1  0.045538  0  0.008625  0.101061  0  3.899108  0
C  C61  1  0.57099534  0.50398287  0.88168344  1  -0.02989  0  -0.004893  -0.136617  0  3.906573  0
C  C62  1  0.45164788  0.48736843  0.90885976  1  0.404728  0  0.094309  0.093917  0  4.025303  0
C  C63  1  0.34032450  0.47554438  0.86531781  1  -0.004509  0  0.006556  0.023629  0  3.862953  0
C  C64  1  0.34934412  0.48020115  0.79294642  1  0.025478  0  0.002844  0.064326  0  3.885363  0
C  C65  1  0.58672831  0.19823825  0.46587070  1  0.06839  0  0.00913  0.093986  0  3.885209  0
C  C66  1  0.44417595  0.45345609  0.11855518  1  -0.003392  0  -0.084497  -0.143174  0  3.98524  0
C  C67  1  0.44276820  0.44898231  0.19010978  1  -0.039747  0  -0.085621  -0.092195  0  3.996483  0
C  C68  1  0.51999555  0.50907293  0.09130110  1  0.335384  0  0.092284  0.114819  0  4.01211  0
C  C69  1  0.51767735  0.49669707  0.31201036  1  1.560948  0  0.227  0.6045  0  4.163479  0
C  C70  1  0.51865038  0.49993936  0.23493187  1  -0.057774  0  -0.017422  -0.033867  0  3.994709  0
C  C71  1  0.59523650  0.55475701  0.20743447  1  -0.030353  0  -0.086136  -0.151399  0  3.938419  0
C  C72  1  0.59778567  0.56083599  0.13566819  1  -0.005692  0  0.008312  0.072431  0  3.892388  0
C  C73  1  0.48064564  0.50102762  0.68980817  1  1.555151  0  0.237719  0.624439  0  4.160631  0
C  C74  1  0.83529794  0.51676894  0.52242438  1  1.547495  0  0.23338  0.667989  0  4.166622  0
C  C75  1  0.16859346  0.48311390  0.48466076  1  1.571499  0  0.233675  0.609875  0  4.156175  0
C  C76  1  0.57658945  0.12473741  0.46741132  1  -0.004105  0  0.005066  -0.11466  0  3.879275  0
C  C77  1  0.02908202  0.47930496  0.47481596  1  0.051448  0  -0.013522  -0.012787  0  3.880269  0
C  C78  1  0.97337761  0.51647190  0.52397443  1  -0.083611  0  -0.078123  -0.240674  0  3.861687  0
C  C79  1  0.48229611  0.23174680  0.48475704  1  0.019921  0  0.008211  -0.065222  0  3.880655  0
C  C80  1  0.95103933  0.43589797  0.41484818  1  0.016658  0  -0.15788  -0.113646  0  3.951051  0
C  C81  1  0.01432787  0.39806411  0.35581135  1  -0.048176  0  -0.248661  -0.353131  0  3.985751  0
C  C82  1  0.70078249  0.24065193  0.43953072  1  -0.030612  0  -0.167817  -0.158831  0  3.971114  0
C  C83  1  0.68014027  0.25651031  0.36291943  1  -0.040935  0  -0.240954  -0.349202  0  3.93216  0
C  C84  1  0.21567197  0.45903811  0.89792462  1  -0.027196  0  -0.163439  -0.14634  0  3.995689  0
C  C85  1  0.17040422  0.37953044  0.89356898  1  -0.038458  0  -0.239272  -0.3434  0  3.955767  0
C  C86  1  0.23448975  0.46549895  0.74300140  1  -0.026551  0  -0.165943  -0.153374  0  3.973103  0
C  C87  1  0.46448655  0.08642308  0.48760666  1  0.376701  0  0.096725  0.089508  0  4.007979  0
C  C88  1  0.22889650  0.39597869  0.69681327  1  -0.066113  0  -0.247445  -0.350137  0  3.948301  0
C  C89  1  0.68875712  0.51167944  0.92789599  1  1.529406  0  0.231924  0.580917  0  4.163415  0
C  C90  1  0.67712903  0.62052006  0.10507662  1  -0.025359  0  -0.158968  -0.148357  0  3.98467  0
C  C91  1  0.75962928  0.67171148  0.15777987  1  -0.061166  0  -0.24174  -0.347152  0  3.987353  0
C  C92  1  0.70639708  0.53303494  0.78013336  1  -0.013982  0  -0.164332  -0.152098  0  3.960512  0
C  C93  1  0.78777895  0.47314292  0.76922726  1  -0.078416  0  -0.244539  -0.343612  0  3.94586  0
C  C94  1  0.29926621  0.75262657  0.45408531  1  1.513315  0  0.234086  0.580396  0  4.11487  0
C  C95  1  0.23775384  0.07579130  0.51989733  1  0.033984  0  -0.162116  -0.149778  0  3.986786  0
C  C96  1  0.16154102  0.04014977  0.45441467  1  -0.06321  0  -0.242497  -0.345851  0  3.952512  0
C  C97  1  0.26271370  0.23469148  0.51770324  1  1.52294  0  0.235193  0.58255  0  4.120401  0
C  C98  1  0.35683959  0.11967019  0.50167024  1  0.044379  0  0.018862  0.07208  0  3.857696  0
C  C99  1  0.73782816  0.77269079  0.55529385  1  1.5305  0  0.234743  0.589042  0  4.111506  0
C  C100  1  0.68018654  0.08691097  0.43892757  1  1.534841  0  0.231971  0.577809  0  4.171121  0
C  C101  1  0.76237955  0.93105871  0.55249620  1  -0.025344  0  -0.169026  -0.166969  0  3.988991  0
C  C102  1  0.75515042  0.95604151  0.63004773  1  -0.036935  0  -0.238967  -0.342699  0  3.938449  0
C  C103  1  0.36777633  0.19322928  0.49968643  1  -0.069674  0  -0.005048  -0.10231  0  3.930479  0
C  C104  1  0.42514538  0.87107426  0.48178219  1  0.044414  0  -0.063069  -0.129568  0  3.919938  0
C  C105  1  0.41511908  0.79813919  0.48316884  1  0.017356  0  -0.009229  -0.053407  0  3.973297  0
C  C106  1  0.53832802  0.91340098  0.50269465  1  0.265265  0  0.094051  0.107388  0  4.006938  0
N  N107  1  0.45061691  0.01358568  0.49447753  1  -0.48303  0  -0.135809  -0.107288  0  3.306027  0
N  N108  1  0.55252136  0.98731836  0.50001878  1  -0.446095  0  -0.128048  -0.091859  0  3.296542  0
N  N109  1  0.43636391  0.48289324  0.98065528  1  -0.470605  0  -0.138513  -0.109286  0  3.294349  0
N  N110  1  0.52649480  0.51598914  0.01926151  1  -0.508925  0  -0.132372  -0.100919  0  3.336845  0
O  O111  1  0.50181897  0.49991083  0.50140981  1  -1.238116  0  -0.573219  -1.028832  0  2.540964  0
O  O112  1  0.79067853  0.55785899  0.48170788  1  -1.161706  0  -0.312253  -0.548327  0  2.30775  0
O  O113  1  0.22319071  0.52845568  0.53199889  1  -1.180864  0  -0.318739  -0.556806  0  2.368475  0
O  O114  1  0.77542098  0.47549896  0.56186147  1  -1.157968  0  -0.309904  -0.542089  0  2.29472  0
O  O115  1  0.22203593  0.44063153  0.44539321  1  -1.175338  0  -0.306011  -0.530399  0  2.384988  0
O  O116  1  0.76500698  0.56477929  0.93831476  1  -1.14998  0  -0.294889  -0.498965  0  2.104765  0
O  O117  1  0.71096918  0.44804344  0.95065712  1  -1.119745  0  -0.349254  -0.500651  0  2.213797  0
O  O118  1  0.29510833  0.69187854  0.42891166  1  -1.134685  0  -0.284427  -0.473183  0  2.079469  0
O  O119  1  0.19545594  0.78704067  0.45664022  1  -1.111313  0  -0.340487  -0.488522  0  2.202101  0
O  O120  1  0.27365790  0.28643805  0.55971868  1  -1.125763  0  -0.271124  -0.468526  0  2.109765  0
O  O121  1  0.15240599  0.21015763  0.48125979  1  -1.116737  0  -0.32631  -0.474582  0  2.231518  0
O  O122  1  0.43428875  0.45200541  0.33515212  1  -1.172711  0  -0.315259  -0.54776  0  2.339234  0
O  O123  1  0.72774267  0.73505865  0.60365059  1  -1.12391  0  -0.284249  -0.471721  0  2.048999  0
O  O124  1  0.84531957  0.78400179  0.52056700  1  -1.105698  0  -0.332289  -0.480299  0  2.215583  0
O  O125  1  0.67389361  0.05624226  0.38062307  1  -1.124071  0  -0.295654  -0.480601  0  2.04642  0
O  O126  1  0.78765616  0.09720085  0.48103427  1  -1.107033  0  -0.335727  -0.493653  0  2.242445  0
O  O127  1  0.42728467  0.54714631  0.65985368  1  -1.159654  0  -0.303442  -0.535847  0  2.328841  0
O  O128  1  0.58622006  0.66088413  0.46675950  1  -1.159546  0  -0.308625  -0.538425  0  2.347776  0
O  O129  1  0.56715757  0.34504769  0.53368359  1  -1.163194  0  -0.303618  -0.531566  0  2.334883  0
O  O130  1  0.44066909  0.65889942  0.55006187  1  -1.157705  0  -0.301908  -0.521374  0  2.32858  0
O  O131  1  0.42456988  0.33553199  0.44094309  1  -1.154392  0  -0.306106  -0.538752  0  2.332215  0
O  O132  1  0.60035786  0.53898849  0.34933565  1  -1.181112  0  -0.317397  -0.548955  0  2.345946  0
O  O133  1  0.54381345  0.45604789  0.66040388  1  -1.166838  0  -0.302879  -0.537965  0  2.358549  0
