# generated using pymatgen
data_ZnH16C18S2(NO2)4
_symmetry_space_group_name_H-M   'P 1'
_cell_length_a   7.15246282
_cell_length_b   7.64151518
_cell_length_c   10.57047276
_cell_angle_alpha   106.06559140
_cell_angle_beta   95.62794716
_cell_angle_gamma   108.93633755
_symmetry_Int_Tables_number   1
_chemical_formula_structural   ZnH16C18S2(NO2)4
_chemical_formula_sum   'Zn1 H16 C18 S2 N4 O8'
_cell_volume   513.78675068
_cell_formula_units_Z   1
loop_
 _symmetry_equiv_pos_site_id
 _symmetry_equiv_pos_as_xyz
  1  'x, y, z'
loop_
 _atom_site_type_symbol
 _atom_site_label
 _atom_site_symmetry_multiplicity
 _atom_site_fract_x
 _atom_site_fract_y
 _atom_site_fract_z
 _atom_site_occupancy
 _atom_site_pbe_bader_charge
 _atom_site_pbe_bader_spin_density
 _atom_site_pbe_cm5_charge
 _atom_site_pbe_ddec_charge
 _atom_site_pbe_ddec_spin_density
 _atom_site_pbe_ddec_sum_bond_order
 _atom_site_pbe_magmom
Zn  Zn0  1  0.49999613  0.50000165  0.49999958  1  1.295326  0  0.683698  0.808586  0  2.27856  0
H  H1  1  0.25735514  0.17834168  0.88694766  1  0.121797  0  0.115185  0.126144  0  0.976173  0
H  H2  1  0.74265457  0.82165577  0.11304961  1  0.121739  0  0.115206  0.126146  0  0.976182  0
H  H3  1  0.15161659  0.83545586  0.73207290  1  0.081501  0  0.099893  0.101456  0  1.028081  0
H  H4  1  0.84838836  0.16454012  0.26792659  1  0.081738  0  0.099877  0.101482  0  1.028073  0
H  H5  1  0.12370457  0.56201871  0.82223265  1  0.085456  0  0.104053  0.101622  0  1.001581  0
H  H6  1  0.87629812  0.43797874  0.17776887  1  0.085497  0  0.104052  0.101609  0  1.001617  0
H  H7  1  0.19755135  0.62558710  0.07005759  1  0.139474  0  0.10951  0.119184  0  1.01489  0
H  H8  1  0.80244908  0.37441181  0.92994313  1  0.139495  0  0.109522  0.119198  0  1.014898  0
H  H9  1  0.89982704  0.74917058  0.44387971  1  0.188318  0  0.124847  0.121559  0  1.018885  0
H  H10  1  0.10016497  0.25082833  0.55611761  1  0.188363  0  0.12487  0.12159  0  1.018866  0
H  H11  1  0.25288668  0.75594917  0.44875219  1  0.154625  0  0.119554  0.089889  0  1.061136  0
H  H12  1  0.74710532  0.24404974  0.55124703  1  0.154662  0  0.119533  0.089876  0  1.061186  0
H  H13  1  0.49648373  0.60948271  0.29065264  1  0.627583  0  0.285971  0.372344  0  0.979688  0
H  H14  1  0.50351445  0.39051766  0.70934539  1  0.627643  0  0.285986  0.372374  0  0.979664  0
H  H15  1  0.54808274  0.81934074  0.39950950  1  0.655583  0  0.298326  0.397994  0  0.93168  0
H  H16  1  0.45190982  0.18065963  0.60048721  1  0.655663  0  0.298373  0.398011  0  0.931655  0
C  C17  1  0.34784140  0.28315097  0.17530490  1  1.336791  0  0.232827  0.49593  0  4.157475  0
C  C18  1  0.65216437  0.71685087  0.82469297  1  1.336916  0  0.232757  0.495769  0  4.157594  0
C  C19  1  0.27914987  0.09191213  0.06397157  1  -0.042597  0  -0.011722  -0.052565  0  4.030832  0
C  C20  1  0.72085704  0.90808532  0.93602740  1  -0.042666  0  -0.011666  -0.052477  0  4.030718  0
C  C21  1  0.24090623  0.05751792  0.92598065  1  -0.04059  0  -0.069178  -0.067803  0  3.925081  0
C  C22  1  0.75910208  0.94247952  0.07401652  1  -0.040597  0  -0.06925  -0.067864  0  3.925124  0
C  C23  1  0.18197516  0.86440387  0.84015920  1  0.040379  0  -0.083475  -0.071125  0  3.954049  0
C  C24  1  0.81802728  0.13558919  0.15983954  1  0.040268  0  -0.08344  -0.071118  0  3.954029  0
C  C25  1  0.16549033  0.71052066  0.89128017  1  -0.048045  0  -0.07886  -0.059462  0  3.945525  0
C  C26  1  0.83451322  0.28947533  0.10872017  1  -0.048123  0  -0.078846  -0.059435  0  3.945523  0
C  C27  1  0.20443546  0.74418545  0.03018042  1  0.028889  0  -0.074534  -0.072893  0  3.944058  0
C  C28  1  0.79556834  0.25581493  0.96981987  1  0.028825  0  -0.074542  -0.072907  0  3.944071  0
C  C29  1  0.25858865  0.93623684  0.11295618  1  -0.244409  0  -0.013758  -0.114822  0  4.00726  0
C  C30  1  0.74141375  0.06376353  0.88704307  1  -0.244327  0  -0.013772  -0.114833  0  4.007089  0
C  C31  1  0.94435638  0.63758375  0.46875618  1  0.471562  0  0.060093  0.05442  0  3.87159  0
C  C32  1  0.05563563  0.36241515  0.53124114  1  0.471627  0  0.060051  0.054344  0  3.871783  0
C  C33  1  0.14026005  0.64041050  0.47120317  1  0.483195  0  0.057525  0.056855  0  3.900389  0
C  C34  1  0.85972859  0.35958694  0.52879364  1  0.483024  0  0.057591  0.056954  0  3.900582  0
S  S35  1  0.30906198  0.03417847  0.29056255  1  2.850124  0  0.558615  1.119321  0  5.900393  0
S  S36  1  0.69093816  0.96582337  0.70943684  1  2.8501  0  0.558577  1.119301  0  5.900233  0
N  N37  1  0.37251530  0.26458644  0.30005032  1  -1.290064  0  -0.390822  -0.618175  0  3.292686  0
N  N38  1  0.62748625  0.73541540  0.69994916  1  -1.290225  0  -0.390759  -0.618062  0  3.292592  0
N  N39  1  0.80367726  0.49627540  0.49735099  1  -1.207357  0  -0.298476  -0.183618  0  3.495766  0
N  N40  1  0.19631279  0.50372205  0.50264685  1  -1.207396  0  -0.298484  -0.183593  0  3.49582  0
O  O41  1  0.38248710  0.44325698  0.15414081  1  -1.151853  0  -0.289836  -0.473603  0  2.164685  0
O  O42  1  0.61752487  0.55673900  0.84585537  1  -1.151886  0  -0.289814  -0.473548  0  2.164672  0
O  O43  1  0.12634007  0.96646891  0.34082266  1  -1.29985  0  -0.30847  -0.528759  0  2.145509  0
O  O44  1  0.87365726  0.03353293  0.65917277  1  -1.299867  0  -0.308467  -0.52876  0  2.145536  0
O  O45  1  0.48373787  0.00554798  0.35246037  1  -1.320078  0  -0.310213  -0.555737  0  2.244849  0
O  O46  1  0.51625972  0.99445826  0.64754257  1  -1.319969  0  -0.310203  -0.55574  0  2.24471  0
O  O47  1  0.56812149  0.69485678  0.38687245  1  -1.268063  0  -0.578916  -0.762488  0  2.169872  0
O  O48  1  0.43187107  0.30514360  0.61312521  1  -1.268203  0  -0.578988  -0.762574  0  2.169881  0
