# generated using pymatgen
data_Zr6H28C57(ClO21)2
_symmetry_space_group_name_H-M   'P 1'
_cell_length_a   14.75776320
_cell_length_b   14.76877124
_cell_length_c   14.77908967
_cell_angle_alpha   60.04079405
_cell_angle_beta   59.88729906
_cell_angle_gamma   59.94733376
_symmetry_Int_Tables_number   1
_chemical_formula_structural   Zr6H28C57(ClO21)2
_chemical_formula_sum   'Zr6 H28 C57 Cl2 O42'
_cell_volume   2275.55234775
_cell_formula_units_Z   1
loop_
 _symmetry_equiv_pos_site_id
 _symmetry_equiv_pos_as_xyz
  1  'x, y, z'
loop_
 _atom_site_type_symbol
 _atom_site_label
 _atom_site_symmetry_multiplicity
 _atom_site_fract_x
 _atom_site_fract_y
 _atom_site_fract_z
 _atom_site_occupancy
 _atom_site_pbe_bader_charge
 _atom_site_pbe_bader_spin_density
 _atom_site_pbe_cm5_charge
 _atom_site_pbe_ddec_charge
 _atom_site_pbe_ddec_spin_density
 _atom_site_pbe_ddec_sum_bond_order
 _atom_site_pbe_magmom
Zr  Zr0  1  0.87455288  0.88266237  0.62229074  1  2.637678  0  1.631376  2.374705  0  2.759045  0
Zr  Zr1  1  0.11616724  0.11988020  0.38247642  1  2.639121  0  1.627624  2.380085  0  2.74004  0
Zr  Zr2  1  0.11463840  0.88118185  0.62295257  1  2.635958  0  1.62735  2.380318  0  2.73222  0
Zr  Zr3  1  0.87578724  0.12039411  0.38289340  1  2.637018  0  1.631181  2.375165  0  2.758393  0
Zr  Zr4  1  0.11611280  0.88080881  0.38292224  1  2.641508  0  1.631882  2.377801  0  2.746913  0
Zr  Zr5  1  0.87503947  0.12210663  0.62164868  1  2.637632  0  1.630847  2.377857  0  2.736644  0
H  H6  1  0.09178085  0.71853355  0.59689565  1  0.598959  0  0.324052  0.410783  0  0.881267  0
H  H7  1  0.09349021  0.09228046  0.21996488  1  0.614456  0  0.325237  0.411881  0  0.880812  0
H  H8  1  0.08877158  0.09594883  0.59666238  1  0.601604  0  0.325584  0.413214  0  0.872503  0
H  H9  1  0.71233755  0.09695848  0.59633688  1  0.595923  0  0.333691  0.426416  0  0.851923  0
H  H10  1  0.84319178  0.59020375  0.64206789  1  0.120118  0  0.117262  0.126168  0  0.976628  0
H  H11  1  0.13068118  0.59996267  0.34661402  1  0.147107  0  0.116565  0.131978  0  0.99493  0
H  H12  1  0.84687559  0.42129610  0.63632157  1  0.101949  0  0.114398  0.128851  0  0.993508  0
H  H13  1  0.57641292  0.85988265  0.91436125  1  0.084585  0  0.114685  0.123266  0  0.981871  0
H  H14  1  0.60014947  0.12785183  0.93406029  1  0.152817  0  0.114281  0.136247  0  1.019575  0
H  H15  1  0.40884420  0.85874234  0.08673272  1  0.123067  0  0.113006  0.127062  0  1.000623  0
H  H16  1  0.13315371  0.84476403  0.09479008  1  0.11096  0  0.120359  0.132436  0  0.970237  0
H  H17  1  0.84626208  0.14034786  0.09565102  1  0.094808  0  0.118513  0.132073  0  0.979447  0
H  H18  1  0.12928313  0.84737411  0.92566363  1  0.147371  0  0.115755  0.129532  0  0.991086  0
H  H19  1  0.58997558  0.42701873  0.63795996  1  0.123614  0  0.118397  0.127977  0  0.974162  0
H  H20  1  0.59557619  0.42783321  0.34395942  1  0.12267  0  0.117023  0.130425  0  0.979688  0
H  H21  1  0.42125562  0.59788662  0.63563959  1  0.139798  0  0.11561  0.131808  0  1.000707  0
H  H22  1  0.03305605  0.56432578  0.72749602  1  0.079488  0  0.099448  0.099622  0  1.033051  0
H  H23  1  0.08627879  0.38467859  0.71237011  1  0.036412  0  0.095311  0.090938  0  1.01346  0
H  H24  1  0.04632492  0.22384036  0.05978410  1  0.056453  0  0.099228  0.099615  0  1.027723  0
H  H25  1  0.09517642  0.21223864  0.87986034  1  0.045338  0  0.095515  0.089973  0  1.011874  0
H  H26  1  0.58370680  0.14246078  0.35236409  1  0.135651  0  0.117941  0.126847  0  0.973995  0
H  H27  1  0.59330549  0.84586665  0.63691362  1  0.106911  0  0.116213  0.127754  0  0.984641  0
H  H28  1  0.41599357  0.13868494  0.35343040  1  0.181427  0  0.114126  0.129675  0  1.022157  0
H  H29  1  0.22768274  0.28361516  0.39678384  1  0.606723  0  0.323637  0.358472  0  0.913524  0
H  H30  1  0.33014340  0.25897423  0.04473709  1  0.599495  0  0.339881  0.372063  0  0.866538  0
H  H31  1  0.90485609  0.26301828  0.83805891  1  0.607157  0  0.327763  0.356359  0  0.90298  0
H  H32  1  0.31177207  0.53649296  0.40372820  1  0.599246  0  0.334281  0.364043  0  0.882235  0
H  H33  1  0.29900505  0.90378802  0.75073764  1  0.601923  0  0.332738  0.362719  0  0.886434  0
C  C34  1  0.99099326  0.70111735  0.49952274  1  1.564573  0  0.23616  0.633215  0  4.108978  0
C  C35  1  0.30554391  0.99528940  0.20341889  1  1.52628  0  0.238163  0.640925  0  4.099275  0
C  C36  1  0.99248351  0.31068007  0.49574765  1  1.558013  0  0.230002  0.62504  0  4.134253  0
C  C37  1  0.69438386  0.99872799  0.80935686  1  1.530196  0  0.240139  0.640608  0  4.088758  0
C  C38  1  0.98803481  0.70294670  0.81101809  1  1.59394  0  0.237127  0.655137  0  4.128158  0
C  C39  1  0.69572432  0.99746804  0.49771294  1  1.551298  0  0.239575  0.641908  0  4.096914  0
C  C40  1  0.99112990  0.30746434  0.20217654  1  1.595584  0  0.234664  0.65185  0  4.137667  0
C  C41  1  0.30340022  0.99762914  0.49977549  1  1.566141  0  0.234062  0.632084  0  4.116092  0
C  C42  1  0.30579895  0.70250190  0.49759055  1  1.556177  0  0.237465  0.638166  0  4.102867  0
C  C43  1  0.99131841  0.99847498  0.81041961  1  1.559968  0  0.23234  0.62811  0  4.123763  0
C  C44  1  0.69760918  0.31143220  0.49606250  1  1.55548  0  0.238294  0.638786  0  4.100683  0
C  C45  1  0.99268572  0.99513623  0.20295804  1  1.544668  0  0.237333  0.634929  0  4.105894  0
C  C46  1  0.99320296  0.41351765  0.49149333  1  -0.071806  0  -0.016309  -0.073082  0  3.954771  0
C  C47  1  0.98909704  0.60259065  0.49631768  1  -0.048129  0  -0.011933  -0.029854  0  3.967622  0
C  C48  1  0.07411738  0.46395347  0.40773700  1  -0.008685  0  -0.006269  -0.058243  0  3.955218  0
C  C49  1  0.90732008  0.55400592  0.57762123  1  -0.024155  0  -0.073807  -0.081471  0  3.950358  0
C  C50  1  0.07011284  0.55884879  0.41134375  1  -0.038338  0  -0.074354  -0.114838  0  3.926464  0
C  C51  1  0.90961418  0.46050864  0.57440313  1  0.028054  0  -0.077493  -0.086097  0  3.953047  0
C  C52  1  0.40794203  0.99546108  0.10387546  1  -0.062608  0  -0.009822  -0.063405  0  3.946007  0
C  C53  1  0.59515120  0.99673673  0.91231667  1  -0.083658  0  -0.01049  -0.028439  0  3.965884  0
C  C54  1  0.46242840  0.07120053  0.06222122  1  -0.022445  0  -0.005665  -0.065181  0  3.972171  0
C  C55  1  0.54284123  0.91943761  0.95555758  1  0.049443  0  -0.074688  -0.084661  0  3.947655  0
C  C56  1  0.55561115  0.07167458  0.96596867  1  0.015995  0  -0.073129  -0.114515  0  3.913493  0
C  C57  1  0.44964189  0.91921034  0.05067598  1  0.033674  0  -0.073023  -0.073871  0  3.945243  0
C  C58  1  0.98813607  0.99703914  0.91382425  1  -0.045896  0  -0.013481  -0.066439  0  3.954382  0
C  C59  1  0.99070505  0.99364232  0.10354431  1  -0.08336  0  -0.008412  -0.024561  0  3.956985  0
C  C60  1  0.90657374  0.08003895  0.96201260  1  -0.073681  0  -0.007458  -0.067967  0  3.982916  0
C  C61  1  0.07059838  0.91019807  0.05676453  1  0.029166  0  -0.070753  -0.079119  0  3.935592  0
C  C62  1  0.90863457  0.07737367  0.05676270  1  0.077044  0  -0.072371  -0.115249  0  3.934619  0
C  C63  1  0.06867981  0.91206656  0.96272154  1  -0.03992  0  -0.077279  -0.089276  0  3.961904  0
C  C64  1  0.41063181  0.60542247  0.49191117  1  -0.00481  0  -0.010127  -0.064512  0  3.942493  0
C  C65  1  0.60025178  0.41617644  0.49270587  1  -0.012306  0  -0.01017  -0.031917  0  3.972102  0
C  C66  1  0.46063534  0.55940722  0.40714161  1  -0.038348  0  -0.007209  -0.069037  0  3.981036  0
C  C67  1  0.55282875  0.46441942  0.57431340  1  -0.051243  0  -0.069847  -0.076349  0  3.930905  0
C  C68  1  0.55543332  0.46487626  0.40844512  1  -0.038783  0  -0.074586  -0.114806  0  3.938709  0
C  C69  1  0.45866372  0.55862690  0.57352511  1  -0.001093  0  -0.068529  -0.067843  0  3.927187  0
C  C70  1  0.98580289  0.60129062  0.91254615  1  0.098216  0  -0.009416  -0.117497  0  3.91512  0
C  C71  1  0.01459608  0.49853244  0.90185883  1  -0.013703  0  0.001812  0.071695  0  3.956305  0
C  C72  1  0.95492105  0.60832157  0.01464489  1  0.09455  0  0.021405  0.07496  0  4.029583  0
C  C73  1  0.04001799  0.48958495  0.79964201  1  -0.063581  0  -0.090477  -0.120904  0  3.963353  0
C  C74  1  0.06834463  0.38890959  0.79161214  1  -0.022812  0  -0.100324  -0.093788  0  4.058728  0
C  C75  1  0.98811281  0.40979844  0.10142244  1  0.030753  0  -0.010952  -0.120147  0  3.921642  0
C  C76  1  0.95461835  0.51154259  0.11062970  1  0.097632  0  0.021848  0.077969  0  4.026504  0
C  C77  1  0.01718798  0.40066347  0.99788872  1  0.049192  0  -0.000371  0.067296  0  3.964168  0
C  C78  1  0.04691766  0.29819384  0.98675174  1  -0.066  0  -0.091134  -0.122225  0  3.972842  0
C  C79  1  0.07246640  0.29211520  0.88599298  1  -0.039329  0  -0.10165  -0.099066  0  4.067065  0
C  C80  1  0.40598105  0.99430001  0.49991812  1  0.025017  0  -0.013215  -0.069792  0  3.950914  0
C  C81  1  0.59611477  0.99577429  0.49657724  1  -0.017006  0  -0.010356  -0.031303  0  3.971778  0
C  C82  1  0.45693452  0.90916484  0.57963321  1  -0.119547  0  -0.008242  -0.069041  0  3.982641  0
C  C83  1  0.54693117  0.07851257  0.41611679  1  -0.08324  0  -0.069406  -0.073281  0  3.927489  0
C  C84  1  0.55201697  0.91091522  0.57685879  1  0.0334  0  -0.074434  -0.112403  0  3.938315  0
C  C85  1  0.45251893  0.07737133  0.41796234  1  -0.030886  0  -0.071361  -0.068709  0  3.931352  0
C  C86  1  0.16506045  0.43179338  0.30728582  1  1.578159  0  0.232926  0.582909  0  4.109193  0
C  C87  1  0.43388800  0.14572697  0.12127081  1  1.559495  0  0.237484  0.592118  0  4.124751  0
C  C88  1  0.81258567  0.17104154  0.92015433  1  1.566204  0  0.237234  0.589298  0  4.119595  0
C  C89  1  0.42228034  0.60815308  0.30984395  1  1.555739  0  0.235416  0.590171  0  4.11976  0
C  C90  1  0.42110692  0.81017673  0.66592787  1  1.561088  0  0.235487  0.589342  0  4.119489  0
Cl  Cl91  1  0.90835018  0.52204892  0.23845644  1  -0.158294  0  0.025987  -0.021034  0  1.570608  0
Cl  Cl92  1  0.91317583  0.73442504  0.02682687  1  -0.161564  0  0.02511  -0.022329  0  1.5465  0
O  O93  1  0.91510398  0.73885590  0.57813212  1  -1.186182  0  -0.350987  -0.614142  0  2.285574  0
O  O94  1  0.26437160  0.07266761  0.24337478  1  -1.176864  0  -0.353232  -0.623471  0  2.331964  0
O  O95  1  0.07085320  0.26818220  0.42083593  1  -1.190719  0  -0.354123  -0.631719  0  2.36268  0
O  O96  1  0.73204879  0.92362999  0.76778836  1  -1.178277  0  -0.357185  -0.619756  0  2.289911  0
O  O97  1  0.06715214  0.73893327  0.77187052  1  -1.169246  0  -0.344894  -0.606177  0  2.258896  0
O  O98  1  0.73403256  0.07562358  0.42199922  1  -1.17806  0  -0.354168  -0.616602  0  2.280267  0
O  O99  1  0.91491217  0.26756787  0.24086762  1  -1.170753  0  -0.349641  -0.608825  0  2.281432  0
O  O100  1  0.26317459  0.92084868  0.57598803  1  -1.178254  0  -0.349141  -0.61735  0  2.338033  0
O  O101  1  0.26380122  0.74034408  0.42289166  1  -1.180634  0  -0.351499  -0.622215  0  2.337575  0
O  O102  1  0.91682407  0.07761490  0.76861572  1  -1.172371  0  -0.342165  -0.605704  0  2.323658  0
O  O103  1  0.73544888  0.27021929  0.57462030  1  -1.17745  0  -0.354738  -0.616665  0  2.284001  0
O  O104  1  0.07059988  0.91910887  0.24125981  1  -1.176533  0  -0.349016  -0.609522  0  2.273807  0
O  O105  1  0.06971084  0.92241443  0.77011369  1  -1.184932  0  -0.351986  -0.617904  0  2.305225  0
O  O106  1  0.73444985  0.26911279  0.42195929  1  -1.170972  0  -0.353021  -0.613754  0  2.284588  0
O  O107  1  0.91730736  0.07408182  0.24053147  1  -1.181963  0  -0.352789  -0.616  0  2.289686  0
O  O108  1  0.26354823  0.73904533  0.57720884  1  -1.176235  0  -0.346526  -0.59812  0  2.273009  0
O  O109  1  0.91217237  0.74154563  0.77086427  1  -1.172209  0  -0.347933  -0.607085  0  2.278191  0
O  O110  1  0.26130419  0.07797676  0.42605399  1  -1.187057  0  -0.346715  -0.604208  0  2.293146  0
O  O111  1  0.07074457  0.26779794  0.23746597  1  -1.162021  0  -0.342078  -0.603178  0  2.264171  0
O  O112  1  0.73427144  0.92175745  0.57555057  1  -1.17935  0  -0.354694  -0.615001  0  2.28764  0
O  O113  1  0.73397142  0.07602337  0.76856893  1  -1.172955  0  -0.352853  -0.608667  0  2.277891  0
O  O114  1  0.07010245  0.73855974  0.42460292  1  -1.187093  0  -0.353872  -0.615347  0  2.297255  0
O  O115  1  0.26372401  0.92086456  0.24050121  1  -1.175452  0  -0.348882  -0.603705  0  2.28261  0
O  O116  1  0.91670842  0.27084022  0.57448381  1  -1.182307  0  -0.344622  -0.599492  0  2.290319  0
O  O117  1  0.79290255  0.06977771  0.56910440  1  -1.219798  0  -0.696475  -1.073264  0  2.368842  0
O  O118  1  0.06242063  0.06884801  0.56983387  1  -1.232134  0  -0.695331  -1.068944  0  2.381528  0
O  O119  1  0.06400597  0.06742134  0.30024699  1  -1.250801  0  -0.696464  -1.072026  0  2.382612  0
O  O120  1  0.06287870  0.79884629  0.57082011  1  -1.23477  0  -0.694856  -1.070918  0  2.377107  0
O  O121  1  0.14517638  0.95094562  0.45339235  1  -1.198803  0  -0.789966  -1.147023  0  2.124307  0
O  O122  1  0.94628861  0.95114723  0.45293749  1  -1.204986  0  -0.791896  -1.150176  0  2.124699  0
O  O123  1  0.94644474  0.15027203  0.45208513  1  -1.20123  0  -0.789594  -1.145735  0  2.119839  0
O  O124  1  0.94521314  0.95227177  0.65170165  1  -1.198444  0  -0.789535  -1.146663  0  2.120119  0
O  O125  1  0.25187935  0.33644371  0.32351540  1  -1.104441  0  -0.335696  -0.469327  0  2.258819  0
O  O126  1  0.16739368  0.49636914  0.21436248  1  -1.099817  0  -0.271253  -0.43173  0  2.047829  0
O  O127  1  0.36354766  0.25093076  0.09216893  1  -1.086765  0  -0.325044  -0.457889  0  2.226035  0
O  O128  1  0.47914927  0.11654512  0.18561297  1  -1.101494  0  -0.264212  -0.434618  0  2.098062  0
O  O129  1  0.83022137  0.27000356  0.85096962  1  -1.103955  0  -0.333763  -0.472694  0  2.224664  0
O  O130  1  0.72295939  0.16285549  0.95168826  1  -1.1027  0  -0.255802  -0.422209  0  2.109501  0
O  O131  1  0.34251895  0.57545653  0.32502349  1  -1.091695  0  -0.335474  -0.473432  0  2.230563  0
O  O132  1  0.46641159  0.66455530  0.21884162  1  -1.117938  0  -0.267859  -0.436609  0  2.070423  0
O  O133  1  0.33637855  0.82464754  0.76129622  1  -1.09292  0  -0.334561  -0.472918  0  2.235451  0
O  O134  1  0.47192558  0.71821110  0.65771350  1  -1.114277  0  -0.267705  -0.437608  0  2.070041  0
