# generated using pymatgen
data_CuH4C4(NO)3
_symmetry_space_group_name_H-M   'P 1'
_cell_length_a   6.51789933
_cell_length_b   8.20182535
_cell_length_c   11.77628898
_cell_angle_alpha   89.99979626
_cell_angle_beta   90.00013559
_cell_angle_gamma   90.00007802
_symmetry_Int_Tables_number   1
_chemical_formula_structural   CuH4C4(NO)3
_chemical_formula_sum   'Cu4 H16 C16 N12 O12'
_cell_volume   629.54476910
_cell_formula_units_Z   4
loop_
 _symmetry_equiv_pos_site_id
 _symmetry_equiv_pos_as_xyz
  1  'x, y, z'
loop_
 _atom_site_type_symbol
 _atom_site_label
 _atom_site_symmetry_multiplicity
 _atom_site_fract_x
 _atom_site_fract_y
 _atom_site_fract_z
 _atom_site_occupancy
 _atom_site_hle17_bader_spin_density
 _atom_site_hle17_ddec_charge
 _atom_site_hle17_ddec_spin_density
 _atom_site_hle17_ddec_sum_bond_order
 _atom_site_hle17_magmom
 _atom_site_hse06_10hf_bader_spin_density
 _atom_site_hse06_10hf_ddec_charge
 _atom_site_hse06_10hf_ddec_spin_density
 _atom_site_hse06_10hf_ddec_sum_bond_order
 _atom_site_hse06_10hf_magmom
 _atom_site_hse06_bader_spin_density
 _atom_site_hse06_ddec_charge
 _atom_site_hse06_ddec_spin_density
 _atom_site_hse06_ddec_sum_bond_order
 _atom_site_hse06_magmom
 _atom_site_pbe_bader_spin_density
 _atom_site_pbe_cm5_charge
 _atom_site_pbe_ddec_charge
 _atom_site_pbe_ddec_spin_density
 _atom_site_pbe_ddec_sum_bond_order
 _atom_site_pbe_magmom
Cu  Cu0  1  0.75000460  0.93392137  0.66002641  1  0  0.544782  0  1.733465  0  0  0.41872  0  2.191228  0  0  0.408278  0  2.156414  0  0  0.572866  0.426521  0  2.213118  0
Cu  Cu1  1  0.24999854  0.56608348  0.16002863  1  0  0.54478  0  1.7335  0  0  0.418741  0  2.191311  0  0  0.408288  0  2.15651  0  0  0.572873  0.42651  0  2.213186  0
Cu  Cu2  1  0.25000006  0.06608702  0.33997135  1  0  0.544744  0  1.733327  0  0  0.418685  0  2.191132  0  0  0.408247  0  2.156326  0  0  0.572837  0.426466  0  2.213019  0
Cu  Cu3  1  0.74999537  0.43390905  0.83996998  1  0  0.544696  0  1.733532  0  0  0.418714  0  2.191249  0  0  0.408301  0  2.156439  0  0  0.57286  0.426501  0  2.213133  0
H  H4  1  0.05659351  0.19541823  0.68573024  1  0  0.105684  0  0.945047  0  0  0.111653  0  1.009465  0  0  0.114835  0  1.007401  0  0  0.12191  0.109169  0  1.011279  0
H  H5  1  0.94340891  0.30458592  0.18573615  1  0  0.105766  0  0.944965  0  0  0.111725  0  1.009372  0  0  0.114907  0  1.007307  0  0  0.121914  0.109239  0  1.011184  0
H  H6  1  0.55659019  0.80459237  0.31426472  1  0  0.105755  0  0.945014  0  0  0.111719  0  1.009401  0  0  0.114897  0  1.007341  0  0  0.121943  0.109233  0  1.011213  0
H  H7  1  0.44341209  0.69539951  0.81425422  1  0  0.105702  0  0.944934  0  0  0.11169  0  1.009299  0  0  0.114871  0  1.007234  0  0  0.121891  0.109203  0  1.01111  0
H  H8  1  0.94341114  0.80459381  0.31426752  1  0  0.105757  0  0.945003  0  0  0.111724  0  1.009375  0  0  0.114903  0  1.007312  0  0  0.121933  0.109238  0  1.011187  0
H  H9  1  0.05658500  0.69540174  0.81425567  1  0  0.105658  0  0.945  0  0  0.111643  0  1.009378  0  0  0.114824  0  1.007313  0  0  0.121872  0.109156  0  1.01119  0
H  H10  1  0.44342060  0.19541967  0.68572879  1  0  0.105649  0  0.944982  0  0  0.11161  0  1.009407  0  0  0.114793  0  1.007339  0  0  0.121877  0.109125  0  1.011222  0
H  H11  1  0.55658489  0.30458448  0.18573505  1  0  0.105773  0  0.944909  0  0  0.11173  0  1.009332  0  0  0.114913  0  1.007264  0  0  0.121908  0.109243  0  1.011146  0
H  H12  1  0.05971277  0.72330959  0.55465093  1  0  0.10204  0  0.962834  0  0  0.10266  0  1.035944  0  0  0.10643  0  1.032664  0  0  0.119357  0.099696  0  1.038692  0
H  H13  1  0.94028991  0.77668603  0.05464502  1  0  0.102025  0  0.962784  0  0  0.102624  0  1.035944  0  0  0.106391  0  1.032667  0  0  0.119354  0.099659  0  1.038693  0
H  H14  1  0.55970914  0.27669127  0.44535083  1  0  0.102088  0  0.962866  0  0  0.102634  0  1.036039  0  0  0.106397  0  1.032761  0  0  0.11937  0.099672  0  1.038788  0
H  H15  1  0.44028521  0.22330915  0.94536063  1  0  0.102062  0  0.962838  0  0  0.102646  0  1.036004  0  0  0.106416  0  1.03271  0  0  0.119342  0.099682  0  1.038754  0
H  H16  1  0.94029035  0.27669026  0.44535192  1  0  0.10207  0  0.962855  0  0  0.102613  0  1.036029  0  0  0.106376  0  1.032751  0  0  0.119349  0.099652  0  1.038778  0
H  H17  1  0.05969940  0.22331138  0.94536209  1  0  0.102109  0  0.962677  0  0  0.102638  0  1.035879  0  0  0.106406  0  1.032599  0  0  0.119345  0.099672  0  1.038631  0
H  H18  1  0.44029398  0.72331346  0.55464778  1  0  0.102114  0  0.962759  0  0  0.102711  0  1.035884  0  0  0.106484  0  1.032603  0  0  0.119388  0.099746  0  1.038632  0
H  H19  1  0.55971177  0.77668460  0.05464477  1  0  0.102041  0  0.962804  0  0  0.102638  0  1.035951  0  0  0.106406  0  1.032677  0  0  0.119362  0.099673  0  1.038701  0
C  C20  1  0.14380552  0.08867869  0.65953712  1  0  0.0773  0  3.640331  0  0  0.047585  0  3.893126  0  0  0.052076  0  3.903583  0  0  0.043894  0.044295  0  3.886615  0
C  C21  1  0.85620139  0.41132925  0.15954180  1  0  0.077174  0  3.640302  0  0  0.047478  0  3.893075  0  0  0.051976  0  3.903543  0  0  0.043817  0.044187  0  3.886561  0
C  C22  1  0.64378868  0.91133079  0.34046645  1  0  0.077103  0  3.640209  0  0  0.047409  0  3.892964  0  0  0.051897  0  3.903441  0  0  0.043754  0.044121  0  3.886446  0
C  C23  1  0.35619377  0.58865975  0.84045950  1  0  0.077244  0  3.640316  0  0  0.047549  0  3.893114  0  0  0.052047  0  3.903572  0  0  0.043863  0.04426  0  3.886602  0
C  C24  1  0.85621294  0.91133213  0.34046573  1  0  0.07715  0  3.640097  0  0  0.047475  0  3.892846  0  0  0.051964  0  3.903323  0  0  0.043791  0.044185  0  3.88633  0
C  C25  1  0.14379866  0.58866329  0.84046191  1  0  0.077296  0  3.640408  0  0  0.047564  0  3.893197  0  0  0.052081  0  3.903675  0  0  0.043858  0.044274  0  3.886687  0
C  C26  1  0.35620370  0.08868003  0.65953556  1  0  0.07733  0  3.640336  0  0  0.047648  0  3.893102  0  0  0.052145  0  3.903566  0  0  0.043877  0.044356  0  3.886597  0
C  C27  1  0.64379707  0.41132913  0.15954251  1  0  0.077153  0  3.640299  0  0  0.04743  0  3.893087  0  0  0.051932  0  3.903559  0  0  0.043803  0.04414  0  3.886572  0
C  C28  1  0.14389035  0.82778630  0.58711439  1  0  0.066767  0  3.678008  0  0  0.033472  0  3.94387  0  0  0.038783  0  3.952323  0  0  0.040353  0.029797  0  3.938449  0
C  C29  1  0.85611400  0.67221891  0.08711373  1  0  0.066829  0  3.677968  0  0  0.03351  0  3.943841  0  0  0.038825  0  3.952306  0  0  0.040358  0.02984  0  3.93841  0
C  C30  1  0.64387721  0.17222928  0.41288748  1  0  0.066653  0  3.677853  0  0  0.03339  0  3.943728  0  0  0.038717  0  3.95217  0  0  0.040341  0.029714  0  3.938312  0
C  C31  1  0.35610780  0.32777496  0.91289521  1  0  0.066686  0  3.677962  0  0  0.033361  0  3.943857  0  0  0.03869  0  3.952306  0  0  0.040318  0.029693  0  3.938412  0
C  C32  1  0.85612197  0.17222940  0.41288762  1  0  0.066683  0  3.677912  0  0  0.033467  0  3.943744  0  0  0.038788  0  3.952189  0  0  0.040371  0.029789  0  3.938328  0
C  C33  1  0.14387838  0.32777728  0.91289677  1  0  0.066788  0  3.677869  0  0  0.033524  0  3.94376  0  0  0.038862  0  3.952207  0  0  0.040479  0.029864  0  3.938322  0
C  C34  1  0.35611517  0.82778886  0.58711198  1  0  0.066649  0  3.678086  0  0  0.033352  0  3.943973  0  0  0.038667  0  3.952425  0  0  0.040353  0.029677  0  3.938556  0
C  C35  1  0.64388918  0.67222002  0.08711444  1  0  0.066831  0  3.677822  0  0  0.033516  0  3.943698  0  0  0.038838  0  3.952163  0  0  0.040383  0.029846  0  3.938264  0
N  N36  1  0.03469893  0.95516632  0.62836994  1  0  -0.266018  0  3.408254  0  0  -0.194857  0  3.711264  0  0  -0.196214  0  3.713867  0  0  -0.371019  -0.193806  0  3.708889  0
N  N37  1  0.96530714  0.54484235  0.12836974  1  0  -0.266014  0  3.408336  0  0  -0.194851  0  3.71133  0  0  -0.19623  0  3.713962  0  0  -0.370983  -0.193788  0  3.708932  0
N  N38  1  0.53469613  0.04484183  0.37163349  1  0  -0.265804  0  3.408386  0  0  -0.194647  0  3.711345  0  0  -0.196028  0  3.713968  0  0  -0.370914  -0.193588  0  3.708957  0
N  N39  1  0.46529944  0.45515530  0.87163254  1  0  -0.26595  0  3.40825  0  0  -0.1948  0  3.711248  0  0  -0.196179  0  3.71387  0  0  -0.370991  -0.193744  0  3.708865  0
N  N40  1  0.96530419  0.04484573  0.37163546  1  0  -0.265851  0  3.408388  0  0  -0.194722  0  3.71137  0  0  -0.196105  0  3.714  0  0  -0.370935  -0.193662  0  3.708983  0
N  N41  1  0.03468831  0.45515628  0.87163397  1  0  -0.26602  0  3.408429  0  0  -0.194811  0  3.711361  0  0  -0.196245  0  3.714043  0  0  -0.371011  -0.193761  0  3.708979  0
N  N42  1  0.46530699  0.95516899  0.62836682  1  0  -0.266021  0  3.408448  0  0  -0.194851  0  3.711419  0  0  -0.196228  0  3.714048  0  0  -0.371014  -0.1938  0  3.709043  0
N  N43  1  0.53469448  0.54483967  0.12837031  1  0  -0.265966  0  3.408157  0  0  -0.194778  0  3.711123  0  0  -0.196175  0  3.713775  0  0  -0.37094  -0.193716  0  3.708727  0
N  N44  1  0.74999800  0.52392618  0.60730489  1  0  0.68585  0  4.128921  0  0  0.733205  0  4.393711  0  0  0.746641  0  4.421372  0  0  0.093406  0.714588  0  4.387641  0
N  N45  1  0.25000337  0.97606552  0.10731117  1  0  0.686965  0  4.128476  0  0  0.733419  0  4.393826  0  0  0.746898  0  4.421385  0  0  0.093452  0.714796  0  4.387758  0
N  N46  1  0.25000358  0.47608099  0.39268014  1  0  0.68674  0  4.128244  0  0  0.733257  0  4.393504  0  0  0.746681  0  4.421146  0  0  0.093479  0.714638  0  4.387433  0
N  N47  1  0.74999668  0.02391726  0.89268065  1  0  0.686808  0  4.127888  0  0  0.733224  0  4.393276  0  0  0.746678  0  4.420882  0  0  0.093461  0.714605  0  4.387208  0
O  O48  1  0.75000240  0.54916107  0.50259020  1  0  -0.431782  0  1.716031  0  0  -0.427877  0  1.91236  0  0  -0.439663  0  1.915535  0  0  -0.179369  -0.416128  0  1.913908  0
O  O49  1  0.25000466  0.95083725  0.00259570  1  0  -0.43221  0  1.715906  0  0  -0.427916  0  1.912359  0  0  -0.439725  0  1.915504  0  0  -0.179371  -0.416165  0  1.913909  0
O  O50  1  0.25000532  0.45084488  0.49741265  1  0  -0.432194  0  1.715371  0  0  -0.427922  0  1.911763  0  0  -0.439708  0  1.914924  0  0  -0.179463  -0.416167  0  1.913314  0
O  O51  1  0.75000460  0.04914675  0.99741310  1  0  -0.432203  0  1.715324  0  0  -0.427852  0  1.911702  0  0  -0.43965  0  1.914855  0  0  -0.179455  -0.416104  0  1.913253  0
O  O52  1  0.75000133  0.64211798  0.67868801  1  0  -0.504202  0  1.879353  0  0  -0.481872  0  2.136108  0  0  -0.491165  0  2.128846  0  0  -0.201785  -0.472368  0  2.144924  0
O  O53  1  0.25000496  0.85787092  0.17868949  1  0  -0.504683  0  1.879499  0  0  -0.482042  0  2.136365  0  0  -0.49128  0  2.128977  0  0  -0.201917  -0.472539  0  2.145192  0
O  O54  1  0.25000486  0.35788918  0.32130042  1  0  -0.504601  0  1.879579  0  0  -0.481855  0  2.136353  0  0  -0.491134  0  2.129038  0  0  -0.201739  -0.472348  0  2.145167  0
O  O55  1  0.75000429  0.14211795  0.82130318  1  0  -0.504662  0  1.879543  0  0  -0.481882  0  2.13629  0  0  -0.491191  0  2.129009  0  0  -0.201815  -0.472381  0  2.145109  0
O  O56  1  0.74999184  0.37921561  0.64782972  1  0  -0.465961  0  1.80461  0  0  -0.443172  0  2.035988  0  0  -0.455875  0  2.033374  0  0  -0.194069  -0.430879  0  2.041097  0
O  O57  1  0.25000122  0.12077411  0.14783945  1  0  -0.466431  0  1.804623  0  0  -0.443236  0  2.036041  0  0  -0.455968  0  2.033404  0  0  -0.193993  -0.430944  0  2.041153  0
O  O58  1  0.25000054  0.62078790  0.35216719  1  0  -0.466333  0  1.804664  0  0  -0.443201  0  2.036064  0  0  -0.455883  0  2.033434  0  0  -0.194125  -0.430911  0  2.041172  0
O  O59  1  0.74998503  0.87921111  0.85216511  1  0  -0.466383  0  1.804473  0  0  -0.443209  0  2.035948  0  0  -0.455901  0  2.033313  0  0  -0.194053  -0.430921  0  2.041059  0
