# generated using pymatgen
data_AgH5C6SNO4F3
_symmetry_space_group_name_H-M   'P 1'
_cell_length_a   8.23186288
_cell_length_b   10.28396483
_cell_length_c   11.76579540
_cell_angle_alpha   86.53823264
_cell_angle_beta   81.46145014
_cell_angle_gamma   88.60831009
_symmetry_Int_Tables_number   1
_chemical_formula_structural   AgH5C6SNO4F3
_chemical_formula_sum   'Ag4 H20 C24 S4 N4 O16 F12'
_cell_volume   983.09161079
_cell_formula_units_Z   4
loop_
 _symmetry_equiv_pos_site_id
 _symmetry_equiv_pos_as_xyz
  1  'x, y, z'
loop_
 _atom_site_type_symbol
 _atom_site_label
 _atom_site_symmetry_multiplicity
 _atom_site_fract_x
 _atom_site_fract_y
 _atom_site_fract_z
 _atom_site_occupancy
 _atom_site_hle17_bader_spin_density
 _atom_site_hle17_ddec_charge
 _atom_site_hle17_ddec_spin_density
 _atom_site_hle17_ddec_sum_bond_order
 _atom_site_hle17_magmom
 _atom_site_hse06_10hf_bader_spin_density
 _atom_site_hse06_10hf_ddec_charge
 _atom_site_hse06_10hf_ddec_spin_density
 _atom_site_hse06_10hf_ddec_sum_bond_order
 _atom_site_hse06_10hf_magmom
 _atom_site_hse06_bader_spin_density
 _atom_site_hse06_ddec_charge
 _atom_site_hse06_ddec_spin_density
 _atom_site_hse06_ddec_sum_bond_order
 _atom_site_hse06_magmom
 _atom_site_pbe_bader_spin_density
 _atom_site_pbe_cm5_charge
 _atom_site_pbe_ddec_charge
 _atom_site_pbe_ddec_spin_density
 _atom_site_pbe_ddec_sum_bond_order
 _atom_site_pbe_magmom
Ag  Ag0  1  0.11621771  0.88861168  0.08779202  1  0  0.640436  0  1.309228  0  0  0.53521  0  1.736449  0  0  0.563416  0  1.683926  0  0  0.446891  0.515236  0  1.773357  0
Ag  Ag1  1  0.88378236  0.11138826  0.91220817  1  0  0.64043  0  1.309238  0  0  0.535205  0  1.736452  0  0  0.563407  0  1.683939  0  0  0.446891  0.515232  0  1.773362  0
Ag  Ag2  1  0.38726745  0.06569106  0.91946259  1  0  0.686174  0  1.209109  0  0  0.579147  0  1.639131  0  0  0.610213  0  1.580045  0  0  0.44047  0.55697  0  1.680805  0
Ag  Ag3  1  0.61273262  0.93430888  0.08053675  1  0  0.68617  0  1.209109  0  0  0.579146  0  1.639126  0  0  0.61021  0  1.580042  0  0  0.440474  0.556966  0  1.6808  0
H  H4  1  0.03689528  0.07060203  0.23174846  1  0  0.109121  0  0.975835  0  0  0.115516  0  1.046681  0  0  0.11959  0  1.04141  0  0  0.120805  0.112451  0  1.050713  0
H  H5  1  0.96310478  0.92939791  0.76825088  1  0  0.109044  0  0.975872  0  0  0.115379  0  1.046781  0  0  0.119475  0  1.041491  0  0  0.120761  0.112315  0  1.050814  0
H  H6  1  0.01490645  0.23873802  0.37845067  1  0  0.111881  0  0.953084  0  0  0.119653  0  1.013635  0  0  0.122111  0  1.013835  0  0  0.107281  0.117869  0  1.013777  0
H  H7  1  0.98509241  0.76126094  0.62154885  1  0  0.111895  0  0.953117  0  0  0.119671  0  1.013668  0  0  0.12213  0  1.013868  0  0  0.107296  0.117887  0  1.01381  0
H  H8  1  0.05888338  0.47534916  0.31087197  1  0  0.100345  0  0.948041  0  0  0.106364  0  1.01667  0  0  0.109407  0  1.01363  0  0  0.100442  0.104141  0  1.018863  0
H  H9  1  0.94111550  0.52464883  0.68912676  1  0  0.100407  0  0.947925  0  0  0.106343  0  1.01665  0  0  0.109384  0  1.013615  0  0  0.100437  0.104139  0  1.018827  0
H  H10  1  0.12547442  0.53034032  0.09839245  1  0  0.132542  0  0.962806  0  0  0.142663  0  1.020075  0  0  0.145385  0  1.019932  0  0  0.112469  0.140583  0  1.020511  0
H  H11  1  0.87452568  0.46965864  0.90160779  1  0  0.132562  0  0.962811  0  0  0.142688  0  1.020077  0  0  0.145409  0  1.019933  0  0  0.112472  0.14061  0  1.020513  0
H  H12  1  0.14606733  0.34754419  0.96201962  1  0  0.126359  0  0.916587  0  0  0.135429  0  0.975446  0  0  0.138954  0  0.971634  0  0  0.134936  0.132787  0  0.978293  0
H  H13  1  0.85393398  0.65245478  0.03797965  1  0  0.126344  0  0.916581  0  0  0.135418  0  0.975439  0  0  0.138944  0  0.971627  0  0  0.134938  0.132775  0  0.978285  0
H  H14  1  0.67123743  0.94582034  0.64142570  1  0  0.1194  0  0.918082  0  0  0.128916  0  0.97511  0  0  0.13223  0  0.972033  0  0  0.13268  0.126411  0  0.977524  0
H  H15  1  0.32876508  0.05418058  0.35857418  1  0  0.119389  0  0.918076  0  0  0.128905  0  0.97511  0  0  0.132218  0  0.972033  0  0  0.132674  0.126399  0  0.977523  0
H  H16  1  0.69179017  0.04575038  0.43765903  1  0  0.124527  0  0.937985  0  0  0.134282  0  0.992979  0  0  0.137374  0  0.992436  0  0  0.114476  0.131964  0  0.993703  0
H  H17  1  0.30820865  0.95425053  0.56234040  1  0  0.124526  0  0.937986  0  0  0.13428  0  0.992977  0  0  0.137371  0  0.992434  0  0  0.114477  0.131962  0  0.993702  0
H  H18  1  0.69429734  0.29049398  0.40816240  1  0  0.101461  0  0.95174  0  0  0.108481  0  1.017519  0  0  0.112057  0  1.014111  0  0  0.10124  0.105795  0  1.020102  0
H  H19  1  0.30569779  0.70950692  0.59183826  1  0  0.101527  0  0.951693  0  0  0.108527  0  1.017493  0  0  0.112103  0  1.014085  0  0  0.101251  0.10584  0  1.020079  0
H  H20  1  0.68396662  0.42352662  0.58190099  1  0  0.107541  0  0.946787  0  0  0.113813  0  1.010199  0  0  0.117639  0  1.007719  0  0  0.1032  0.110945  0  1.012364  0
H  H21  1  0.31603099  0.57647332  0.41809861  1  0  0.107551  0  0.946757  0  0  0.113815  0  1.010173  0  0  0.117642  0  1.007693  0  0  0.103206  0.110948  0  1.012338  0
H  H22  1  0.66889619  0.30626773  0.77832149  1  0  0.121925  0  0.927099  0  0  0.129957  0  0.989173  0  0  0.13352  0  0.985514  0  0  0.130727  0.127216  0  0.992109  0
H  H23  1  0.33110385  0.69373318  0.22167865  1  0  0.121916  0  0.927128  0  0  0.129946  0  0.989194  0  0  0.133509  0  0.985536  0  0  0.130726  0.127204  0  0.99213  0
C  C24  1  0.05702844  0.17365592  0.20848838  1  0  0.032945  0  3.576233  0  0  -0.004722  0  3.826993  0  0  0.002509  0  3.839903  0  0  0.045936  -0.00928  0  3.818623  0
C  C25  1  0.94297045  0.82634207  0.79151120  1  0  0.032973  0  3.576222  0  0  -0.004645  0  3.826994  0  0  0.002568  0  3.839895  0  0  0.045947  -0.009204  0  3.818625  0
C  C26  1  0.04480387  0.26880834  0.28769419  1  0  -0.100736  0  3.752841  0  0  -0.114519  0  4.011304  0  0  -0.121502  0  4.032385  0  0  -0.081806  -0.110331  0  3.99746  0
C  C27  1  0.95519501  0.73118965  0.71230538  1  0  -0.100687  0  3.752921  0  0  -0.11447  0  4.011355  0  0  -0.121454  0  4.032438  0  0  -0.081765  -0.110282  0  3.997516  0
C  C28  1  0.06934829  0.39894513  0.25004342  1  0  -0.005238  0  3.700001  0  0  -0.037208  0  3.968751  0  0  -0.031297  0  3.983722  0  0  -0.075406  -0.040786  0  3.958511  0
C  C29  1  0.93065182  0.60105286  0.74995687  1  0  -0.005302  0  3.700006  0  0  -0.037202  0  3.968792  0  0  -0.031291  0  3.983761  0  0  -0.075418  -0.040797  0  3.95855  0
C  C30  1  0.10513265  0.43036090  0.13205743  1  0  -0.09141  0  3.707335  0  0  -0.106756  0  3.963426  0  0  -0.11324  0  3.983279  0  0  -0.078388  -0.102826  0  3.950245  0
C  C31  1  0.89486744  0.56963806  0.86794281  1  0  -0.091473  0  3.707425  0  0  -0.106817  0  3.963496  0  0  -0.113306  0  3.983365  0  0  -0.078399  -0.102887  0  3.95032  0
C  C32  1  0.11790261  0.33282123  0.05513797  1  0  0.047527  0  3.552958  0  0  0.009159  0  3.809133  0  0  0.01737  0  3.820263  0  0  0.051427  0.004063  0  3.801644  0
C  C33  1  0.88209500  0.66717870  0.94486163  1  0  0.04754  0  3.552946  0  0  0.009157  0  3.809152  0  0  0.017366  0  3.820281  0  0  0.051405  0.004064  0  3.801659  0
C  C34  1  0.67544131  0.05008180  0.62013810  1  0  0.037017  0  3.554647  0  0  -0.000929  0  3.806117  0  0  0.006361  0  3.818241  0  0  0.051315  -0.005613  0  3.798295  0
C  C35  1  0.32455996  0.94991912  0.37986276  1  0  0.037035  0  3.554577  0  0  -0.000912  0  3.806037  0  0  0.006378  0  3.818161  0  0  0.05134  -0.005596  0  3.798214  0
C  C36  1  0.68501113  0.10790822  0.51001013  1  0  -0.083164  0  3.720178  0  0  -0.09272  0  3.970371  0  0  -0.098508  0  3.989844  0  0  -0.071794  -0.089244  0  3.957621  0
C  C37  1  0.31499017  0.89209172  0.48998994  1  0  -0.083168  0  3.720185  0  0  -0.092716  0  3.970366  0  0  -0.098503  0  3.989838  0  0  -0.071808  -0.089241  0  3.957616  0
C  C38  1  0.68806358  0.24346702  0.49394262  1  0  -0.023002  0  3.711142  0  0  -0.053028  0  3.977084  0  0  -0.048035  0  3.992586  0  0  -0.076506  -0.056139  0  3.966774  0
C  C39  1  0.31193523  0.75653389  0.50605595  1  0  -0.023066  0  3.711186  0  0  -0.053085  0  3.977126  0  0  -0.048092  0  3.992628  0  0  -0.076511  -0.056197  0  3.966818  0
C  C40  1  0.68262458  0.31760703  0.59005731  1  0  -0.08652  0  3.756048  0  0  -0.103507  0  4.022384  0  0  -0.10875  0  4.040705  0  0  -0.081246  -0.100411  0  4.010375  0
C  C41  1  0.31737546  0.68239388  0.40994283  1  0  -0.08649  0  3.75606  0  0  -0.103465  0  4.022372  0  0  -0.108705  0  4.040686  0  0  -0.081211  -0.10037  0  4.010363  0
C  C42  1  0.67386751  0.25671967  0.69874452  1  0  0.023594  0  3.575912  0  0  -0.016897  0  3.83618  0  0  -0.009402  0  3.847699  0  0  0.042994  -0.021715  0  3.828799  0
C  C43  1  0.32613378  0.74328027  0.30125469  1  0  0.023551  0  3.57589  0  0  -0.016934  0  3.836139  0  0  -0.009438  0  3.847658  0  0  0.042954  -0.021749  0  3.82875  0
C  C44  1  0.78838006  0.68153537  0.42694645  1  0  0.600571  0  3.65546  0  0  0.531382  0  4.02251  0  0  0.559183  0  3.995437  0  0  0.28929  0.511355  0  4.042234  0
C  C45  1  0.21161996  0.31846652  0.57305364  1  0  0.600513  0  3.655613  0  0  0.531381  0  4.022575  0  0  0.5592  0  3.995466  0  0  0.289256  0.511352  0  4.042303  0
C  C46  1  0.43290974  0.60758196  0.81955515  1  0  0.608052  0  3.677802  0  0  0.543734  0  4.035451  0  0  0.570975  0  4.009532  0  0  0.294393  0.524215  0  4.054182  0
C  C47  1  0.56708792  0.39241602  0.18044541  1  0  0.607933  0  3.67791  0  0  0.543714  0  4.035398  0  0  0.570952  0  4.009484  0  0  0.294452  0.524202  0  4.054115  0
S  S48  1  0.84915717  0.79737585  0.30048357  1  0  1.103063  0  5.857093  0  0  1.002961  0  6.393959  0  0  1.047814  0  6.373415  0  0  0.474213  0.972083  0  6.407225  0
S  S49  1  0.15084287  0.20262506  0.69951657  1  0  1.103075  0  5.857127  0  0  1.00295  0  6.39399  0  0  1.047801  0  6.373442  0  0  0.474214  0.972075  0  6.407257  0
S  S50  1  0.39138234  0.74499242  0.91656274  1  0  1.099077  0  5.82783  0  0  0.998228  0  6.353564  0  0  1.042419  0  6.335577  0  0  0.474415  0.967784  0  6.364917  0
S  S51  1  0.60861775  0.25500655  0.08343750  1  0  1.099189  0  5.827665  0  0  0.998315  0  6.353389  0  0  1.042505  0  6.335402  0  0  0.474463  0.967871  0  6.36474  0
N  N52  1  0.09469184  0.20697211  0.09466497  1  0  0.275684  0  3.648091  0  0  0.327055  0  3.89879  0  0  0.325741  0  3.921788  0  0  -0.122634  0.327111  0  3.883221  0
N  N53  1  0.90530700  0.79302782  0.90533451  1  0  0.275696  0  3.64806  0  0  0.327077  0  3.898743  0  0  0.325764  0  3.921744  0  0  -0.122635  0.327133  0  3.883175  0
N  N54  1  0.67020106  0.12467318  0.71194206  1  0  0.280819  0  3.683045  0  0  0.334089  0  3.935989  0  0  0.333453  0  3.958656  0  0  -0.120393  0.333698  0  3.92073  0
N  N55  1  0.32980021  0.87532774  0.28805795  1  0  0.28087  0  3.682953  0  0  0.334133  0  3.935893  0  0  0.333496  0  3.95856  0  0  -0.120387  0.333742  0  3.920629  0
O  O56  1  0.10966557  0.11396519  0.01794349  1  0  -0.592134  0  2.000711  0  0  -0.518182  0  2.30076  0  0  -0.54799  0  2.291419  0  0  -0.258738  -0.49692  0  2.30676  0
O  O57  1  0.89033449  0.88603475  0.98205501  1  0  -0.592114  0  2.00072  0  0  -0.518156  0  2.300746  0  0  -0.547963  0  2.291404  0  0  -0.258725  -0.496895  0  2.306748  0
O  O58  1  0.66109055  0.06604453  0.81703669  1  0  -0.592641  0  1.932184  0  0  -0.537395  0  2.230788  0  0  -0.564567  0  2.222069  0  0  -0.262854  -0.517962  0  2.236351  0
O  O59  1  0.33891077  0.93395444  0.18296257  1  0  -0.59268  0  1.932212  0  0  -0.537437  0  2.230817  0  0  -0.564608  0  2.222098  0  0  -0.262866  -0.518006  0  2.236385  0
O  O60  1  0.69073290  0.83717835  0.26681400  1  0  -0.613182  0  2.08189  0  0  -0.570475  0  2.36004  0  0  -0.592099  0  2.345866  0  0  -0.338981  -0.555135  0  2.369253  0
O  O61  1  0.30926714  0.16282256  0.73318615  1  0  -0.613175  0  2.081885  0  0  -0.570462  0  2.360042  0  0  -0.592079  0  2.345851  0  0  -0.338981  -0.555122  0  2.369256  0
O  O62  1  0.93605114  0.89812515  0.34802265  1  0  -0.598702  0  1.984504  0  0  -0.563594  0  2.228856  0  0  -0.583894  0  2.218808  0  0  -0.333789  -0.549209  0  2.235306  0
O  O63  1  0.06395013  0.10187577  0.65197651  1  0  -0.598713  0  1.984527  0  0  -0.563588  0  2.228863  0  0  -0.583894  0  2.218825  0  0  -0.333779  -0.549204  0  2.235314  0
O  O64  1  0.95299997  0.71654562  0.21921389  1  0  -0.611755  0  2.03901  0  0  -0.569669  0  2.311666  0  0  -0.590958  0  2.298587  0  0  -0.334272  -0.554595  0  2.320232  0
O  O65  1  0.04700010  0.28345432  0.78078630  1  0  -0.61176  0  2.039011  0  0  -0.569669  0  2.311664  0  0  -0.590959  0  2.298586  0  0  -0.334279  -0.554595  0  2.320233  0
O  O66  1  0.54969372  0.76484972  0.95418256  1  0  -0.613774  0  2.133375  0  0  -0.569883  0  2.41904  0  0  -0.592212  0  2.40512  0  0  -0.329138  -0.554138  0  2.428231  0
O  O67  1  0.45030637  0.23514924  0.04581683  1  0  -0.613831  0  2.133371  0  0  -0.569936  0  2.419036  0  0  -0.592267  0  2.405118  0  0  -0.329148  -0.554191  0  2.428226  0
O  O68  1  0.33554865  0.85114239  0.84195169  1  0  -0.606873  0  2.029188  0  0  -0.560325  0  2.292228  0  0  -0.582336  0  2.278208  0  0  -0.333141  -0.544545  0  2.301118  0
O  O69  1  0.66445019  0.14885755  0.15804863  1  0  -0.60687  0  2.029147  0  0  -0.560316  0  2.292183  0  0  -0.582325  0  2.278164  0  0  -0.333162  -0.544536  0  2.301071  0
O  O70  1  0.26318571  0.69328243  0.00667869  1  0  -0.604852  0  2.079701  0  0  -0.559043  0  2.352331  0  0  -0.580699  0  2.339318  0  0  -0.330591  -0.543878  0  2.361099  0
O  O71  1  0.73681436  0.30671751  0.99332150  1  0  -0.604887  0  2.07962  0  0  -0.55908  0  2.352255  0  0  -0.580734  0  2.339241  0  0  -0.330603  -0.543917  0  2.361025  0
F  F72  1  0.70431621  0.74516694  0.51579967  1  0  -0.235259  0  1.224286  0  0  -0.188027  0  1.391248  0  0  -0.199196  0  1.377701  0  0  -0.08949  -0.179932  0  1.40079  0
F  F73  1  0.29568502  0.25483593  0.48420110  1  0  -0.235245  0  1.22433  0  0  -0.188031  0  1.39128  0  0  -0.199205  0  1.377725  0  0  -0.0895  -0.179936  0  1.400823  0
F  F74  1  0.69146411  0.58570576  0.40161952  1  0  -0.220914  0  1.20778  0  0  -0.185993  0  1.383828  0  0  -0.196249  0  1.368916  0  0  -0.091142  -0.178488  0  1.394164  0
F  F75  1  0.30853471  0.41429515  0.59838160  1  0  -0.220915  0  1.207828  0  0  -0.186003  0  1.383854  0  0  -0.196264  0  1.368934  0  0  -0.091139  -0.178496  0  1.394191  0
F  F76  1  0.92299924  0.62307177  0.46431557  1  0  -0.242301  0  1.21625  0  0  -0.19472  0  1.385199  0  0  -0.205848  0  1.37136  0  0  -0.090063  -0.186612  0  1.394881  0
F  F77  1  0.07700201  0.37693012  0.53568440  1  0  -0.242257  0  1.216252  0  0  -0.194701  0  1.385198  0  0  -0.205834  0  1.371351  0  0  -0.090023  -0.186594  0  1.394881  0
F  F78  1  0.29171533  0.57311800  0.78365741  1  0  -0.222913  0  1.225893  0  0  -0.185627  0  1.401632  0  0  -0.197029  0  1.388136  0  0  -0.088857  -0.177362  0  1.410942  0
F  F79  1  0.70828111  0.42687999  0.21634497  1  0  -0.222886  0  1.225875  0  0  -0.185627  0  1.401579  0  0  -0.19703  0  1.388083  0  0  -0.088867  -0.177364  0  1.410886  0
F  F80  1  0.49421028  0.50213345  0.87413763  1  0  -0.218337  0  1.219068  0  0  -0.170437  0  1.379349  0  0  -0.180965  0  1.365148  0  0  -0.084777  -0.162853  0  1.389279  0
F  F81  1  0.50579104  0.49786552  0.12586163  1  0  -0.218303  0  1.219129  0  0  -0.170423  0  1.379368  0  0  -0.18095  0  1.365169  0  0  -0.084786  -0.162841  0  1.389297  0
F  F82  1  0.54250035  0.64261810  0.72523198  1  0  -0.22635  0  1.201525  0  0  -0.192382  0  1.374645  0  0  -0.202941  0  1.360278  0  0  -0.0956  -0.1847  0  1.384662  0
F  F83  1  0.45749603  0.35738183  0.27476775  1  0  -0.226321  0  1.201543  0  0  -0.192377  0  1.374625  0  0  -0.202937  0  1.36026  0  0  -0.095638  -0.184698  0  1.384638  0
