# generated using pymatgen
data_CuH8C14(N4O3)2
_symmetry_space_group_name_H-M   'P 1'
_cell_length_a   9.44569708
_cell_length_b   9.40258734
_cell_length_c   14.77460047
_cell_angle_alpha   89.99967976
_cell_angle_beta   90.00101983
_cell_angle_gamma   108.83917413
_symmetry_Int_Tables_number   1
_chemical_formula_structural   CuH8C14(N4O3)2
_chemical_formula_sum   'Cu2 H16 C28 N16 O12'
_cell_volume   1241.89545381
_cell_formula_units_Z   2
loop_
 _symmetry_equiv_pos_site_id
 _symmetry_equiv_pos_as_xyz
  1  'x, y, z'
loop_
 _atom_site_type_symbol
 _atom_site_label
 _atom_site_symmetry_multiplicity
 _atom_site_fract_x
 _atom_site_fract_y
 _atom_site_fract_z
 _atom_site_occupancy
 _atom_site_pbe_bader_charge
 _atom_site_pbe_bader_spin_density
 _atom_site_pbe_cm5_charge
 _atom_site_pbe_ddec_charge
 _atom_site_pbe_ddec_spin_density
 _atom_site_pbe_ddec_sum_bond_order
 _atom_site_pbe_magmom
Cu  Cu0  1  0.50000035  0.99999858  0.49999968  1  1.064171  0.561795  0.754353  0.751507  0.721911  2.251003  0.562
Cu  Cu1  1  0.00000602  0.00000216  0.00000068  1  1.064219  0.561803  0.754347  0.75146  0.72192  2.250997  0.562
H  H2  1  0.71952054  0.67407275  0.79025236  1  0.509907  5.6e-05  0.334154  0.28905  2.4e-05  0.944932  0.0
H  H3  1  0.50182147  0.70159971  0.60361048  1  0.200944  -0.000178  0.156377  0.141847  -0.000266  0.96254  0.0
H  H4  1  0.77502169  0.00189209  0.79516977  1  0.218625  0.000628  0.153408  0.146464  0.000314  0.975647  0.0
H  H5  1  0.69892836  0.59941902  0.11499689  1  0.120494  0.00046  0.114256  0.127474  0.000335  0.989459  0.0
H  H6  1  0.78048643  0.32592333  0.29024997  1  0.510021  5.6e-05  0.334154  0.289157  2.4e-05  0.944838  0.0
H  H7  1  0.99818355  0.29839962  0.10360866  1  0.20088  -0.000178  0.156358  0.141848  -0.000266  0.962512  0.0
H  H8  1  0.72498280  0.99811194  0.29516565  1  0.2187  0.000628  0.153444  0.146566  0.000314  0.975634  0.0
H  H9  1  0.80106885  0.40057819  0.61498834  1  0.120679  0.00046  0.114259  0.127444  0.000335  0.989547  0.0
H  H10  1  0.28048577  0.32592858  0.20974882  1  0.509968  5.6e-05  0.334176  0.289138  2.4e-05  0.944868  0.0
H  H11  1  0.49818468  0.29839484  0.39639002  1  0.20094  -0.000178  0.156384  0.141904  -0.000266  0.962511  0.0
H  H12  1  0.22497869  0.99811047  0.20482938  1  0.218602  0.000628  0.153409  0.146473  0.000313  0.975615  0.0
H  H13  1  0.30107150  0.40059146  0.88500767  1  0.120586  0.00046  0.114223  0.127426  0.000335  0.989569  0.0
H  H14  1  0.21950785  0.67407368  0.70974782  1  0.51005  5.6e-05  0.334175  0.289135  2.4e-05  0.94482  0.0
H  H15  1  0.00181148  0.70159964  0.89639116  1  0.200855  -0.000178  0.156362  0.14182  -0.000266  0.962568  0.0
H  H16  1  0.27501876  0.00188156  0.70483485  1  0.218741  0.000628  0.153417  0.146492  0.000314  0.975632  0.0
H  H17  1  0.19892648  0.59941880  0.38500945  1  0.120603  0.00046  0.114248  0.127445  0.000335  0.989532  0.0
C  C18  1  0.56863962  0.80417186  0.63645420  1  0.999117  -0.000918  0.171935  0.068831  -0.001618  3.879147  0.001
C  C19  1  0.71170274  0.96233754  0.73368038  1  0.966896  0.002577  0.170333  0.067065  0.00202  3.856862  0.003
C  C20  1  0.49888852  0.65945712  0.83246004  1  1.38202  0.000364  0.25756  0.496076  0.000204  4.111716  0.0
C  C21  1  0.50588673  0.57781117  0.91831230  1  0.026986  0.00237  -0.00095  -0.035116  0.001409  3.944771  0.001
C  C22  1  0.61869531  0.63394788  0.98380903  1  0.010746  0.009652  -0.002613  -0.026081  0.006673  3.913585  0.007
C  C23  1  0.61167503  0.55455064  0.06458225  1  -0.075526  0.001514  -0.068036  -0.098123  0.00108  3.908758  0.001
C  C24  1  0.74108175  0.78226117  0.97279191  1  1.589082  -0.001842  0.18933  0.545079  -0.002434  4.263884  -0.004
C  C25  1  0.93136775  0.19582859  0.13645267  1  0.999507  -0.000918  0.171991  0.068842  -0.001618  3.878872  0.001
C  C26  1  0.78830101  0.03766306  0.23367710  1  0.966956  0.002577  0.170253  0.066893  0.00202  3.856933  0.003
C  C27  1  0.00112085  0.34054725  0.33245982  1  1.381978  0.000364  0.25757  0.496066  0.000204  4.111989  0.0
C  C28  1  0.99411765  0.42219185  0.41830998  1  0.026956  0.00237  -0.001037  -0.035213  0.001409  3.944844  0.001
C  C29  1  0.88130869  0.36605181  0.48380427  1  0.010759  0.009651  -0.002645  -0.026161  0.006672  3.913572  0.007
C  C30  1  0.88832403  0.44544989  0.56457657  1  -0.075123  0.001514  -0.06801  -0.098006  0.00108  3.908814  0.001
C  C31  1  0.75892232  0.21773964  0.47278493  1  1.589837  -0.001842  0.189454  0.545145  -0.002434  4.264085  -0.004
C  C32  1  0.43136586  0.19582383  0.36354630  1  0.999594  -0.000918  0.171932  0.068728  -0.001619  3.87904  0.001
C  C33  1  0.28829899  0.03766273  0.26631945  1  0.967259  0.002577  0.170319  0.06705  0.00202  3.856792  0.003
C  C34  1  0.50111750  0.34054647  0.16754046  1  1.382001  0.000364  0.257475  0.49587  0.000204  4.111951  0.0
C  C35  1  0.49411554  0.42219701  0.08169091  1  0.027509  0.00237  -0.000977  -0.035121  0.001409  3.944764  0.001
C  C36  1  0.38130725  0.36605804  0.01619350  1  0.010727  0.00965  -0.002641  -0.026095  0.006671  3.913685  0.007
C  C37  1  0.38832657  0.44545868  0.93542163  1  -0.074972  0.001514  -0.068025  -0.098055  0.00108  3.908988  0.001
C  C38  1  0.25892435  0.21774581  0.02721062  1  1.589585  -0.001843  0.189346  0.54507  -0.002434  4.263996  -0.004
C  C39  1  0.06862901  0.80416951  0.86354648  1  0.999481  -0.000918  0.172009  0.068876  -0.001618  3.879099  0.001
C  C40  1  0.21169845  0.96233048  0.76632205  1  0.966675  0.002577  0.170283  0.066992  0.00202  3.856896  0.003
C  C41  1  0.99887697  0.65945084  0.66753865  1  1.381887  0.000364  0.257625  0.495992  0.000204  4.112045  0.0
C  C42  1  0.00587768  0.57780515  0.58168713  1  0.02718  0.00237  -0.001015  -0.03516  0.001409  3.944872  0.001
C  C43  1  0.11868664  0.63394518  0.51619284  1  0.010699  0.009652  -0.002706  -0.026036  0.006672  3.91352  0.007
C  C44  1  0.11167273  0.55454821  0.43542122  1  -0.074962  0.001514  -0.067951  -0.098012  0.00108  3.908704  0.001
C  C45  1  0.24107098  0.78226078  0.52721422  1  1.589892  -0.001843  0.189395  0.544867  -0.002433  4.264517  -0.004
N  N46  1  0.59575564  0.94247747  0.60613112  1  -0.747673  0.073778  -0.261244  -0.179644  0.050408  3.611002  0.066
N  N47  1  0.68753400  0.04277481  0.66644354  1  -0.674666  0.007935  -0.218666  -0.174626  0.004628  3.162325  0.005
N  N48  1  0.64003711  0.81211250  0.71683647  1  -0.871167  0.00106  -0.126984  0.178009  0.000421  3.777824  0.001
N  N49  1  0.62248166  0.69507211  0.77632583  1  -0.784527  0.001308  -0.302462  -0.327749  0.000803  3.498482  0.001
N  N50  1  0.90424592  0.05752080  0.10612978  1  -0.747757  0.073779  -0.26125  -0.17965  0.050409  3.610967  0.066
N  N51  1  0.81246578  0.95722580  0.16644058  1  -0.674717  0.007936  -0.21862  -0.174551  0.004629  3.162437  0.005
N  N52  1  0.85997249  0.18788799  0.21683346  1  -0.871614  0.00106  -0.127025  0.178013  0.00042  3.777614  0.001
N  N53  1  0.87752825  0.30493068  0.27632125  1  -0.784409  0.001308  -0.302485  -0.327916  0.000803  3.498487  0.001
N  N54  1  0.40424420  0.05751719  0.39386802  1  -0.747731  0.073779  -0.261216  -0.179594  0.050409  3.611055  0.066
N  N55  1  0.31246486  0.95722326  0.33355560  1  -0.674714  0.007936  -0.218688  -0.174671  0.004629  3.16236  0.005
N  N56  1  0.35996912  0.18788544  0.28316268  1  -0.871942  0.00106  -0.126984  0.178074  0.00042  3.777635  0.001
N  N57  1  0.37752398  0.30493036  0.22367669  1  -0.784472  0.001308  -0.302476  -0.327829  0.000803  3.498431  0.001
N  N58  1  0.09575467  0.94247611  0.89386937  1  -0.747708  0.073779  -0.261278  -0.179634  0.050408  3.611072  0.066
N  N59  1  0.18753587  0.04277109  0.83355856  1  -0.674604  0.007934  -0.218632  -0.174594  0.004628  3.162478  0.005
N  N60  1  0.14002208  0.81210676  0.78316500  1  -0.871379  0.00106  -0.127018  0.177941  0.000421  3.777627  0.001
N  N61  1  0.12246738  0.69506405  0.72367789  1  -0.784632  0.001309  -0.302515  -0.327771  0.000803  3.49843  0.001
O  O62  1  0.38495936  0.68783564  0.81011220  1  -1.136271  0.000506  -0.285928  -0.487182  0.000285  2.152421  0.0
O  O63  1  0.71652139  0.88774334  0.93124053  1  -1.16343  0.000882  -0.326301  -0.566501  -0.000693  2.146376  0.002
O  O64  1  0.86739353  0.78811937  0.00946369  1  -1.104286  0.118947  -0.331303  -0.540589  0.075449  2.31024  0.107
O  O65  1  0.11505406  0.31217316  0.31011474  1  -1.136423  0.000506  -0.285915  -0.487131  0.000285  2.15253  0.0
O  O66  1  0.78347665  0.11225867  0.43123151  1  -1.164122  0.000881  -0.326333  -0.566496  -0.000694  2.146415  0.002
O  O67  1  0.63261061  0.21187876  0.50946135  1  -1.104302  0.118949  -0.331367  -0.54065  0.075451  2.310501  0.107
O  O68  1  0.61504666  0.31216795  0.18988627  1  -1.136337  0.000506  -0.28588  -0.487035  0.000285  2.15257  0.0
O  O69  1  0.28348471  0.11226365  0.06876132  1  -1.163927  0.000882  -0.32628  -0.566498  -0.000694  2.14638  0.002
O  O70  1  0.13261039  0.21188426  0.99053680  1  -1.104161  0.118948  -0.331337  -0.5406  0.075449  2.310319  0.107
O  O71  1  0.88494451  0.68782717  0.68988170  1  -1.13643  0.000506  -0.28593  -0.487123  0.000285  2.152505  0.0
O  O72  1  0.21651342  0.88773842  0.56876695  1  -1.164092  0.000881  -0.32624  -0.566345  -0.000695  2.146609  0.002
O  O73  1  0.36738404  0.78811937  0.49054050  1  -1.104243  0.118957  -0.33135  -0.540568  0.075453  2.310668  0.107
