# generated using pymatgen
data_Cu2H8C12SN2Cl
_symmetry_space_group_name_H-M   'P 1'
_cell_length_a   3.48283823
_cell_length_b   16.65242474
_cell_length_c   19.63476642
_cell_angle_alpha   89.99898887
_cell_angle_beta   89.99749653
_cell_angle_gamma   93.29296987
_symmetry_Int_Tables_number   1
_chemical_formula_structural   Cu2H8C12SN2Cl
_chemical_formula_sum   'Cu8 H32 C48 S4 N8 Cl4'
_cell_volume   1136.89106254
_cell_formula_units_Z   4
loop_
 _symmetry_equiv_pos_site_id
 _symmetry_equiv_pos_as_xyz
  1  'x, y, z'
loop_
 _atom_site_type_symbol
 _atom_site_label
 _atom_site_symmetry_multiplicity
 _atom_site_fract_x
 _atom_site_fract_y
 _atom_site_fract_z
 _atom_site_occupancy
 _atom_site_pbe_bader_spin_density
 _atom_site_pbe_cm5_charge
 _atom_site_pbe_ddec_charge
 _atom_site_pbe_ddec_spin_density
 _atom_site_pbe_ddec_sum_bond_order
 _atom_site_pbe_magmom
Cu  Cu0  1  0.15912175  0.60653668  0.87724543  1  0  0.46727  0.422895  0  2.73706  0
Cu  Cu1  1  0.34083413  0.89346658  0.37723818  1  0  0.467259  0.422811  0  2.737125  0
Cu  Cu2  1  0.84086183  0.39346728  0.12276382  1  0  0.467261  0.422802  0  2.737114  0
Cu  Cu3  1  0.65914882  0.10652714  0.62275377  1  0  0.467242  0.422804  0  2.737152  0
Cu  Cu4  1  0.67879137  0.57172102  0.74931246  1  0  0.324999  0.355419  0  2.646541  0
Cu  Cu5  1  0.82115288  0.92827734  0.24930789  1  0  0.324939  0.355274  0  2.646495  0
Cu  Cu6  1  0.32118502  0.42827874  0.25069069  1  0  0.324945  0.355301  0  2.646516  0
Cu  Cu7  1  0.17883213  0.07172239  0.75068965  1  0  0.324966  0.355327  0  2.646304  0
H  H8  1  0.29139427  0.72908417  0.74925268  1  0  0.097734  0.06812  0  1.058228  0
H  H9  1  0.20860801  0.77092873  0.24924266  1  0  0.097662  0.067929  0  1.058183  0
H  H10  1  0.70862742  0.27092208  0.25076015  1  0  0.097649  0.067972  0  1.058151  0
H  H11  1  0.79143006  0.22906664  0.75074470  1  0  0.097681  0.06791  0  1.058134  0
H  H12  1  0.15904369  0.87474877  0.72901198  1  0  0.098781  0.111399  0  1.026387  0
H  H13  1  0.34100514  0.62526810  0.22900821  1  0  0.098769  0.1114  0  1.026507  0
H  H14  1  0.84100156  0.12525921  0.27099219  1  0  0.098836  0.111468  0  1.0265  0
H  H15  1  0.65906756  0.37472776  0.77098424  1  0  0.098773  0.11137  0  1.026493  0
H  H16  1  0.93111176  0.95605983  0.82602000  1  0  0.085943  0.091215  0  1.078703  0
H  H17  1  0.56889242  0.54394248  0.32600375  1  0  0.085921  0.091224  0  1.078772  0
H  H18  1  0.06893615  0.04394754  0.17398925  1  0  0.085925  0.091216  0  1.078728  0
H  H19  1  0.43116470  0.45604982  0.67398463  1  0  0.085977  0.091173  0  1.078777  0
H  H20  1  0.76611316  0.96394824  0.95025480  1  0  0.103295  0.113743  0  0.996944  0
H  H21  1  0.73388309  0.53605344  0.45024555  1  0  0.103259  0.113668  0  0.996921  0
H  H22  1  0.23392062  0.03605978  0.04975293  1  0  0.103255  0.113688  0  0.996874  0
H  H23  1  0.26616420  0.46393528  0.54974792  1  0  0.10332  0.113729  0  0.996858  0
H  H24  1  0.69718843  0.89677507  0.06317702  1  0  0.091054  0.110115  0  1.039056  0
H  H25  1  0.80283715  0.60324270  0.56315776  1  0  0.091112  0.110095  0  1.039034  0
H  H26  1  0.30278429  0.10323915  0.93683427  1  0  0.091046  0.110068  0  1.038937  0
H  H27  1  0.19717204  0.39676057  0.43683010  1  0  0.091076  0.110181  0  1.038841  0
H  H28  1  0.73534110  0.77219417  0.13434494  1  0  0.096836  0.108466  0  1.022247  0
H  H29  1  0.76465585  0.72780809  0.63432513  1  0  0.096921  0.108659  0  1.022099  0
H  H30  1  0.26462403  0.22780623  0.86566432  1  0  0.096903  0.108604  0  1.022142  0
H  H31  1  0.23533448  0.27219043  0.36566121  1  0  0.096884  0.108601  0  1.02215  0
H  H32  1  0.87485144  0.62446832  0.13925669  1  0  0.09943  0.118846  0  1.014397  0
H  H33  1  0.62516373  0.87554038  0.63924237  1  0  0.099427  0.118964  0  1.014326  0
H  H34  1  0.12518479  0.37553849  0.86074951  1  0  0.099448  0.118952  0  1.014358  0
H  H35  1  0.37475673  0.12445533  0.36074906  1  0  0.099429  0.118968  0  1.014117  0
H  H36  1  0.08065264  0.55675184  0.03477670  1  0  0.106909  0.085496  0  1.01316  0
H  H37  1  0.41936768  0.94325125  0.53476115  1  0  0.106875  0.085518  0  1.013212  0
H  H38  1  0.91937601  0.44324957  0.96522950  1  0  0.106854  0.085433  0  1.013321  0
H  H39  1  0.58057347  0.05673778  0.46522417  1  0  0.106895  0.085462  0  1.013132  0
C  C40  1  0.19576630  0.76698872  0.79056469  1  0  0.04479  0.099049  0  3.949801  0
C  C41  1  0.30420760  0.73302144  0.29055806  1  0  0.044716  0.099153  0  3.949691  0
C  C42  1  0.80423776  0.23301637  0.20944254  1  0  0.044882  0.099221  0  3.949706  0
C  C43  1  0.69581920  0.26697457  0.70943031  1  0  0.044897  0.099432  0  3.949493  0
C  C44  1  0.12054474  0.84786430  0.77938777  1  0  -0.0895  -0.126916  0  3.969507  0
C  C45  1  0.37943160  0.65214492  0.27938178  1  0  -0.089389  -0.126755  0  3.969523  0
C  C46  1  0.87947981  0.15214194  0.22062149  1  0  -0.089539  -0.126975  0  3.969504  0
C  C47  1  0.62060606  0.34784924  0.72061169  1  0  -0.089497  -0.127012  0  3.969638  0
C  C48  1  0.99747375  0.89334902  0.83316010  1  0  -0.068922  -0.06592  0  3.91711  0
C  C49  1  0.50249685  0.60665261  0.33315004  1  0  -0.068858  -0.066019  0  3.916991  0
C  C50  1  0.00255040  0.10665602  0.16684763  1  0  -0.06891  -0.065963  0  3.916816  0
C  C51  1  0.49756663  0.39334147  0.66683986  1  0  -0.06891  -0.065775  0  3.917036  0
C  C52  1  0.95367826  0.85812890  0.89818346  1  0  -0.003552  0.045818  0  4.002905  0
C  C53  1  0.54626918  0.64186879  0.39817254  1  0  -0.003637  0.045789  0  4.002432  0
C  C54  1  0.04630593  0.14187685  0.10182529  1  0  -0.003545  0.045919  0  4.002716  0
C  C55  1  0.45377913  0.35812294  0.60181482  1  0  -0.003489  0.045728  0  4.002618  0
C  C56  1  0.82970326  0.90096565  0.95665490  1  0  -0.086272  -0.120804  0  3.979417  0
C  C57  1  0.67025980  0.59903597  0.45664214  1  0  -0.086137  -0.12068  0  3.978978  0
C  C58  1  0.17030224  0.09904366  0.04335283  1  0  -0.086165  -0.120799  0  3.979295  0
C  C59  1  0.32979159  0.40095634  0.54334471  1  0  -0.086212  -0.120699  0  3.979365  0
C  C60  1  0.79186754  0.86420212  0.01867217  1  0  -0.087591  -0.119676  0  3.980851  0
C  C61  1  0.70809254  0.63580190  0.51866283  1  0  -0.087727  -0.119762  0  3.980759  0
C  C62  1  0.20808571  0.13580554  0.98133352  1  0  -0.087605  -0.119683  0  3.980927  0
C  C63  1  0.29193119  0.36419351  0.48132911  1  0  -0.087642  -0.119813  0  3.980801  0
C  C64  1  0.86971008  0.78119723  0.02689312  1  0  -0.001904  0.049179  0  3.987819  0
C  C65  1  0.63022311  0.71880125  0.52687651  1  0  -0.001593  0.049481  0  3.987716  0
C  C66  1  0.13021817  0.21880448  0.97311563  1  0  -0.001789  0.049442  0  3.988015  0
C  C67  1  0.36977848  0.28118820  0.47310983  1  0  -0.001813  0.049278  0  3.98795  0
C  C68  1  0.98778427  0.73678993  0.96967579  1  0  0.109877  0.115655  0  3.964398  0
C  C69  1  0.51216502  0.76321442  0.46965976  1  0  0.109593  0.115462  0  3.964533  0
C  C70  1  0.01217041  0.26321351  0.03033449  1  0  0.109648  0.115476  0  3.964555  0
C  C71  1  0.48783289  0.23678106  0.53032556  1  0  0.109637  0.115321  0  3.96496  0
C  C72  1  0.03421727  0.77586771  0.90460021  1  0  0.111278  0.122036  0  3.961643  0
C  C73  1  0.46570745  0.72413135  0.40458841  1  0  0.111134  0.121975  0  3.961421  0
C  C74  1  0.96575791  0.22413687  0.09540803  1  0  0.111157  0.121785  0  3.961703  0
C  C75  1  0.53430583  0.27585867  0.59539488  1  0  0.111085  0.121962  0  3.961583  0
C  C76  1  0.82921805  0.73982828  0.08962771  1  0  -0.068645  -0.072064  0  3.911195  0
C  C77  1  0.67074934  0.76018119  0.58961374  1  0  -0.068822  -0.072395  0  3.911346  0
C  C78  1  0.17072044  0.26017821  0.91038053  1  0  -0.06879  -0.072379  0  3.911281  0
C  C79  1  0.32923095  0.23981314  0.41037361  1  0  -0.068796  -0.072307  0  3.91138  0
C  C80  1  0.90499309  0.65935937  0.09247450  1  0  -0.086888  -0.122893  0  3.969481  0
C  C81  1  0.59499980  0.84064273  0.59245839  1  0  -0.086774  -0.122804  0  3.97026  0
C  C82  1  0.09501139  0.34064693  0.90753221  1  0  -0.086803  -0.12285  0  3.96968  0
C  C83  1  0.40496861  0.15935043  0.40752999  1  0  -0.086761  -0.122874  0  3.969577  0
C  C84  1  0.01811663  0.62018221  0.03298322  1  0  0.054376  0.117551  0  3.919903  0
C  C85  1  0.48186686  0.87982104  0.53297221  1  0  0.054247  0.117137  0  3.920281  0
C  C86  1  0.98188129  0.37982170  0.96702298  1  0  0.054324  0.117389  0  3.920025  0
C  C87  1  0.51809847  0.12017153  0.46702024  1  0  0.054332  0.117459  0  3.919864  0
S  S88  1  0.63191424  0.52841975  0.85102540  1  0  -0.445117  -0.597068  0  3.047912  0
S  S89  1  0.86804156  0.97158510  0.35102034  1  0  -0.444986  -0.596904  0  3.047909  0
S  S90  1  0.36805356  0.47158846  0.14897774  1  0  -0.445027  -0.596957  0  3.047939  0
S  S91  1  0.13194550  0.02841222  0.64897619  1  0  -0.445029  -0.596949  0  3.047829  0
N  N92  1  0.05757719  0.65739909  0.97317172  1  0  -0.34355  -0.248939  0  3.584513  0
N  N93  1  0.44237778  0.84260361  0.47315680  1  0  -0.343378  -0.248589  0  3.584464  0
N  N94  1  0.94237811  0.34260615  0.02683550  1  0  -0.343384  -0.248626  0  3.584255  0
N  N95  1  0.55759944  0.15739013  0.52682954  1  0  -0.343417  -0.248608  0  3.584517  0
N  N96  1  0.15261218  0.73145069  0.85126408  1  0  -0.33901  -0.260759  0  3.572815  0
N  N97  1  0.34732287  0.76855688  0.35125965  1  0  -0.338889  -0.260754  0  3.572868  0
N  N98  1  0.84736074  0.26855570  0.14874467  1  0  -0.338958  -0.260634  0  3.572857  0
N  N99  1  0.65270639  0.23143791  0.64873178  1  0  -0.338961  -0.260753  0  3.572557  0
Cl  Cl100  1  0.18092115  0.59809136  0.67809815  1  0  -0.271662  -0.399947  0  1.822686  0
Cl  Cl101  1  0.31905952  0.90190771  0.17809246  1  0  -0.271614  -0.399881  0  1.822802  0
Cl  Cl102  1  0.81906057  0.40190718  0.32190601  1  0  -0.271629  -0.399893  0  1.822773  0
Cl  Cl103  1  0.68092078  0.09809505  0.82190712  1  0  -0.271642  -0.399907  0  1.822663  0
