# generated using pymatgen
data_CuH14(C11N6)2
_symmetry_space_group_name_H-M   'P 1'
_cell_length_a   9.00026843
_cell_length_b   15.99382593
_cell_length_c   15.99297635
_cell_angle_alpha   116.56254838
_cell_angle_beta   100.81947000
_cell_angle_gamma   100.79793077
_symmetry_Int_Tables_number   1
_chemical_formula_structural   CuH14(C11N6)2
_chemical_formula_sum   'Cu3 H42 C66 N36'
_cell_volume   1923.71963546
_cell_formula_units_Z   3
loop_
 _symmetry_equiv_pos_site_id
 _symmetry_equiv_pos_as_xyz
  1  'x, y, z'
loop_
 _atom_site_type_symbol
 _atom_site_label
 _atom_site_symmetry_multiplicity
 _atom_site_fract_x
 _atom_site_fract_y
 _atom_site_fract_z
 _atom_site_occupancy
 _atom_site_pbe_bader_charge
 _atom_site_pbe_bader_spin_density
 _atom_site_pbe_cm5_charge
 _atom_site_pbe_ddec_charge
 _atom_site_pbe_ddec_spin_density
 _atom_site_pbe_ddec_sum_bond_order
 _atom_site_pbe_magmom
Cu  Cu0  1  0.50000210  0.50000045  0.50000163  1  1.023292  0.561479  0.785575  0.563984  0.719993  2.509577  0.559
Cu  Cu1  1  0.00000059  0.49999586  0.99999909  1  1.023678  0.561392  0.785117  0.560842  0.719887  2.511929  0.559
Cu  Cu2  1  0.00000017  0.00000361  0.50000120  1  1.024521  0.561704  0.785457  0.56291  0.720356  2.511172  0.56
H  H3  1  0.02134728  0.36645847  0.14209719  1  0.098161  -6e-06  0.118226  0.090176  -1.3e-05  0.996595  0.0
H  H4  1  0.87923537  0.85791418  0.22443019  1  0.097615  -6e-06  0.116708  0.088729  -1.3e-05  0.997018  0.0
H  H5  1  0.65485877  0.77563718  0.63358450  1  0.098175  -6e-06  0.11709  0.089519  -1.3e-05  0.996087  0.0
H  H6  1  0.97865396  0.63353875  0.85790473  1  0.098189  -6e-06  0.118191  0.090168  -1.3e-05  0.996572  0.0
H  H7  1  0.12076660  0.14208451  0.77556434  1  0.097578  -6e-06  0.116712  0.088735  -1.3e-05  0.997035  0.0
H  H8  1  0.34514204  0.22436371  0.36641714  1  0.098164  -6e-06  0.117119  0.089562  -1.3e-05  0.996139  0.0
H  H9  1  0.17292205  0.24938143  0.14888514  1  0.10176  -1.8e-05  0.110611  0.086079  -2.5e-05  1.004309  0.0
H  H10  1  0.02402062  0.85110620  0.10059050  1  0.063629  -2.2e-05  0.110875  0.085232  -2.7e-05  1.004825  0.0
H  H11  1  0.92346931  0.89949492  0.75059459  1  0.095815  -1.8e-05  0.110548  0.085252  -2.5e-05  1.005728  0.0
H  H12  1  0.82707955  0.75061652  0.85111777  1  0.101835  -1.8e-05  0.110638  0.086175  -2.5e-05  1.004313  0.0
H  H13  1  0.97598132  0.14889469  0.89940501  1  0.06367  -2.2e-05  0.110829  0.085111  -2.7e-05  1.004948  0.0
H  H14  1  0.07653110  0.10050744  0.24940579  1  0.095612  -1.8e-05  0.110574  0.085294  -2.5e-05  1.005707  0.0
H  H15  1  0.40561491  0.29365613  0.96376927  1  0.104889  5e-06  0.118589  0.100645  -0.0  0.978744  0.0
H  H16  1  0.44171524  0.03637035  0.33000682  1  0.092105  5e-06  0.118975  0.101191  -1e-06  0.9802  0.0
H  H17  1  0.11201422  0.67011813  0.70632886  1  0.12162  5e-06  0.11965  0.101018  -1e-06  0.980028  0.0
H  H18  1  0.59438819  0.70634256  0.03623413  1  0.104867  5e-06  0.118605  0.100639  -0.0  0.978712  0.0
H  H19  1  0.55828673  0.96362834  0.66999083  1  0.0921  5e-06  0.118991  0.10121  -1e-06  0.980194  0.0
H  H20  1  0.88799031  0.32988570  0.29367136  1  0.121648  5e-06  0.119667  0.101046  -1e-06  0.980016  0.0
H  H21  1  0.46868726  0.36073951  0.73297174  1  0.110094  0.001336  0.106961  0.11813  0.000684  1.031434  0.001
H  H22  1  0.73595591  0.26689254  0.62780577  1  0.115199  0.001329  0.106935  0.117966  0.000683  1.032802  0.001
H  H23  1  0.10828441  0.37222857  0.63918422  1  0.116717  0.001331  0.10703  0.1185  0.000683  1.032403  0.001
H  H24  1  0.53131544  0.63926065  0.26703040  1  0.110151  0.001335  0.10696  0.118126  0.000684  1.031399  0.001
H  H25  1  0.26404569  0.73310542  0.37219214  1  0.115224  0.001329  0.106925  0.117912  0.000683  1.03285  0.001
H  H26  1  0.89172509  0.62777159  0.36081800  1  0.116635  0.001331  0.107016  0.118464  0.000683  1.032452  0.001
H  H27  1  0.54165533  0.37631010  0.59542239  1  0.127026  0.002094  0.117131  0.090926  0.000892  1.019905  0.001
H  H28  1  0.94626407  0.40450734  0.78090033  1  0.136387  0.002086  0.117376  0.090179  0.000892  1.020227  0.001
H  H29  1  0.16548807  0.21911210  0.62375614  1  0.124408  0.002094  0.116528  0.089825  0.000894  1.019443  0.001
H  H30  1  0.45835114  0.62369079  0.40458048  1  0.127037  0.002094  0.117142  0.090923  0.000892  1.019903  0.001
H  H31  1  0.05374095  0.59548841  0.21909946  1  0.136387  0.002086  0.117407  0.090232  0.000892  1.020205  0.001
H  H32  1  0.83451653  0.78088732  0.37624462  1  0.124292  0.002094  0.116515  0.089807  0.000894  1.019554  0.001
H  H33  1  0.40265030  0.62656253  0.66817137  1  0.118273  0.001844  0.119383  0.090597  0.000791  1.01307  0.001
H  H34  1  0.73451200  0.33187322  0.95843067  1  0.138757  0.001826  0.118998  0.090001  0.00079  1.01399  0.001
H  H35  1  0.77613352  0.04167839  0.37358380  1  0.105985  0.001849  0.118677  0.089718  0.00079  1.013796  0.001
H  H36  1  0.59735580  0.37343763  0.33183113  1  0.118124  0.001844  0.119415  0.090612  0.000791  1.012992  0.001
H  H37  1  0.26548700  0.66812179  0.04156565  1  0.138708  0.001826  0.118976  0.089912  0.00079  1.014078  0.001
H  H38  1  0.22386689  0.95832397  0.62641846  1  0.105921  0.001849  0.11869  0.089702  0.00079  1.013793  0.001
H  H39  1  0.31917098  0.61887364  0.80592915  1  0.099167  0.001311  0.112124  0.119764  0.00067  0.996522  0.001
H  H40  1  0.51328331  0.19413579  0.81300747  1  0.103604  0.001301  0.112804  0.120751  0.00067  0.996703  0.001
H  H41  1  0.70042603  0.18711932  0.38121896  1  0.09758  0.001309  0.112985  0.121419  0.000669  0.99682  0.001
H  H42  1  0.68083359  0.38112799  0.19407196  1  0.098904  0.001311  0.112113  0.119718  0.00067  0.996539  0.001
H  H43  1  0.48671264  0.80586216  0.18698984  1  0.10363  0.001301  0.112793  0.120692  0.00067  0.99677  0.001
H  H44  1  0.29957814  0.81288378  0.61878340  1  0.097697  0.001308  0.112978  0.121396  0.000669  0.99688  0.001
C  C45  1  0.10733168  0.34927677  0.10191259  1  0.532144  -8.9e-05  0.049634  0.053228  -5e-05  3.96547  0.0
C  C46  1  0.00538514  0.89815156  0.24745695  1  0.515048  -9.1e-05  0.051231  0.054625  -5.1e-05  3.967169  0.0
C  C47  1  0.75803650  0.75263499  0.65077689  1  0.535129  -8.4e-05  0.051504  0.054133  -4.7e-05  3.965887  0.0
C  C48  1  0.89266843  0.65072045  0.89808921  1  0.532307  -8.8e-05  0.049708  0.053204  -4.9e-05  3.965371  0.0
C  C49  1  0.99461642  0.10184860  0.75253882  1  0.5151  -9.2e-05  0.051214  0.054556  -5.2e-05  3.967137  0.0
C  C50  1  0.24196617  0.24736737  0.34922560  1  0.534996  -8.4e-05  0.051483  0.054088  -4.7e-05  3.965879  0.0
C  C51  1  0.19135891  0.28513251  0.10565758  1  0.474872  -0.000746  0.037111  0.022879  -0.000883  3.979511  0.0
C  C52  1  0.08566795  0.89438289  0.17956821  1  0.523271  -0.000747  0.039963  0.027812  -0.000885  3.979324  0.0
C  C53  1  0.90620179  0.82052539  0.71487234  1  0.481239  -0.000752  0.039243  0.027619  -0.000888  3.979128  0.0
C  C54  1  0.80864233  0.71486471  0.89434434  1  0.474772  -0.000746  0.037017  0.022669  -0.000884  3.9796  0.0
C  C55  1  0.91433362  0.10561727  0.82042819  1  0.523123  -0.000747  0.040106  0.028166  -0.000885  3.979239  0.0
C  C56  1  0.09380089  0.17947698  0.28512890  1  0.481582  -0.000752  0.039206  0.027544  -0.000888  3.979235  0.0
C  C57  1  0.31867679  0.30838325  0.00345716  1  0.518071  -0.000538  0.052878  0.017546  -0.000626  3.928516  0.0
C  C58  1  0.31510561  0.99666639  0.30502612  1  0.536462  -0.000535  0.053739  0.017164  -0.000622  3.93123  0.0
C  C59  1  0.01033944  0.69509436  0.69165411  1  0.538362  -0.000537  0.052004  0.018288  -0.000629  3.928313  0.0
C  C60  1  0.68132557  0.69161397  0.99654425  1  0.518414  -0.000538  0.052832  0.017537  -0.000626  3.92837  0.0
C  C61  1  0.68489635  0.00333230  0.69497090  1  0.536153  -0.000536  0.053689  0.01712  -0.000623  3.93132  0.0
C  C62  1  0.98966436  0.30490800  0.30834663  1  0.539192  -0.000537  0.051991  0.018246  -0.000629  3.928391  0.0
C  C63  1  0.23401522  0.37242156  0.99842034  1  0.504225  -0.000194  0.128244  0.130697  -0.000314  4.005272  0.0
C  C64  1  0.23551349  0.00172629  0.37409199  1  0.518573  -0.000205  0.126592  0.12971  -0.000323  4.004709  0.0
C  C65  1  0.86165668  0.62602977  0.62769836  1  0.507052  -0.000192  0.127185  0.129335  -0.000312  4.00337  0.0
C  C66  1  0.76598678  0.62757492  0.00157945  1  0.504278  -0.000194  0.128276  0.130717  -0.000314  4.005003  0.0
C  C67  1  0.76448544  0.99827313  0.62590442  1  0.518566  -0.000205  0.126741  0.129881  -0.000323  4.004774  0.0
C  C68  1  0.13834676  0.37397186  0.37230326  1  0.506987  -0.000192  0.127146  0.129212  -0.000312  4.003465  0.0
C  C69  1  0.25411449  0.42060567  0.94095659  1  0.996057  0.001286  0.197753  0.220929  0.000669  4.07786  0.003
C  C70  1  0.31313069  0.05915766  0.47972753  1  0.966541  0.00133  0.197118  0.219808  0.000642  4.080561  0.003
C  C71  1  0.83364539  0.52039857  0.57951345  1  0.9774  0.00126  0.199249  0.223437  0.000659  4.075963  0.003
C  C72  1  0.74588714  0.57939008  0.05904158  1  0.995639  0.001285  0.19773  0.220813  0.000669  4.077833  0.003
C  C73  1  0.68686788  0.94084102  0.52026851  1  0.966535  0.001329  0.197154  0.219846  0.000641  4.080572  0.003
C  C74  1  0.16636068  0.47960380  0.42048941  1  0.977411  0.00126  0.199355  0.223658  0.000659  4.075957  0.003
C  C75  1  0.32005472  0.47372001  0.85027438  1  0.949509  0.005412  0.195125  0.239222  0.004162  4.084198  0.006
C  C76  1  0.46991744  0.14969134  0.62348429  1  0.943838  0.005422  0.193365  0.234765  0.004159  4.085823  0.006
C  C77  1  0.84664035  0.37662736  0.52628963  1  0.928087  0.005384  0.193924  0.237741  0.004153  4.087362  0.006
C  C78  1  0.67994652  0.52627721  0.14972566  1  0.948551  0.005414  0.195149  0.239303  0.004162  4.084127  0.006
C  C79  1  0.53008113  0.85030735  0.37651238  1  0.943189  0.005421  0.193322  0.234676  0.004158  4.085811  0.006
C  C80  1  0.15336835  0.62337574  0.47371321  1  0.927719  0.005384  0.193916  0.237565  0.004153  4.087318  0.006
C  C81  1  0.38382804  0.48722988  0.77864704  1  -0.027784  -0.002505  0.016577  0.075803  -0.003075  3.998588  -0.002
C  C82  1  0.60536161  0.22127314  0.70862411  1  -0.037391  -0.002498  0.015777  0.076459  -0.003074  3.999229  -0.002
C  C83  1  0.89687668  0.29146816  0.51276346  1  -0.017599  -0.00252  0.015177  0.075388  -0.003091  4.000456  -0.002
C  C84  1  0.61617430  0.51276954  0.22135473  1  -0.028243  -0.002505  0.016615  0.075832  -0.003076  3.9985  -0.002
C  C85  1  0.39463623  0.77872407  0.29137308  1  -0.036264  -0.002498  0.015784  0.076412  -0.003074  3.999227  -0.002
C  C86  1  0.10313202  0.70853493  0.48723938  1  -0.017648  -0.002519  0.015287  0.07575  -0.00309  4.000296  -0.002
C  C87  1  0.45275297  0.42045237  0.72045246  1  -0.042538  0.006358  -0.085982  -0.161659  0.004278  3.921429  0.005
C  C88  1  0.73249820  0.27942271  0.70002258  1  0.031565  0.006228  -0.084214  -0.159708  0.004277  3.921878  0.005
C  C89  1  0.03258668  0.30001913  0.57952106  1  0.005587  0.00623  -0.084695  -0.160469  0.004281  3.921749  0.005
C  C90  1  0.54724937  0.57954705  0.27955056  1  -0.042412  0.006359  -0.085961  -0.161637  0.004278  3.921392  0.005
C  C91  1  0.26750266  0.72057377  0.29997397  1  0.030981  0.006227  -0.084229  -0.159705  0.004277  3.92202  0.005
C  C92  1  0.96742016  0.69998250  0.42048155  1  0.005944  0.006229  -0.084778  -0.160561  0.004281  3.921759  0.005
C  C93  1  0.49354807  0.42910416  0.64457378  1  0.497234  -0.000279  0.041417  0.088926  -0.000793  3.938979  0.0
C  C94  1  0.84909970  0.35533838  0.78456572  1  0.405934  -9.7e-05  0.040797  0.088952  -0.000787  3.93951  0.0
C  C95  1  0.06462014  0.21547125  0.57093096  1  0.436015  -0.000179  0.043089  0.090863  -0.000798  3.935939  0.0
C  C96  1  0.50645653  0.57089526  0.35542698  1  0.49729  -0.000279  0.041386  0.088951  -0.000794  3.939073  0.0
C  C97  1  0.15090306  0.64465737  0.21543320  1  0.406047  -9.7e-05  0.040729  0.088898  -0.000787  3.939584  0.0
C  C98  1  0.93538406  0.78452965  0.42906979  1  0.436042  -0.000178  0.043058  0.090804  -0.000797  3.935886  0.0
C  C99  1  0.41475358  0.56870944  0.68491328  1  0.421248  -0.000316  0.041986  0.091766  -0.000971  3.944222  0.0
C  C100  1  0.72992624  0.31507268  0.88384779  1  0.454362  -0.00043  0.043725  0.092414  -0.00098  3.943254  0.0
C  C101  1  0.84614719  0.11625330  0.43138797  1  0.473052  -0.000461  0.043777  0.093426  -0.000974  3.943681  0.0
C  C102  1  0.58525175  0.43129145  0.31508821  1  0.421482  -0.000315  0.041984  0.091845  -0.00097  3.944307  0.0
C  C103  1  0.27007276  0.68492233  0.11614978  1  0.45432  -0.000429  0.043704  0.092452  -0.000979  3.943182  0.0
C  C104  1  0.15385662  0.88374907  0.56861402  1  0.47307  -0.000461  0.043746  0.093509  -0.000973  3.943631  0.0
C  C105  1  0.36871827  0.56420466  0.76101973  1  0.039613  0.005354  -0.076233  -0.154165  0.003654  3.948077  0.004
C  C106  1  0.60781521  0.23895607  0.80322400  1  -0.031991  0.005468  -0.078134  -0.156797  0.003653  3.948846  0.004
C  C107  1  0.80469435  0.19688220  0.43585413  1  0.018286  0.005456  -0.078161  -0.157543  0.003659  3.949775  0.004
C  C108  1  0.63128520  0.43579476  0.23898404  1  0.040151  0.005353  -0.076295  -0.154182  0.003654  3.948287  0.004
C  C109  1  0.39218340  0.76104041  0.19677231  1  -0.032001  0.005468  -0.078069  -0.156633  0.003653  3.94871  0.004
C  C110  1  0.19531209  0.80312090  0.56414847  1  0.01814  0.005456  -0.078179  -0.157668  0.003659  3.949936  0.004
N  N111  1  0.12780487  0.39246170  0.04836330  1  -1.188851  -0.001321  -0.300992  -0.264767  -0.001617  3.395194  0.0
N  N112  1  0.07935636  0.95174728  0.34418713  1  -1.20515  -0.001346  -0.300618  -0.264356  -0.001642  3.396223  0.0
N  N113  1  0.73535168  0.65592080  0.60765531  1  -1.195697  -0.001346  -0.300289  -0.263901  -0.001633  3.394702  0.0
N  N114  1  0.87219336  0.60753405  0.95163640  1  -1.18912  -0.001321  -0.301009  -0.264668  -0.001618  3.394893  0.0
N  N115  1  0.92064221  0.04825141  0.65580829  1  -1.205056  -0.001346  -0.300678  -0.264455  -0.001642  3.396346  0.0
N  N116  1  0.26465063  0.34408083  0.39234744  1  -1.195712  -0.001345  -0.300311  -0.263883  -0.001633  3.394675  0.0
N  N117  1  0.29727649  0.26454352  0.05634390  1  -1.171179  -3.7e-05  -0.312014  -0.230847  -1.2e-05  3.313776  0.0
N  N118  1  0.24085785  0.94374906  0.20830517  1  -1.166559  -4.4e-05  -0.315203  -0.234545  -1.7e-05  3.317025  0.0
N  N119  1  0.03274750  0.79180785  0.73545154  1  -1.207385  -4.1e-05  -0.314831  -0.23597  -9e-06  3.314422  0.0
N  N120  1  0.70272738  0.73545443  0.94365925  1  -1.171362  -3.7e-05  -0.31198  -0.230759  -1.2e-05  3.313759  0.0
N  N121  1  0.75914485  0.05625110  0.79169197  1  -1.166155  -4.4e-05  -0.315319  -0.234743  -1.7e-05  3.317142  0.0
N  N122  1  0.96725667  0.20819525  0.26454832  1  -1.208098  -4.1e-05  -0.314797  -0.23589  -9e-06  3.314554  0.0
N  N123  1  0.17248877  0.48425594  0.94190810  1  -0.716965  0.086398  -0.267955  -0.200516  0.058044  3.667225  0.075
N  N124  1  0.23065106  0.05816606  0.54244605  1  -0.709013  0.086363  -0.268963  -0.201708  0.058083  3.667589  0.075
N  N125  1  0.68841716  0.45772327  0.51585495  1  -0.711225  0.086465  -0.270493  -0.203557  0.05808  3.668644  0.075
N  N126  1  0.82751024  0.51573907  0.05809072  1  -0.716666  0.086398  -0.267984  -0.200553  0.058044  3.667086  0.075
N  N127  1  0.76934978  0.94183263  0.45755023  1  -0.708986  0.086358  -0.269024  -0.201794  0.05808  3.667564  0.075
N  N128  1  0.31158967  0.54227836  0.48414891  1  -0.71131  0.086465  -0.27057  -0.203672  0.05808  3.668677  0.075
N  N129  1  0.21383746  0.51919534  0.88477356  1  -0.651167  0.009878  -0.231841  -0.26993  0.005942  3.198567  0.007
N  N130  1  0.32924877  0.11521878  0.63450131  1  -0.64485  0.009871  -0.230288  -0.267675  0.005947  3.197591  0.007
N  N131  1  0.69494250  0.36566615  0.48084384  1  -0.652775  0.009865  -0.230826  -0.269442  0.005936  3.200596  0.007
N  N132  1  0.78616267  0.48079967  0.11522601  1  -0.650516  0.009874  -0.231805  -0.26988  0.00594  3.198587  0.007
N  N133  1  0.67075093  0.88477991  0.36549485  1  -0.644962  0.009872  -0.230272  -0.267632  0.005948  3.197393  0.007
N  N134  1  0.30506470  0.63433622  0.51915976  1  -0.652601  0.009865  -0.230822  -0.26944  0.005936  3.200562  0.007
N  N135  1  0.34807715  0.41135415  0.88312515  1  -1.180179  0.004573  -0.339805  -0.411705  0.002487  3.150942  0.003
N  N136  1  0.46494421  0.11691099  0.52825556  1  -1.163276  0.004534  -0.338703  -0.409052  0.002465  3.152754  0.003
N  N137  1  0.93694269  0.47183428  0.58871609  1  -1.168012  0.004564  -0.339686  -0.412428  0.002491  3.150124  0.003
N  N138  1  0.65192558  0.58864381  0.11687476  1  -1.180021  0.004574  -0.339762  -0.411692  0.002488  3.150812  0.003
N  N139  1  0.53505360  0.88308843  0.47174199  1  -1.163141  0.004533  -0.338698  -0.409004  0.002464  3.15266  0.003
N  N140  1  0.06306375  0.52816882  0.41128651  1  -1.167746  0.004564  -0.339688  -0.412402  0.002491  3.150159  0.003
N  N141  1  0.47275984  0.50107863  0.62590607  1  -1.225181  0.099488  -0.341152  -0.224432  0.066057  3.605782  0.087
N  N142  1  0.84693509  0.37403286  0.87518999  1  -1.199203  0.099489  -0.341454  -0.222515  0.066117  3.605168  0.087
N  N143  1  0.97178316  0.12485810  0.49901988  1  -1.217362  0.099523  -0.341927  -0.224698  0.066104  3.605078  0.087
N  N144  1  0.52724662  0.49892226  0.37409742  1  -1.225313  0.099485  -0.34118  -0.224565  0.066056  3.605737  0.087
N  N145  1  0.15306544  0.62596068  0.12480645  1  -1.199202  0.099489  -0.34138  -0.222447  0.066117  3.604911  0.087
N  N146  1  0.02822065  0.87514426  0.50098211  1  -1.217712  0.099523  -0.341868  -0.224725  0.066106  3.604924  0.087
