# generated using pymatgen
data_ZnH12C14N2O5
_symmetry_space_group_name_H-M   'P 1'
_cell_length_a   8.65171165
_cell_length_b   11.11648485
_cell_length_c   16.10080000
_cell_angle_alpha   100.75849046
_cell_angle_beta   90.00000000
_cell_angle_gamma   90.00000000
_symmetry_Int_Tables_number   1
_chemical_formula_structural   ZnH12C14N2O5
_chemical_formula_sum   'Zn4 H48 C56 N8 O20'
_cell_volume   1521.30180971
_cell_formula_units_Z   4
loop_
 _symmetry_equiv_pos_site_id
 _symmetry_equiv_pos_as_xyz
  1  'x, y, z'
loop_
 _atom_site_type_symbol
 _atom_site_label
 _atom_site_symmetry_multiplicity
 _atom_site_fract_x
 _atom_site_fract_y
 _atom_site_fract_z
 _atom_site_occupancy
 _atom_site_hle17_bader_spin_density
 _atom_site_hle17_ddec_charge
 _atom_site_hle17_ddec_spin_density
 _atom_site_hle17_ddec_sum_bond_order
 _atom_site_hle17_magmom
 _atom_site_hse06_10hf_bader_spin_density
 _atom_site_hse06_10hf_ddec_charge
 _atom_site_hse06_10hf_ddec_spin_density
 _atom_site_hse06_10hf_ddec_sum_bond_order
 _atom_site_hse06_10hf_magmom
 _atom_site_hse06_bader_spin_density
 _atom_site_hse06_ddec_charge
 _atom_site_hse06_ddec_spin_density
 _atom_site_hse06_ddec_sum_bond_order
 _atom_site_hse06_magmom
 _atom_site_pbe_bader_charge
 _atom_site_pbe_bader_spin_density
 _atom_site_pbe_cm5_charge
 _atom_site_pbe_ddec_charge
 _atom_site_pbe_ddec_spin_density
 _atom_site_pbe_ddec_sum_bond_order
 _atom_site_pbe_magmom
Zn  Zn0  1  0.08919160  0.80868777  0.49721170  1  0  1.098972  0  1.769245  0  0  0.912748  0  2.246689  0  0  0.961172  0  2.186751  0  1.272571  0  0.697289  0.879121  0  2.287475  0
Zn  Zn1  1  0.58918168  0.69131851  0.00278632  1  0  1.098745  0  1.769519  0  0  0.912554  0  2.246962  0  0  0.960969  0  2.187035  0  1.272602  0  0.697228  0.878928  0  2.287746  0
Zn  Zn2  1  0.91081052  0.19131703  0.50278644  1  0  1.09882  0  1.769325  0  0  0.912619  0  2.246764  0  0  0.961032  0  2.186885  0  1.272493  0  0.697267  0.878988  0  2.287548  0
Zn  Zn3  1  0.41081351  0.30868812  0.99721764  1  0  1.098857  0  1.769401  0  0  0.912647  0  2.246829  0  0  0.961055  0  2.186916  0  1.272593  0  0.697291  0.879019  0  2.287611  0
H  H4  1  0.59980963  0.26421911  0.46368837  1  0  0.273121  0  0.937326  0  0  0.258538  0  1.002281  0  0  0.265066  0  0.997191  0  0.490019  0  0.297497  0.253883  0  1.005896  0
H  H5  1  0.09980684  0.23577872  0.03631725  1  0  0.273207  0  0.937324  0  0  0.258601  0  1.002293  0  0  0.26513  0  0.997202  0  0.489989  0  0.297499  0.253949  0  1.0059  0
H  H6  1  0.40018093  0.73577471  0.53631394  1  0  0.273156  0  0.937358  0  0  0.258531  0  1.00234  0  0  0.265059  0  0.997251  0  0.489613  0  0.29749  0.253879  0  1.00595  0
H  H7  1  0.90017910  0.76422151  0.96368216  1  0  0.273594  0  0.93719  0  0  0.258915  0  1.002195  0  0  0.265444  0  0.997103  0  0.489938  0  0.297631  0.254263  0  1.005806  0
H  H8  1  0.92484705  0.95470986  0.59550134  1  0  0.427249  0  0.884684  0  0  0.394845  0  0.950195  0  0  0.406977  0  0.932686  0  0.652847  0  0.286891  0.386356  0  0.962439  0
H  H9  1  0.42485004  0.54528727  0.90449736  1  0  0.427223  0  0.884748  0  0  0.394815  0  0.950261  0  0  0.406948  0  0.932748  0  0.65281  0  0.286886  0.386326  0  0.962505  0
H  H10  1  0.07515623  0.04529128  0.40449694  1  0  0.427191  0  0.884776  0  0  0.394785  0  0.950291  0  0  0.406919  0  0.932777  0  0.652793  0  0.286864  0.386296  0  0.962535  0
H  H11  1  0.57516133  0.45470838  0.09550643  1  0  0.427275  0  0.884672  0  0  0.394862  0  0.9502  0  0  0.406995  0  0.932689  0  0.652795  0  0.286898  0.386374  0  0.962444  0
H  H12  1  0.83463715  0.93021963  0.51032048  1  0  0.422829  0  0.885702  0  0  0.389806  0  0.953225  0  0  0.401008  0  0.937156  0  0.647162  0  0.289298  0.381889  0  0.964573  0
H  H13  1  0.33463089  0.56978116  0.98967248  1  0  0.422851  0  0.885697  0  0  0.389846  0  0.953206  0  0  0.401047  0  0.937135  0  0.647232  0  0.289306  0.381928  0  0.964556  0
H  H14  1  0.16536497  0.06978060  0.48967582  1  0  0.422804  0  0.885752  0  0  0.389799  0  0.953264  0  0  0.401001  0  0.93719  0  0.647134  0  0.289284  0.381882  0  0.964612  0
H  H15  1  0.66535851  0.43022364  0.01032690  1  0  0.422797  0  0.885769  0  0  0.38979  0  0.953289  0  0  0.400994  0  0.937214  0  0.647206  0  0.289283  0.381873  0  0.964638  0
H  H16  1  0.43578198  0.10683185  0.49350516  1  0  0.111544  0  0.952188  0  0  0.122785  0  1.011671  0  0  0.126102  0  1.009875  0  0.071608  0  0.107149  0.120475  0  1.012877  0
H  H17  1  0.93577437  0.39315773  0.00650002  1  0  0.111574  0  0.952156  0  0  0.122831  0  1.011629  0  0  0.126146  0  1.009835  0  0.071738  0  0.107189  0.120521  0  1.012831  0
H  H18  1  0.56421668  0.89316929  0.50650617  1  0  0.11173  0  0.952181  0  0  0.122958  0  1.011653  0  0  0.126277  0  1.009854  0  0.071629  0  0.107207  0.120645  0  1.012859  0
H  H19  1  0.06420348  0.60683700  0.99350427  1  0  0.11158  0  0.952229  0  0  0.122891  0  1.011625  0  0  0.126208  0  1.009829  0  0.071826  0  0.107191  0.120581  0  1.012829  0
H  H20  1  0.34099726  0.09728701  0.75477065  1  0  0.101071  0  0.968397  0  0  0.107736  0  1.040799  0  0  0.11149  0  1.038272  0  0.108244  0  0.101631  0.105013  0  1.042721  0
H  H21  1  0.84098850  0.40271905  0.74524287  1  0  0.101027  0  0.96861  0  0  0.107707  0  1.041004  0  0  0.111391  0  1.038551  0  0.108401  0  0.101649  0.104988  0  1.042919  0
H  H22  1  0.65899677  0.90271687  0.24523917  1  0  0.101067  0  0.968636  0  0  0.107688  0  1.041067  0  0  0.111435  0  1.038536  0  0.10838  0  0.10167  0.104975  0  1.042975  0
H  H23  1  0.15900437  0.59728941  0.25476257  1  0  0.101072  0  0.968548  0  0  0.107688  0  1.040984  0  0  0.111436  0  1.03846  0  0.1084  0  0.101628  0.104966  0  1.042901  0
H  H24  1  0.56498647  0.41139126  0.69005404  1  0  0.11021  0  0.958046  0  0  0.120349  0  1.0205  0  0  0.124776  0  1.017002  0  0.121918  0  0.104863  0.117262  0  1.022896  0
H  H25  1  0.06499061  0.08860198  0.80994478  1  0  0.11019  0  0.957998  0  0  0.120385  0  1.020386  0  0  0.12481  0  1.016893  0  0.121851  0  0.104883  0.117299  0  1.022779  0
H  H26  1  0.43501912  0.58860621  0.30994625  1  0  0.11023  0  0.957989  0  0  0.120358  0  1.02045  0  0  0.124784  0  1.016953  0  0.121867  0  0.10486  0.117272  0  1.022843  0
H  H27  1  0.93501382  0.91140282  0.19004839  1  0  0.110223  0  0.957874  0  0  0.120335  0  1.020368  0  0  0.124759  0  1.016876  0  0.121695  0  0.104852  0.117248  0  1.022763  0
H  H28  1  0.76186427  0.41152770  0.59792900  1  0  0.07679  0  0.949404  0  0  0.089715  0  1.019738  0  0  0.090219  0  1.019487  0  0.098304  0  0.107179  0.089185  0  1.020199  0
H  H29  1  0.26186495  0.08846463  0.90207467  1  0  0.076879  0  0.949473  0  0  0.089849  0  1.019783  0  0  0.090355  0  1.019532  0  0.098292  0  0.10722  0.089316  0  1.020247  0
H  H30  1  0.23814132  0.58846795  0.40206795  1  0  0.076855  0  0.949291  0  0  0.089771  0  1.019637  0  0  0.090267  0  1.019386  0  0.098295  0  0.107219  0.089245  0  1.020103  0
H  H31  1  0.73812215  0.91153467  0.09792462  1  0  0.076867  0  0.94938  0  0  0.089829  0  1.01966  0  0  0.090333  0  1.019412  0  0.098229  0  0.107208  0.089294  0  1.020125  0
H  H32  1  0.62392278  0.50918097  0.56179175  1  0  0.07662  0  0.908846  0  0  0.092573  0  0.967423  0  0  0.093643  0  0.966737  0  0.066153  0  0.105527  0.091876  0  0.96781  0
H  H33  1  0.12392923  0.99081799  0.93822023  1  0  0.076733  0  0.908867  0  0  0.092771  0  0.967388  0  0  0.093842  0  0.966701  0  0.066325  0  0.105565  0.09207  0  0.967777  0
H  H34  1  0.37607356  0.49081101  0.43820598  1  0  0.076649  0  0.908723  0  0  0.092605  0  0.967316  0  0  0.093667  0  0.966626  0  0.066095  0  0.10551  0.09191  0  0.967707  0
H  H35  1  0.87605902  0.00918956  0.06178509  1  0  0.076586  0  0.908795  0  0  0.09257  0  0.967379  0  0  0.093642  0  0.96669  0  0.066298  0  0.105467  0.09187  0  0.967766  0
H  H36  1  0.69397250  0.59960878  0.44669794  1  0  0.113253  0  0.979598  0  0  0.120067  0  1.043911  0  0  0.122762  0  1.044443  0  0.127175  0  0.106825  0.118246  0  1.043412  0
H  H37  1  0.19398474  0.90039750  0.05331063  1  0  0.113375  0  0.979384  0  0  0.12017  0  1.043708  0  0  0.122864  0  1.04424  0  0.126873  0  0.10686  0.11835  0  1.043207  0
H  H38  1  0.30600881  0.40038503  0.55329629  1  0  0.11334  0  0.979549  0  0  0.120147  0  1.043854  0  0  0.122841  0  1.044386  0  0.126788  0  0.106867  0.118327  0  1.043352  0
H  H39  1  0.80601161  0.09960821  0.94669010  1  0  0.113386  0  0.979503  0  0  0.120205  0  1.043784  0  0  0.122901  0  1.044314  0  0.126923  0  0.106903  0.118386  0  1.043283  0
H  H40  1  0.84820672  0.59629043  0.31424701  1  0  0.10319  0  0.935237  0  0  0.113831  0  0.992493  0  0  0.115316  0  0.992372  0  0.107144  0  0.113448  0.112701  0  0.9926  0
H  H41  1  0.34822358  0.90371311  0.18576183  1  0  0.103137  0  0.935202  0  0  0.113832  0  0.992443  0  0  0.115317  0  0.99232  0  0.106676  0  0.113417  0.112699  0  0.992554  0
H  H42  1  0.15179655  0.40371346  0.68575846  1  0  0.103172  0  0.935216  0  0  0.113828  0  0.992457  0  0  0.11531  0  0.992342  0  0.106783  0  0.113446  0.112696  0  0.992566  0
H  H43  1  0.65179241  0.09627887  0.81423092  1  0  0.103104  0  0.935164  0  0  0.113797  0  0.992413  0  0  0.11528  0  0.992296  0  0.106683  0  0.113403  0.112667  0  0.992521  0
H  H44  1  0.03056621  0.41910203  0.26643538  1  0  0.123995  0  0.966937  0  0  0.130079  0  1.03003  0  0  0.134195  0  1.027838  0  0.166142  0  0.10949  0.127077  0  1.031784  0
H  H45  1  0.53057478  0.08091227  0.23356988  1  0  0.124071  0  0.966874  0  0  0.130081  0  1.030047  0  0  0.134194  0  1.027862  0  0.166218  0  0.109503  0.127078  0  1.031799  0
H  H46  1  0.96944978  0.58091284  0.73357399  1  0  0.123954  0  0.966802  0  0  0.130098  0  1.029891  0  0  0.13421  0  1.027687  0  0.166362  0  0.109474  0.12705  0  1.03169  0
H  H47  1  0.46944930  0.91907513  0.76641484  1  0  0.124148  0  0.966708  0  0  0.130266  0  1.029778  0  0  0.13439  0  1.027568  0  0.166153  0  0.109555  0.127212  0  1.031583  0
H  H48  1  0.05590801  0.26020669  0.35728395  1  0  0.094057  0  0.925832  0  0  0.107645  0  0.977367  0  0  0.109967  0  0.975303  0  0.111692  0  0.126197  0.105809  0  0.979046  0
H  H49  1  0.55590503  0.23981220  0.14272438  1  0  0.093824  0  0.925903  0  0  0.107612  0  0.97725  0  0  0.109927  0  0.97519  0  0.111528  0  0.126153  0.105778  0  0.978926  0
H  H50  1  0.94410798  0.73980636  0.64271897  1  0  0.094002  0  0.925758  0  0  0.107597  0  0.977284  0  0  0.109913  0  0.97523  0  0.111708  0  0.126212  0.105765  0  0.978956  0
H  H51  1  0.44410634  0.76017612  0.85725983  1  0  0.093726  0  0.925953  0  0  0.107464  0  0.977334  0  0  0.109783  0  0.975272  0  0.111538  0  0.126144  0.105636  0  0.979003  0
C  C52  1  0.51863379  0.26329612  0.58338706  1  0  0.246094  0  3.853932  0  0  0.242787  0  4.106745  0  0  0.25162  0  4.126462  0  0.350661  0  0.092757  0.236554  0  4.093464  0
C  C53  1  0.01864140  0.23670262  0.91661371  1  0  0.2462  0  3.853931  0  0  0.242763  0  4.106926  0  0  0.251601  0  4.126635  0  0.349879  0  0.092761  0.236528  0  4.093647  0
C  C54  1  0.48135677  0.73671051  0.41661379  1  0  0.246177  0  3.853946  0  0  0.2428  0  4.106828  0  0  0.251634  0  4.126543  0  0.350161  0  0.092656  0.236568  0  4.093542  0
C  C55  1  0.98135379  0.76329303  0.08338635  1  0  0.246026  0  3.854173  0  0  0.24272  0  4.106958  0  0  0.251554  0  4.126674  0  0.349935  0  0.092648  0.236486  0  4.093675  0
C  C56  1  0.44435022  0.14904102  0.56009555  1  0  -0.167957  0  3.670575  0  0  -0.197719  0  3.917004  0  0  -0.200131  0  3.934909  0  0.004419  0  -0.09414  -0.196073  0  3.904969  0
C  C57  1  0.94434724  0.35094765  0.93990702  1  0  -0.168031  0  3.670546  0  0  -0.197745  0  3.917009  0  0  -0.200162  0  3.93492  0  0.004926  0  -0.094195  -0.196092  0  3.904969  0
C  C58  1  0.55564843  0.85095737  0.43990921  1  0  -0.168279  0  3.670635  0  0  -0.198002  0  3.917094  0  0  -0.200419  0  3.934999  0  0.005112  0  -0.094183  -0.196349  0  3.905056  0
C  C59  1  0.05564564  0.64905074  0.06009277  1  0  -0.167958  0  3.670845  0  0  -0.197773  0  3.917295  0  0  -0.200188  0  3.935201  0  0.004788  0  -0.094147  -0.19612  0  3.905254  0
C  C60  1  0.38411937  0.08881625  0.62150722  1  0  -0.047685  0  3.797158  0  0  -0.022309  0  4.033158  0  0  -0.027619  0  4.055232  0  -0.045955  0  -0.022653  -0.018932  0  4.018208  0
C  C61  1  0.88411638  0.41117242  0.87849349  1  0  -0.047341  0  3.796504  0  0  -0.021984  0  4.032543  0  0  -0.027284  0  4.054602  0  -0.046441  0  -0.022574  -0.018614  0  4.017594  0
C  C62  1  0.61587697  0.91117757  0.37849260  1  0  -0.047215  0  3.796479  0  0  -0.021873  0  4.032502  0  0  -0.027173  0  4.054571  0  -0.046373  0  -0.022519  -0.018504  0  4.017555  0
C  C63  1  0.11587418  0.58882506  0.12150308  1  0  -0.047281  0  3.796961  0  0  -0.021981  0  4.032971  0  0  -0.027287  0  4.055042  0  -0.046994  0  -0.022508  -0.018612  0  4.018022  0
C  C64  1  0.39038402  0.14324672  0.70708739  1  0  -0.112277  0  3.739098  0  0  -0.152612  0  3.993672  0  0  -0.153399  0  4.014397  0  -0.039598  0  -0.097738  -0.151798  0  3.979532  0
C  C65  1  0.89037757  0.35675476  0.79291559  1  0  -0.112333  0  3.739371  0  0  -0.152671  0  3.993982  0  0  -0.153403  0  4.014735  0  -0.039327  0  -0.097811  -0.15185  0  3.979836  0
C  C66  1  0.60961579  0.85675075  0.29291477  1  0  -0.112379  0  3.73951  0  0  -0.152644  0  3.994114  0  0  -0.15342  0  4.014826  0  -0.039309  0  -0.097824  -0.151834  0  3.979979  0
C  C67  1  0.10961299  0.64324912  0.20708429  1  0  -0.112324  0  3.739195  0  0  -0.152615  0  3.993782  0  0  -0.153394  0  4.014502  0  -0.039123  0  -0.097797  -0.151797  0  3.979638  0
C  C68  1  0.45346865  0.26025430  0.72995853  1  0  -0.055801  0  3.811675  0  0  -0.030836  0  4.049246  0  0  -0.037132  0  4.072157  0  -0.055306  0  -0.023541  -0.026735  0  4.033688  0
C  C69  1  0.95345642  0.23974718  0.77005253  1  0  -0.05587  0  3.811366  0  0  -0.03094  0  4.049011  0  0  -0.037233  0  4.071903  0  -0.055707  0  -0.023605  -0.026842  0  4.033457  0
C  C70  1  0.54653578  0.73974684  0.27004969  1  0  -0.055973  0  3.811664  0  0  -0.031039  0  4.049257  0  0  -0.037336  0  4.072164  0  -0.055753  0  -0.02355  -0.026941  0  4.033704  0
C  C71  1  0.04653646  0.76025762  0.22995119  1  0  -0.05614  0  3.811721  0  0  -0.031158  0  4.049259  0  0  -0.037459  0  4.072168  0  -0.055833  0  -0.023631  -0.027054  0  4.033699  0
C  C72  1  0.51781083  0.32005054  0.66897173  1  0  -0.183174  0  3.695841  0  0  -0.216226  0  3.949106  0  0  -0.219578  0  3.967911  0  -0.002124  0  -0.098819  -0.213722  0  3.936155  0
C  C73  1  0.01780688  0.17994179  0.83103442  1  0  -0.183208  0  3.695618  0  0  -0.216253  0  3.948953  0  0  -0.21961  0  3.96776  0  -0.001886  0  -0.098779  -0.213746  0  3.936  0
C  C74  1  0.48218435  0.67994876  0.33103253  1  0  -0.183125  0  3.695654  0  0  -0.216136  0  3.948948  0  0  -0.21949  0  3.967754  0  -0.002043  0  -0.098736  -0.213631  0  3.935995  0
C  C75  1  0.98218021  0.82005569  0.16896774  1  0  -0.182887  0  3.695495  0  0  -0.215948  0  3.948768  0  0  -0.219298  0  3.967572  0  -0.001964  0  -0.098659  -0.213445  0  3.935818  0
C  C76  1  0.68854699  0.42273903  0.54365808  1  0  -0.032628  0  3.712516  0  0  -0.097395  0  3.975568  0  0  -0.093445  0  3.984907  0  0.290851  0  -0.057475  -0.100115  0  3.969191  0
C  C77  1  0.18855922  0.07724963  0.95634201  1  0  -0.03273  0  3.712296  0  0  -0.097748  0  3.975567  0  0  -0.093799  0  3.9849  0  0.290197  0  -0.057547  -0.10046  0  3.969181  0
C  C78  1  0.31144935  0.57725936  0.45634606  1  0  -0.032676  0  3.712479  0  0  -0.09751  0  3.975551  0  0  -0.093523  0  3.984838  0  0.290342  0  -0.057499  -0.10025  0  3.9692  0
C  C79  1  0.81144637  0.92274143  0.04365684  1  0  -0.032561  0  3.712281  0  0  -0.097513  0  3.975292  0  0  -0.093565  0  3.984635  0  0.290083  0  -0.057475  -0.100223  0  3.968903  0
C  C80  1  0.78973506  0.43074739  0.46896913  1  0  0.240214  0  3.712639  0  0  0.241448  0  3.955871  0  0  0.249483  0  3.977191  0  0.42883  0  0.122918  0.236266  0  3.941452  0
C  C81  1  0.28974267  0.06926050  0.03103841  1  0  0.24012  0  3.712491  0  0  0.241512  0  3.955563  0  0  0.249544  0  3.976879  0  0.429692  0  0.122883  0.236329  0  3.941141  0
C  C82  1  0.21026128  0.56924642  0.53102634  1  0  0.24033  0  3.712832  0  0  0.241705  0  3.95587  0  0  0.249727  0  3.977179  0  0.429332  0  0.122911  0.236528  0  3.941457  0
C  C83  1  0.71025945  0.93074338  0.96895713  1  0  0.239996  0  3.712533  0  0  0.241599  0  3.95523  0  0  0.249631  0  3.976552  0  0.429219  0  0.12301  0.236414  0  3.940809  0
C  C84  1  0.77516222  0.52590733  0.42421591  1  0  -0.157278  0  3.684071  0  0  -0.173899  0  3.927922  0  0  -0.182907  0  3.950191  0  0.032923  0  -0.080319  -0.168237  0  3.912819  0
C  C85  1  0.27517329  0.97409255  0.07579494  1  0  -0.157344  0  3.683591  0  0  -0.173921  0  3.927438  0  0  -0.182933  0  3.94971  0  0.033402  0  -0.080295  -0.168257  0  3.912338  0
C  C86  1  0.22483990  0.47409930  0.57578618  1  0  -0.157398  0  3.684082  0  0  -0.17404  0  3.927856  0  0  -0.183052  0  3.950132  0  0.033468  0  -0.08029  -0.168376  0  3.912755  0
C  C87  1  0.72483923  0.02590127  0.92419867  1  0  -0.157292  0  3.683864  0  0  -0.173977  0  3.927654  0  0  -0.18299  0  3.949921  0  0.033805  0  -0.080365  -0.168315  0  3.912557  0
C  C88  1  0.86123074  0.52359529  0.35066194  1  0  0.035519  0  3.684048  0  0  0.015453  0  3.932579  0  0  0.021178  0  3.950262  0  -0.07216  0  -0.052498  0.011888  0  3.920477  0
C  C89  1  0.36123372  0.97642015  0.14934967  1  0  0.035514  0  3.683878  0  0  0.015278  0  3.932579  0  0  0.021001  0  3.950264  0  -0.071642  0  -0.052606  0.011711  0  3.920483  0
C  C90  1  0.13876676  0.47640860  0.64933918  1  0  0.035508  0  3.683968  0  0  0.015446  0  3.932556  0  0  0.021169  0  3.95024  0  -0.071811  0  -0.052524  0.011881  0  3.920449  0
C  C91  1  0.63877418  0.02357366  0.85064829  1  0  0.035586  0  3.683503  0  0  0.015342  0  3.932279  0  0  0.021069  0  3.94996  0  -0.071621  0  -0.052581  0.011777  0  3.920171  0
C  C92  1  0.96290541  0.42654085  0.32444967  1  0  -0.121476  0  3.702184  0  0  -0.131081  0  3.94699  0  0  -0.139808  0  3.968275  0  0.012229  0  -0.077274  -0.125476  0  3.932866  0
C  C93  1  0.46290378  0.07347895  0.17555506  1  0  -0.121552  0  3.702028  0  0  -0.131042  0  3.947003  0  0  -0.139768  0  3.96829  0  0.011656  0  -0.077242  -0.125438  0  3.93288  0
C  C94  1  0.03710364  0.57347036  0.67555240  1  0  -0.121459  0  3.701972  0  0  -0.131177  0  3.946887  0  0  -0.13989  0  3.968158  0  0.011945  0  -0.077303  -0.125534  0  3.932795  0
C  C95  1  0.53709950  0.92650754  0.82444134  1  0  -0.121748  0  3.701659  0  0  -0.131332  0  3.946606  0  0  -0.140063  0  3.96788  0  0.01153  0  -0.0773  -0.125682  0  3.932518  0
C  C96  1  0.97586932  0.33663589  0.37371227  1  0  0.14131  0  3.688254  0  0  0.109964  0  3.933316  0  0  0.117612  0  3.9524  0  0.430435  0  0.053722  0.105026  0  3.920237  0
C  C97  1  0.47588271  0.16337659  0.12628592  1  0  0.141586  0  3.688154  0  0  0.11004  0  3.933233  0  0  0.11769  0  3.952318  0  0.430669  0  0.053749  0.105104  0  3.920152  0
C  C98  1  0.02414898  0.66337166  0.62628808  1  0  0.141461  0  3.688038  0  0  0.110138  0  3.933149  0  0  0.117783  0  3.952232  0  0.430519  0  0.053742  0.1052  0  3.920064  0
C  C99  1  0.52412172  0.83661082  0.87370748  1  0  0.141787  0  3.688115  0  0  0.110288  0  3.933198  0  0  0.117933  0  3.952287  0  0.430735  0  0.053744  0.105348  0  3.920112  0
C  C100  1  0.31391476  0.96431971  0.59610140  1  0  0.657763  0  3.899039  0  0  0.60302  0  4.201017  0  0  0.636217  0  4.193343  0  1.554451  0  0.210609  0.580497  0  4.205458  0
C  C101  1  0.81391062  0.53568474  0.90390010  1  0  0.657515  0  3.898906  0  0  0.602759  0  4.200922  0  0  0.635949  0  4.193277  0  1.55446  0  0.210532  0.580236  0  4.205352  0
C  C102  1  0.68608505  0.03568326  0.40389898  1  0  0.657368  0  3.898801  0  0  0.602625  0  4.20083  0  0  0.63582  0  4.193189  0  1.554635  0  0.210562  0.580104  0  4.205265  0
C  C103  1  0.18608688  0.46432647  0.09610321  1  0  0.657313  0  3.899283  0  0  0.602721  0  4.201091  0  0  0.635913  0  4.193426  0  1.555136  0  0.210493  0.580203  0  4.205526  0
C  C104  1  0.45029124  0.32550238  0.82006318  1  0  0.668354  0  3.888677  0  0  0.617594  0  4.177556  0  0  0.652187  0  4.169228  0  1.538619  0  0.218111  0.594125  0  4.182567  0
C  C105  1  0.95027439  0.17448995  0.67994049  1  0  0.668687  0  3.887999  0  0  0.617981  0  4.176822  0  0  0.65258  0  4.168491  0  1.538802  0  0.218289  0.59451  0  4.181844  0
C  C106  1  0.54971897  0.67448411  0.17993756  1  0  0.668795  0  3.887824  0  0  0.618084  0  4.17665  0  0  0.652679  0  4.16832  0  1.538869  0  0.218268  0.594615  0  4.181672  0
C  C107  1  0.04971964  0.82550844  0.32005558  1  0  0.668708  0  3.888432  0  0  0.617995  0  4.177221  0  0  0.652589  0  4.16889  0  1.538921  0  0.218267  0.594522  0  4.182237  0
N  N108  1  0.58425549  0.31854245  0.52177535  1  0  -0.431052  0  3.317624  0  0  -0.374281  0  3.568352  0  0  -0.392585  0  3.578428  0  -1.235224  0  -0.44782  -0.361457  0  3.560973  0
N  N109  1  0.08425963  0.18145629  0.97822852  1  0  -0.431277  0  3.317436  0  0  -0.374444  0  3.568376  0  0  -0.392744  0  3.578433  0  -1.234962  0  -0.447862  -0.361626  0  3.561011  0
N  N110  1  0.41574548  0.68146052  0.47822627  1  0  -0.431176  0  3.317618  0  0  -0.374299  0  3.568336  0  0  -0.392612  0  3.578393  0  -1.234675  0  -0.447779  -0.36147  0  3.560967  0
N  N111  1  0.91573209  0.81853936  0.02176719  1  0  -0.431774  0  3.317902  0  0  -0.374899  0  3.568722  0  0  -0.393198  0  3.57877  0  -1.234656  0  -0.448019  -0.362084  0  3.561366  0
N  N112  1  0.89084800  0.33788942  0.44415667  1  0  -0.392893  0  3.29711  0  0  -0.311029  0  3.57486  0  0  -0.332314  0  3.589368  0  -1.266158  0  -0.329177  -0.29686  0  3.564703  0
N  N113  1  0.39084983  0.16211847  0.05584404  1  0  -0.392876  0  3.297458  0  0  -0.310982  0  3.575114  0  0  -0.332258  0  3.589607  0  -1.266316  0  -0.329073  -0.296813  0  3.564956  0
N  N114  1  0.10915297  0.66210713  0.55583730  1  0  -0.393106  0  3.297096  0  0  -0.311305  0  3.574839  0  0  -0.332583  0  3.589334  0  -1.266344  0  -0.329227  -0.297136  0  3.564687  0
N  N115  1  0.60915229  0.83787901  0.94415129  1  0  -0.392816  0  3.297314  0  0  -0.311006  0  3.57491  0  0  -0.332284  0  3.589407  0  -1.266206  0  -0.329102  -0.296836  0  3.564755  0
O  O116  1  0.23142241  0.94976621  0.52677316  1  0  -0.694173  0  2.143553  0  0  -0.605976  0  2.415127  0  0  -0.637075  0  2.399086  0  -1.180775  0  -0.326692  -0.584141  0  2.425206  0
O  O117  1  0.73141712  0.55023458  0.97323408  1  0  -0.694127  0  2.143529  0  0  -0.605961  0  2.415187  0  0  -0.637032  0  2.399079  0  -1.180708  0  -0.326704  -0.584149  0  2.425327  0
O  O118  1  0.76857624  0.05023492  0.47323195  1  0  -0.694053  0  2.143603  0  0  -0.605883  0  2.415244  0  0  -0.63699  0  2.399185  0  -1.180833  0  -0.326737  -0.584043  0  2.425314  0
O  O119  1  0.26857576  0.44976748  0.02677177  1  0  -0.694124  0  2.143658  0  0  -0.605985  0  2.415187  0  0  -0.637078  0  2.39915  0  -1.180783  0  -0.32672  -0.584147  0  2.425258  0
O  O120  1  0.33757829  0.88182518  0.63748536  1  0  -0.596317  0  1.884151  0  0  -0.552355  0  2.09291  0  0  -0.573155  0  2.083836  0  -1.16805  0  -0.318093  -0.537893  0  2.098555  0
O  O121  1  0.83760767  0.61818477  0.86252804  1  0  -0.596168  0  1.884328  0  0  -0.552198  0  2.093105  0  0  -0.572995  0  2.084033  0  -1.168036  0  -0.317948  -0.537734  0  2.098748  0
O  O122  1  0.66241459  0.11818420  0.36251834  1  0  -0.596144  0  1.884027  0  0  -0.552165  0  2.092778  0  0  -0.572957  0  2.083709  0  -1.168126  0  -0.31799  -0.537708  0  2.09843  0
O  O123  1  0.16241757  0.38183010  0.13748382  1  0  -0.59615  0  1.88418  0  0  -0.55225  0  2.092886  0  0  -0.573047  0  2.083817  0  -1.168089  0  -0.318027  -0.537794  0  2.098539  0
O  O124  1  0.41934939  0.25761720  0.87516919  1  0  -0.671155  0  2.094794  0  0  -0.593001  0  2.38188  0  0  -0.622456  0  2.36534  0  -1.17387  0  -0.330089  -0.57229  0  2.392334  0
O  O125  1  0.91934872  0.24238612  0.62483466  1  0  -0.671296  0  2.09461  0  0  -0.593207  0  2.381813  0  0  -0.622633  0  2.365184  0  -1.173686  0  -0.330113  -0.572489  0  2.392256  0
O  O126  1  0.58063539  0.74237753  0.12483013  1  0  -0.671281  0  2.094612  0  0  -0.593209  0  2.381802  0  0  -0.622652  0  2.365209  0  -1.173848  0  -0.330114  -0.57248  0  2.392213  0
O  O127  1  0.08065456  0.75762509  0.37516306  1  0  -0.671354  0  2.094859  0  0  -0.593192  0  2.381947  0  0  -0.622644  0  2.365382  0  -1.173868  0  -0.330157  -0.572492  0  2.392436  0
O  O128  1  0.47777713  0.43846457  0.83559340  1  0  -0.611681  0  1.99388  0  0  -0.555302  0  2.207265  0  0  -0.579153  0  2.195919  0  -1.173876  0  -0.311822  -0.538908  0  2.21474  0
O  O129  1  0.97775219  0.06152409  0.66441290  1  0  -0.611801  0  1.993699  0  0  -0.555434  0  2.207074  0  0  -0.579286  0  2.195722  0  -1.173922  0  -0.311884  -0.539043  0  2.214552  0
O  O130  1  0.52226082  0.56151276  0.16441051  1  0  -0.611876  0  1.993574  0  0  -0.555498  0  2.206964  0  0  -0.57935  0  2.19561  0  -1.174005  0  -0.311904  -0.539108  0  2.214442  0
O  O131  1  0.02223722  0.93847247  0.33558665  1  0  -0.611796  0  1.993724  0  0  -0.555445  0  2.207094  0  0  -0.579297  0  2.195743  0  -1.173984  0  -0.311843  -0.539051  0  2.214572  0
O  O132  1  0.89225350  0.88405389  0.54856337  1  0  -0.84654  0  1.895907  0  0  -0.776879  0  2.111394  0  0  -0.800158  0  2.072671  0  -1.271364  0  -0.583293  -0.760525  0  2.137944  0
O  O133  1  0.39224955  0.61594049  0.95143063  1  0  -0.8465  0  1.895973  0  0  -0.776889  0  2.111447  0  0  -0.80017  0  2.072733  0  -1.271412  0  -0.583307  -0.760536  0  2.137995  0
O  O134  1  0.10775209  0.11594267  0.45143246  1  0  -0.846425  0  1.895994  0  0  -0.776776  0  2.111396  0  0  -0.800055  0  2.072682  0  -1.271269  0  -0.583261  -0.760421  0  2.137944  0
O  O135  1  0.60774448  0.38405607  0.04856706  1  0  -0.846543  0  1.896001  0  0  -0.776926  0  2.111472  0  0  -0.800208  0  2.072748  0  -1.271349  0  -0.58333  -0.760568  0  2.138026  0
