# generated using pymatgen
data_Zn2H14C21N4O7
_symmetry_space_group_name_H-M   'P 1'
_cell_length_a   9.84759343
_cell_length_b   10.24782273
_cell_length_c   10.53472213
_cell_angle_alpha   91.23921259
_cell_angle_beta   108.18437507
_cell_angle_gamma   105.79763012
_symmetry_Int_Tables_number   1
_chemical_formula_structural   Zn2H14C21N4O7
_chemical_formula_sum   'Zn4 H28 C42 N8 O14'
_cell_volume   965.25256658
_cell_formula_units_Z   2
loop_
 _symmetry_equiv_pos_site_id
 _symmetry_equiv_pos_as_xyz
  1  'x, y, z'
loop_
 _atom_site_type_symbol
 _atom_site_label
 _atom_site_symmetry_multiplicity
 _atom_site_fract_x
 _atom_site_fract_y
 _atom_site_fract_z
 _atom_site_occupancy
 _atom_site_pbe_bader_spin_density
 _atom_site_pbe_cm5_charge
 _atom_site_pbe_ddec_charge
 _atom_site_pbe_ddec_spin_density
 _atom_site_pbe_ddec_sum_bond_order
 _atom_site_pbe_magmom
Zn  Zn0  1  0.59816254  0.71112737  0.52092053  1  0  0.687266  1.001279  0  2.327669  0
Zn  Zn1  1  0.40183702  0.28887248  0.47908007  1  0  0.68725  1.001287  0  2.327677  0
Zn  Zn2  1  0.47023458  0.57167835  0.19456110  1  0  0.704764  0.834644  0  2.396788  0
Zn  Zn3  1  0.52976604  0.42832149  0.80543886  1  0  0.704778  0.834672  0  2.396816  0
H  H4  1  0.97932407  0.12823039  0.10458959  1  0  0.104968  0.116927  0  1.00728  0
H  H5  1  0.02067548  0.87176945  0.89541006  1  0  0.104967  0.116928  0  1.007276  0
H  H6  1  0.80269833  0.29310371  0.73491596  1  0  0.102076  0.107792  0  1.034683  0
H  H7  1  0.19730122  0.70689613  0.26508369  1  0  0.102079  0.107801  0  1.034684  0
H  H8  1  0.56233357  0.11293958  0.68371457  1  0  0.100532  0.109851  0  1.041922  0
H  H9  1  0.43766598  0.88706026  0.31628508  1  0  0.100535  0.109857  0  1.041918  0
H  H10  1  0.52874905  0.93885349  0.83686594  1  0  0.096637  0.093724  0  1.034224  0
H  H11  1  0.47125017  0.06114533  0.16313360  1  0  0.096628  0.093717  0  1.034289  0
H  H12  1  0.21806809  0.29273872  0.13630976  1  0  0.121935  0.129215  0  1.013678  0
H  H13  1  0.78193146  0.70726112  0.86369084  1  0  0.121929  0.129207  0  1.013721  0
H  H14  1  0.24054263  0.63503652  0.92060115  1  0  0.13669  0.095856  0  1.005101  0
H  H15  1  0.75945659  0.36496231  0.07939934  1  0  0.136693  0.095837  0  1.005119  0
H  H16  1  0.48401511  0.79368774  0.97399264  1  0  0.116892  0.111612  0  1.019123  0
H  H17  1  0.51598445  0.20631210  0.02600701  1  0  0.116917  0.111663  0  1.019105  0
H  H18  1  0.80692502  0.74067508  0.32321057  1  0  0.133162  0.09936  0  1.050913  0
H  H19  1  0.19307486  0.25932578  0.67679014  1  0  0.133149  0.099343  0  1.050908  0
H  H20  1  0.57033774  0.12313625  0.42905639  1  0  0.109843  0.112894  0  1.037397  0
H  H21  1  0.42966074  0.87686359  0.57094390  1  0  0.109827  0.112881  0  1.037419  0
H  H22  1  0.03193286  0.14462976  0.51309138  1  0  0.107081  0.106619  0  1.048275  0
H  H23  1  0.96806636  0.85536907  0.48690911  1  0  0.107088  0.106644  0  1.048223  0
H  H24  1  0.86547056  0.46124978  0.32000396  1  0  0.10661  0.103862  0  1.042719  0
H  H25  1  0.13452973  0.53874904  0.67999684  1  0  0.106625  0.103903  0  1.042664  0
H  H26  1  0.93643670  0.94684192  0.23421145  1  0  0.313336  0.297924  0  0.975467  0
H  H27  1  0.06356392  0.05315792  0.76578947  1  0  0.313342  0.297931  0  0.975456  0
H  H28  1  0.98393142  0.47274605  0.80880937  1  0  0.311053  0.287486  0  0.985819  0
H  H29  1  0.01606887  0.52725277  0.19119143  1  0  0.311045  0.287453  0  0.985868  0
H  H30  1  0.33891937  0.56106181  0.36412379  1  0  0.271464  0.367822  0  0.984424  0
H  H31  1  0.66108019  0.43893803  0.63587586  1  0  0.271458  0.367803  0  0.984457  0
C  C32  1  0.75220914  0.01989777  0.98142535  1  0  -0.011998  0.04863  0  4.072817  0
C  C33  1  0.24779148  0.98010206  0.01857462  1  0  -0.011978  0.048677  0  4.072832  0
C  C34  1  0.88838390  0.12327071  0.01146637  1  0  -0.093627  -0.179305  0  3.912987  0
C  C35  1  0.11161566  0.87672912  0.98853328  1  0  -0.093616  -0.179325  0  3.912961  0
C  C36  1  0.90794228  0.22292265  0.92331626  1  0  -0.015551  0.043506  0  4.087794  0
C  C37  1  0.09205835  0.77707718  0.07668371  1  0  -0.01553  0.04359  0  4.087783  0
C  C38  1  0.79004343  0.21755377  0.80469269  1  0  -0.096937  -0.136548  0  3.967988  0
C  C39  1  0.20995719  0.78244606  0.19530632  1  0  -0.096987  -0.13665  0  3.968154  0
C  C40  1  0.65434378  0.11569757  0.77498218  1  0  -0.093448  -0.067701  0  4.011324  0
C  C41  1  0.34565684  0.88430226  0.22501778  1  0  -0.093449  -0.067688  0  4.011357  0
C  C42  1  0.63543867  0.01790060  0.86199042  1  0  -0.091688  -0.122751  0  3.965604  0
C  C43  1  0.36456088  0.98209923  0.13800923  1  0  -0.091668  -0.122762  0  3.965689  0
C  C44  1  0.04650411  0.33408928  0.95752286  1  0  0.081925  0.103777  0  4.006749  0
C  C45  1  0.95349651  0.66591056  0.04247805  1  0  0.081933  0.103769  0  4.006721  0
C  C46  1  0.18134286  0.35650268  0.05999811  1  0  0.002815  -0.070655  0  3.919873  0
C  C47  1  0.81865776  0.64349716  0.94000281  1  0  0.002834  -0.070666  0  3.919877  0
C  C48  1  0.19980920  0.53628324  0.95180244  1  0  0.151021  0.171935  0  3.947804  0
C  C49  1  0.80019142  0.46371660  0.04819848  1  0  0.151042  0.171972  0  3.947797  0
C  C50  1  0.72349334  0.91419007  0.06818803  1  0  0.086546  0.107367  0  4.000891  0
C  C51  1  0.27650662  0.08580772  0.93181171  1  0  0.086543  0.107411  0  4.000668  0
C  C52  1  0.59139391  0.81261109  0.05193770  1  0  0.003941  -0.075773  0  3.960008  0
C  C53  1  0.40860778  0.18738874  0.94806258  1  0  0.003912  -0.075847  0  3.959953  0
C  C54  1  0.75573958  0.78194496  0.23274370  1  0  0.147536  0.16493  0  3.89923  0
C  C55  1  0.24426104  0.21805487  0.76725532  1  0  0.147576  0.165  0  3.899111  0
C  C56  1  0.70514102  0.29788539  0.36656463  1  0  -0.023587  -0.058851  0  3.99375  0
C  C57  1  0.29485960  0.70211444  0.63343534  1  0  -0.023533  -0.058814  0  3.993696  0
C  C58  1  0.68137701  0.17689146  0.42677859  1  0  -0.06666  -0.085764  0  3.885911  0
C  C59  1  0.31862181  0.82310940  0.57322086  1  0  -0.066672  -0.08577  0  3.886017  0
C  C60  1  0.80083775  0.12382423  0.48397825  1  0  -0.01439  -0.028546  0  3.944767  0
C  C61  1  0.19916180  0.87617562  0.51602235  1  0  -0.014415  -0.028638  0  3.944847  0
C  C62  1  0.94169049  0.19032976  0.47657359  1  0  -0.072267  -0.089509  0  3.907825  0
C  C63  1  0.05830906  0.80967008  0.52342702  1  0  -0.07226  -0.089475  0  3.907703  0
C  C64  1  0.96680297  0.31118066  0.41612836  1  0  -0.020553  -0.044874  0  3.977267  0
C  C65  1  0.03319732  0.68881815  0.58387244  1  0  -0.020547  -0.044901  0  3.977233  0
C  C66  1  0.84823086  0.36524863  0.36324516  1  0  -0.076985  -0.100144  0  3.946197  0
C  C67  1  0.15176976  0.63475121  0.63675576  1  0  -0.077039  -0.100206  0  3.946183  0
C  C68  1  0.58035794  0.35630320  0.30087497  1  0  0.218021  0.585864  0  4.172796  0
C  C69  1  0.41964408  0.64369765  0.69912447  1  0  0.218021  0.585867  0  4.172847  0
C  C70  1  0.77855751  0.99286663  0.54830254  1  0  0.213577  0.58902  0  4.203911  0
C  C71  1  0.22144064  0.00713219  0.45169669  1  0  0.213629  0.589176  0  4.203672  0
C  C72  1  0.11970479  0.37979266  0.40873625  1  0  0.219212  0.597868  0  4.182606  0
C  C73  1  0.88029369  0.62020719  0.59126404  1  0  0.219209  0.597878  0  4.182615  0
N  N74  1  0.82532166  0.89213243  0.18468016  1  0  -0.364797  -0.243347  0  3.619487  0
N  N75  1  0.17467896  0.10786741  0.81532075  1  0  -0.364817  -0.2434  0  3.619348  0
N  N76  1  0.61292023  0.73176262  0.15432027  1  0  -0.362004  -0.288723  0  3.60457  0
N  N77  1  0.38708113  0.26823619  0.84567989  1  0  -0.362026  -0.288753  0  3.604607  0
N  N78  1  0.06244429  0.44976463  0.89015597  1  0  -0.373788  -0.25259  0  3.6392  0
N  N79  1  0.93755600  0.55023418  0.10984388  1  0  -0.373785  -0.252582  0  3.63926  0
N  N80  1  0.27513804  0.48253710  0.05499135  1  0  -0.366429  -0.298701  0  3.616143  0
N  N81  1  0.72486085  0.51746071  0.94500902  1  0  -0.366459  -0.29869  0  3.616096  0
O  O82  1  0.60803723  0.45239539  0.22957718  1  0  -0.309232  -0.529689  0  2.359253  0
O  O83  1  0.39196339  0.54760445  0.77042373  1  0  -0.309244  -0.529699  0  2.359216  0
O  O84  1  0.45098546  0.30802480  0.31226608  1  0  -0.321632  -0.576649  0  2.40219  0
O  O85  1  0.54901303  0.69197504  0.68773326  1  0  -0.321639  -0.576655  0  2.402275  0
O  O86  1  0.64732230  0.90666902  0.49435819  1  0  -0.324372  -0.575754  0  2.359936  0
O  O87  1  0.35267725  0.09333082  0.50564146  1  0  -0.324397  -0.575832  0  2.359907  0
O  O88  1  0.88306551  0.97335451  0.64299265  1  0  -0.31896  -0.560267  0  2.174607  0
O  O89  1  0.11693404  0.02664533  0.35700795  1  0  -0.318967  -0.560317  0  2.174542  0
O  O90  1  0.13748411  0.47062618  0.33108434  1  0  -0.303671  -0.547448  0  2.214079  0
O  O91  1  0.86251544  0.52937366  0.66891626  1  0  -0.303673  -0.547457  0  2.214093  0
O  O92  1  0.22538804  0.33982754  0.48740537  1  0  -0.326955  -0.583103  0  2.413447  0
O  O93  1  0.77461152  0.66017231  0.51259523  1  0  -0.326934  -0.583075  0  2.413454  0
O  O94  1  0.43916647  0.61125532  0.36264252  1  0  -0.599375  -0.87307  0  2.237474  0
O  O95  1  0.56083342  0.38874554  0.63735724  1  0  -0.599374  -0.873066  0  2.237558  0
