# generated using pymatgen
data_Ni3H16C20(NO)12
_symmetry_space_group_name_H-M   'P 1'
_cell_length_a   7.47358753
_cell_length_b   9.10414102
_cell_length_c   12.10509626
_cell_angle_alpha   109.54870215
_cell_angle_beta   93.25825078
_cell_angle_gamma   109.62270509
_symmetry_Int_Tables_number   1
_chemical_formula_structural   Ni3H16C20(NO)12
_chemical_formula_sum   'Ni3 H16 C20 N12 O12'
_cell_volume   717.67906465
_cell_formula_units_Z   1
loop_
 _symmetry_equiv_pos_site_id
 _symmetry_equiv_pos_as_xyz
  1  'x, y, z'
loop_
 _atom_site_type_symbol
 _atom_site_label
 _atom_site_symmetry_multiplicity
 _atom_site_fract_x
 _atom_site_fract_y
 _atom_site_fract_z
 _atom_site_occupancy
 _atom_site_pbe_bader_charge
 _atom_site_pbe_bader_spin_density
 _atom_site_pbe_cm5_charge
 _atom_site_pbe_ddec_charge
 _atom_site_pbe_ddec_spin_density
 _atom_site_pbe_ddec_sum_bond_order
 _atom_site_pbe_magmom
Ni  Ni0  1  0.00361938  0.05161909  0.16990763  1  1.193992  1.568197  0.683007  0.764105  1.767133  2.524758  1.554
Ni  Ni1  1  0.99637971  0.94837443  0.83009412  1  1.194097  1.568192  0.682952  0.764147  1.767141  2.524566  1.554
Ni  Ni2  1  0.49998878  0.49999126  0.50000161  1  1.216766  1.556412  0.665006  0.826685  1.75089  2.516233  1.545
H  H3  1  0.29425067  0.38512149  0.24811816  1  0.647207  0.00104  0.293613  0.39501  0.000698  0.945015  0.002
H  H4  1  0.21502264  0.29613931  0.10598991  1  0.632665  0.001311  0.317858  0.404843  0.000954  0.883435  0.001
H  H5  1  0.64093205  0.81904709  0.07167226  1  0.631845  0.000825  0.295639  0.363572  0.000899  0.971086  0.001
H  H6  1  0.72664702  0.77292752  0.17137094  1  0.66234  -5.9e-05  0.295303  0.407119  2e-06  0.919575  0.0
H  H7  1  0.04515075  0.81973744  0.56289670  1  0.150787  0.003056  0.131663  0.11594  0.00131  0.994801  0.002
H  H8  1  0.19817508  0.62176365  0.44811136  1  0.134108  0.002737  0.125865  0.110833  0.001058  1.013262  0.002
H  H9  1  0.43031711  0.61373581  0.76470725  1  0.148068  0.002986  0.127899  0.113982  0.001331  1.041283  0.002
H  H10  1  0.33875584  0.85624074  0.28709749  1  0.160419  0.000348  0.104353  0.108293  0.000245  1.056223  0.0
H  H11  1  0.70573573  0.61488854  0.75187572  1  0.647149  0.001036  0.293646  0.395096  0.000697  0.944889  0.002
H  H12  1  0.78496592  0.70385116  0.89400658  1  0.633054  0.00131  0.317801  0.404888  0.000953  0.883361  0.001
H  H13  1  0.35907575  0.18095183  0.92833115  1  0.63178  0.000826  0.295609  0.363491  0.0009  0.971212  0.001
H  H14  1  0.27335349  0.22707347  0.82863273  1  0.662432  -5.9e-05  0.29531  0.407079  3e-06  0.919641  0.0
H  H15  1  0.95486677  0.18028046  0.43710932  1  0.150745  0.003057  0.131589  0.11588  0.00131  0.994773  0.002
H  H16  1  0.80183414  0.37824271  0.55188901  1  0.134061  0.002735  0.125919  0.110916  0.001057  1.013325  0.002
H  H17  1  0.56967469  0.38625978  0.23529477  1  0.148015  0.002985  0.127974  0.114179  0.00133  1.041321  0.002
H  H18  1  0.66123408  0.14374613  0.71290476  1  0.160309  0.000348  0.104354  0.108292  0.000245  1.056082  0.0
C  C19  1  0.26110596  0.82153015  0.91149424  1  0.96891  0.001233  0.214546  0.20197  -0.000454  4.072003  0.003
C  C20  1  0.25557277  0.76506378  0.78335891  1  0.520724  0.000157  0.13652  0.134077  -0.001768  3.966791  0.001
C  C21  1  0.12907881  0.77240554  0.60787905  1  0.53335  -0.000599  0.065549  0.081385  -0.001919  3.899642  0.001
C  C22  1  0.21361490  0.66390970  0.54460070  1  0.515024  0.001371  0.051933  0.032957  -0.000385  3.922192  0.002
C  C23  1  0.34435618  0.65939991  0.71954330  1  0.524242  0.001092  0.068538  0.047624  -0.000383  3.822227  0.001
C  C24  1  0.25135715  0.11997419  0.39096172  1  1.540884  0.001706  0.215465  0.579316  0.001079  4.156318  0.001
C  C25  1  0.37960603  0.06160408  0.45086392  1  -0.039356  0.006771  -0.01374  -0.054646  0.003728  3.95832  0.005
C  C26  1  0.47129887  0.14561762  0.57188351  1  -0.074873  0.002508  -0.011308  -0.056634  0.001038  3.963039  0.001
C  C27  1  0.46294906  0.30866597  0.65422779  1  1.586521  0.007585  0.225737  0.603468  0.005502  4.167349  0.006
C  C28  1  0.40942382  0.91729775  0.38093825  1  0.015039  0.001779  -0.08284  -0.121858  0.001112  3.944849  0.001
C  C29  1  0.73890602  0.17848005  0.08850553  1  0.96759  0.001235  0.214592  0.201851  -0.000454  4.071627  0.003
C  C30  1  0.74442135  0.23493807  0.21664063  1  0.520617  0.000153  0.136566  0.134216  -0.001773  3.966394  0.001
C  C31  1  0.87094648  0.22761521  0.39211886  1  0.533448  -0.000605  0.065631  0.081456  -0.001924  3.899751  0.001
C  C32  1  0.78640623  0.33609979  0.45540829  1  0.514974  0.001379  0.051834  0.032811  -0.000377  3.922084  0.002
C  C33  1  0.65562100  0.34059610  0.28045336  1  0.524303  0.001096  0.068373  0.047265  -0.000378  3.822257  0.001
C  C34  1  0.74865890  0.88002885  0.60903970  1  1.541066  0.001711  0.215402  0.57924  0.001084  4.15647  0.001
C  C35  1  0.62041047  0.93840021  0.54913453  1  -0.039327  0.006774  -0.01371  -0.054575  0.00373  3.958163  0.005
C  C36  1  0.52870616  0.85437745  0.42811636  1  -0.075272  0.002507  -0.011344  -0.056641  0.001037  3.963102  0.001
C  C37  1  0.53705648  0.69133407  0.34577995  1  1.586747  0.007581  0.225889  0.603686  0.005499  4.167034  0.006
C  C38  1  0.59058302  0.08269494  0.61905861  1  0.015116  0.001777  -0.082837  -0.121792  0.001111  3.944688  0.001
N  N39  1  0.13878340  0.89787890  0.95294664  1  -0.701624  0.065444  -0.234887  -0.252562  0.03746  3.568273  0.059
N  N40  1  0.16628440  0.93414254  0.06972113  1  -0.153555  0.058832  -0.099407  -0.01255  0.035639  3.501598  0.054
N  N41  1  0.30354436  0.88482837  0.10039665  1  -0.099637  0.008365  -0.078903  -0.051346  0.003511  3.174431  0.007
N  N42  1  0.36615189  0.81357300  0.00199305  1  -0.657942  0.007819  -0.204987  -0.256992  0.003821  3.194845  0.006
N  N43  1  0.14770076  0.82144588  0.72644593  1  -1.209211  0.066068  -0.301141  -0.220777  0.037536  3.541698  0.06
N  N44  1  0.32429716  0.61012829  0.60028460  1  -1.164658  0.059801  -0.299852  -0.180102  0.034198  3.530934  0.054
N  N45  1  0.86122951  0.10213382  0.04705462  1  -0.701467  0.065442  -0.235005  -0.252546  0.037458  3.568058  0.059
N  N46  1  0.83370423  0.06585901  0.93027566  1  -0.154053  0.058841  -0.099307  -0.012547  0.035642  3.501446  0.054
N  N47  1  0.69641999  0.11515833  0.89960054  1  -0.099415  0.008366  -0.079053  -0.05147  0.003513  3.17452  0.007
N  N48  1  0.63382437  0.18642051  0.99800543  1  -0.656438  0.007815  -0.204824  -0.256763  0.00382  3.194476  0.006
N  N49  1  0.85233094  0.17857769  0.27355539  1  -1.209274  0.066064  -0.301197  -0.220809  0.037534  3.541845  0.06
N  N50  1  0.67571392  0.38988310  0.39971874  1  -1.164531  0.059808  -0.29972  -0.17991  0.034202  3.530589  0.054
O  O51  1  0.11633504  0.00576781  0.30560404  1  -1.127449  0.082187  -0.3026  -0.512379  0.045218  2.328641  0.074
O  O52  1  0.27679417  0.27539038  0.42531309  1  -1.146063  0.066398  -0.312551  -0.560431  0.036078  2.425788  0.061
O  O53  1  0.57946969  0.44259785  0.64123298  1  -1.172343  0.050916  -0.321508  -0.586999  0.027405  2.417217  0.043
O  O54  1  0.36387610  0.31454582  0.73356345  1  -1.155407  0.022813  -0.291866  -0.502667  0.012076  2.150313  0.019
O  O55  1  0.23105465  0.27443140  0.17883779  1  -1.234872  0.058415  -0.567954  -0.763319  0.031866  2.192193  0.052
O  O56  1  0.76152365  0.81513086  0.10600059  1  -1.237325  0.070706  -0.562424  -0.744629  0.038572  2.121804  0.062
O  O57  1  0.88366138  0.99423298  0.69440853  1  -1.127539  0.082181  -0.302563  -0.512422  0.045214  2.329003  0.074
O  O58  1  0.72321266  0.72460596  0.57466981  1  -1.146219  0.066378  -0.312543  -0.560429  0.036062  2.425488  0.061
O  O59  1  0.42053173  0.55740195  0.35876961  1  -1.172389  0.050911  -0.32154  -0.587037  0.027402  2.417183  0.043
O  O60  1  0.63611841  0.68544621  0.26643530  1  -1.155486  0.022817  -0.29197  -0.502841  0.012078  2.150075  0.019
O  O61  1  0.76892284  0.72554369  0.82115447  1  -1.235262  0.058406  -0.567931  -0.763421  0.031859  2.191951  0.052
O  O62  1  0.23846854  0.18485489  0.89399650  1  -1.237409  0.070716  -0.562422  -0.744576  0.038578  2.121919  0.062
