# generated using pymatgen
data_Zn4H16C28S4O25
_symmetry_space_group_name_H-M   'P 1'
_cell_length_a   13.07629127
_cell_length_b   13.02369286
_cell_length_c   15.55111623
_cell_angle_alpha   68.03888729
_cell_angle_beta   70.70287287
_cell_angle_gamma   85.32948727
_symmetry_Int_Tables_number   1
_chemical_formula_structural   Zn4H16C28S4O25
_chemical_formula_sum   'Zn4 H16 C28 S4 O25'
_cell_volume   2315.52142233
_cell_formula_units_Z   1
loop_
 _symmetry_equiv_pos_site_id
 _symmetry_equiv_pos_as_xyz
  1  'x, y, z'
loop_
 _atom_site_type_symbol
 _atom_site_label
 _atom_site_symmetry_multiplicity
 _atom_site_fract_x
 _atom_site_fract_y
 _atom_site_fract_z
 _atom_site_occupancy
 _atom_site_pbe_bader_charge
 _atom_site_pbe_bader_spin_density
 _atom_site_pbe_cm5_charge
 _atom_site_pbe_ddec_charge
 _atom_site_pbe_ddec_spin_density
 _atom_site_pbe_ddec_sum_bond_order
 _atom_site_pbe_magmom
Zn  Zn0  1  0.59000476  0.55919972  0.55563768  1  1.308628  0  0.672556  0.960871  0  2.392549  0
Zn  Zn1  1  0.59412822  0.42373785  0.42334409  1  1.318199  0  0.678293  0.969384  0  2.342267  0
Zn  Zn2  1  0.44076901  0.62352491  0.41671802  1  1.319181  0  0.680359  0.968479  0  2.371961  0
Zn  Zn3  1  0.37869252  0.41143774  0.61556593  1  1.331842  0  0.688765  1.00184  0  2.29693  0
H  H4  1  0.57135671  0.76289359  0.11442617  1  0.151855  0  0.121483  0.140083  0  0.986944  0
H  H5  1  0.51357268  0.76805749  0.82205195  1  0.100799  0  0.107991  0.119865  0  1.008752  0
H  H6  1  0.72529134  0.89859325  0.82166001  1  0.648902  0  0.366461  0.418416  0  0.816892  0
H  H7  1  0.51286265  0.42289940  0.16942863  1  0.164888  0  0.113892  0.124016  0  1.053495  0
H  H8  1  0.43057415  0.02997427  0.93819559  1  0.666514  0  0.316073  0.385619  0  0.941216  0
H  H9  1  0.47293678  0.17549931  0.24973987  1  0.664004  0  0.319267  0.394808  0  0.926877  0
H  H10  1  0.48706281  0.62645551  0.76421514  1  0.105177  0  0.108978  0.115484  0  1.007509  0
H  H11  1  0.55810024  0.11735491  0.45155861  1  0.15787  0  0.113752  0.122474  0  1.008818  0
H  H12  1  0.45625416  0.88473143  0.60304747  1  0.098281  0  0.121651  0.123183  0  0.950894  0
H  H13  1  0.39512848  0.04720509  0.66189629  1  0.088596  0  0.119869  0.139465  0  0.967014  0
H  H14  1  0.90600647  0.53215820  0.52923393  1  0.100351  0  0.110957  0.11063  0  0.979824  0
H  H15  1  0.36383826  0.18713063  0.07669349  1  0.176392  0  0.124789  0.152866  0  0.982142  0
H  H16  1  0.72937292  0.90566198  0.28119338  1  0.643958  0  0.367177  0.415071  0  0.815708  0
H  H17  1  0.13358445  0.52993816  0.37857949  1  0.114168  0  0.119075  0.124218  0  0.958973  0
H  H18  1  0.95823682  0.48676694  0.33847331  1  0.107705  0  0.118031  0.143218  0  0.970062  0
H  H19  1  0.04966341  0.51598131  0.59366915  1  0.100513  0  0.116436  0.133761  0  0.972954  0
C  C20  1  0.46464572  0.21776748  0.57089124  1  1.578917  0  0.230082  0.654769  0  4.151753  0
C  C21  1  0.51424679  0.50872990  0.12166611  1  -0.02527  0  -0.058923  -0.086567  0  3.872051  0
C  C22  1  0.55185048  0.70105400  0.09004057  1  -0.005307  0  -0.065857  -0.081831  0  3.964492  0
C  C23  1  0.51482907  0.78596199  0.47443197  1  1.626148  0  0.224799  0.627792  0  4.22316  0
C  C24  1  0.45000550  0.40923327  0.86375679  1  0.046358  0  0.011418  -0.047137  0  3.87429  0
C  C25  1  0.53151908  0.90585216  0.45641346  1  -0.190717  0  -0.017868  -0.244782  0  3.867859  0
C  C26  1  0.49677031  0.94546403  0.52982827  1  0.051056  0  -0.05367  -0.013433  0  3.966812  0
C  C27  1  0.45196561  0.09783659  0.59135613  1  0.043415  0  -0.066373  -0.188167  0  3.817941  0
C  C28  1  0.50558653  0.05863933  0.52036087  1  -0.107201  0  -0.075836  -0.044359  0  4.004204  0
C  C29  1  0.10846670  0.52599383  0.52191746  1  -0.144181  0  -0.079395  -0.21571  0  3.871816  0
C  C30  1  0.07450627  0.52656395  0.44850214  1  0.060735  0  -0.065404  -0.02883  0  3.983307  0
C  C31  1  0.39736540  0.26992532  0.02701796  1  0.099548  0  -0.068761  -0.08761  0  3.960796  0
C  C32  1  0.91287434  0.50419794  0.40388049  1  -0.034761  0  -0.089399  -0.240662  0  3.871417  0
C  C33  1  0.96028207  0.52134381  0.46288797  1  -0.062157  0  -0.067864  -0.020028  0  4.012695  0
C  C34  1  0.79331280  0.50240348  0.43113609  1  1.548173  0  0.220888  0.646882  0  4.176579  0
C  C35  1  0.22313721  0.52876587  0.51607843  1  1.560238  0  0.222453  0.644339  0  4.175229  0
C  C36  1  0.54710646  0.55953242  0.25119366  1  1.572664  0  0.230033  0.606151  0  4.155788  0
C  C37  1  0.46596943  0.44580132  0.75598649  1  1.607146  0  0.229426  0.601831  0  4.200119  0
C  C38  1  0.54209181  0.73027975  0.99833800  1  -0.221379  0  -0.019949  -0.16487  0  3.985924  0
C  C39  1  0.53911105  0.58874939  0.15150815  1  0.053589  0  -0.011236  -0.024155  0  3.965458  0
C  C40  1  0.41864149  0.30024849  0.92610620  1  -0.193168  0  -0.000491  -0.073311  0  3.907063  0
C  C41  1  0.41512844  0.34482372  0.06555041  1  -0.176543  0  -0.008103  -0.128684  0  3.878092  0
C  C42  1  0.45841724  0.45532579  0.00313895  1  0.016353  0  0.019091  0.049605  0  3.864725  0
C  C43  1  0.46680296  0.48774508  0.90199215  1  -0.003681  0  0.008016  0.062709  0  3.939506  0
C  C44  1  0.49295037  0.53753008  0.03234848  1  -0.015548  0  0.007653  0.034403  0  3.893916  0
C  C45  1  0.51147311  0.65149572  0.96653391  1  0.069853  0  0.010135  0.094077  0  3.963043  0
C  C46  1  0.50322656  0.68160110  0.87114832  1  -0.037947  0  -0.090162  -0.133959  0  4.004105  0
C  C47  1  0.48680865  0.60217971  0.83928773  1  -0.034616  0  -0.0772  -0.097196  0  3.975287  0
S  S48  1  0.59423839  0.99412881  0.33216157  1  3.062866  0  0.557941  1.181786  0  5.956189  0
S  S49  1  0.56693032  0.87376983  0.92597509  1  3.017821  0  0.555058  1.166164  0  5.93755  0
S  S50  1  0.39848447  0.20120850  0.87752517  1  3.102733  0  0.53746  1.168658  0  5.999634  0
S  S51  1  0.35751223  0.29216527  0.19814883  1  3.083053  0  0.539124  1.150252  0  6.007711  0
O  O52  1  0.50020125  0.50293342  0.50408591  1  -1.236528  0  -0.576174  -1.04155  0  2.54582  0
O  O53  1  0.56589036  0.46017085  0.29760757  1  -1.156091  0  -0.301798  -0.518348  0  2.278824  0
O  O54  1  0.38404948  0.43469728  0.73315555  1  -1.156528  0  -0.303146  -0.537741  0  2.342573  0
O  O55  1  0.53269035  0.63894018  0.28306852  1  -1.18295  0  -0.32233  -0.559518  0  2.316856  0
O  O56  1  0.55981438  0.48682671  0.69796614  1  -1.154563  0  -0.30342  -0.521025  0  2.314384  0
O  O57  1  0.51188174  0.03884017  0.28686654  1  -1.288134  0  -0.284814  -0.505596  0  2.16984  0
O  O58  1  0.67599464  0.06636372  0.32619497  1  -1.274832  0  -0.299394  -0.520154  0  2.102257  0
O  O59  1  0.65344844  0.90647812  0.28362483  1  -1.185599  0  -0.342456  -0.511007  0  2.137917  0
O  O60  1  0.47007691  0.91837989  0.90222904  1  -1.292141  0  -0.297349  -0.524216  0  2.153495  0
O  O61  1  0.61689145  0.92591808  0.96981716  1  -1.286286  0  -0.302941  -0.522074  0  2.108565  0
O  O62  1  0.65424532  0.87785992  0.82299038  1  -1.194028  0  -0.352397  -0.533544  0  2.133926  0
O  O63  1  0.74304366  0.54703666  0.49336283  1  -1.174317  0  -0.325026  -0.563909  0  2.345934  0
O  O64  1  0.28928661  0.20479391  0.87503476  1  -1.263496  0  -0.316082  -0.521643  0  2.086483  0
O  O65  1  0.48861114  0.21450860  0.78925310  1  -1.29353  0  -0.323567  -0.549781  0  2.121602  0
O  O66  1  0.41048254  0.09172684  0.96358944  1  -1.250797  0  -0.361177  -0.539417  0  2.214324  0
O  O67  1  0.31272008  0.38288166  0.22756756  1  -1.289822  0  -0.311506  -0.52034  0  2.129314  0
O  O68  1  0.29142680  0.19421946  0.22699788  1  -1.284774  0  -0.311422  -0.521743  0  2.111789  0
O  O69  1  0.45943216  0.25595055  0.23598684  1  -1.227929  0  -0.358603  -0.541389  0  2.221782  0
O  O70  1  0.24263076  0.47655859  0.59642825  1  -1.162948  0  -0.315928  -0.548902  0  2.272039  0
O  O71  1  0.55097436  0.26812927  0.50359471  1  -1.180231  0  -0.314686  -0.547437  0  2.324254  0
O  O72  1  0.46094899  0.76597959  0.42744965  1  -1.145331  0  -0.301208  -0.514984  0  2.314914  0
O  O73  1  0.38706293  0.25867673  0.62149690  1  -1.143318  0  -0.306537  -0.536967  0  2.300306  0
O  O74  1  0.55647162  0.71762851  0.53526564  1  -1.168203  0  -0.308452  -0.53826  0  2.302296  0
O  O75  1  0.74968304  0.45682955  0.39093197  1  -1.160135  0  -0.316482  -0.546273  0  2.275212  0
O  O76  1  0.29278941  0.58335549  0.43311361  1  -1.163501  0  -0.316049  -0.546062  0  2.282012  0
