# generated using pymatgen
data_ZnH17C28NO5
_symmetry_space_group_name_H-M   'P 1'
_cell_length_a   16.16587497
_cell_length_b   16.49603208
_cell_length_c   17.82069976
_cell_angle_alpha   90.11534248
_cell_angle_beta   89.68099079
_cell_angle_gamma   90.06634559
_symmetry_Int_Tables_number   1
_chemical_formula_structural   ZnH17C28NO5
_chemical_formula_sum   'Zn2 H34 C56 N2 O10'
_cell_volume   4752.20934853
_cell_formula_units_Z   2
loop_
 _symmetry_equiv_pos_site_id
 _symmetry_equiv_pos_as_xyz
  1  'x, y, z'
loop_
 _atom_site_type_symbol
 _atom_site_label
 _atom_site_symmetry_multiplicity
 _atom_site_fract_x
 _atom_site_fract_y
 _atom_site_fract_z
 _atom_site_occupancy
 _atom_site_pbe_bader_charge
 _atom_site_pbe_bader_spin_density
 _atom_site_pbe_cm5_charge
 _atom_site_pbe_ddec_charge
 _atom_site_pbe_ddec_spin_density
 _atom_site_pbe_ddec_sum_bond_order
 _atom_site_pbe_magmom
Zn  Zn0  1  0.50559577  0.58409130  0.49999157  1  1.248459  0  0.664875  0.810503  0  2.447511  0
Zn  Zn1  1  0.50251493  0.41538334  0.49999525  1  1.270187  0  0.664666  0.810313  0  2.448996  0
H  H2  1  0.95157509  0.42161384  0.39367793  1  0.081555  0  0.10794  0.115736  0  0.978275  0
H  H3  1  0.05612493  0.57914377  0.60621723  1  0.085881  0  0.108171  0.11624  0  0.977328  0
H  H4  1  0.40498957  0.71042596  0.57219652  1  0.143589  0  0.133404  0.110452  0  0.965706  0
H  H5  1  0.60198931  0.28644476  0.42812604  1  0.152061  0  0.133905  0.11086  0  0.962616  0
H  H6  1  0.39751935  0.86299487  0.57583437  1  0.091625  0  0.119536  0.128687  0  0.976278  0
H  H7  1  0.60468441  0.13378053  0.42373365  1  0.102214  0  0.119528  0.128592  0  0.976743  0
H  H8  1  0.46255740  0.63060476  0.87766346  1  0.06169  0  0.103375  0.105639  0  0.993377  0
H  H9  1  0.46057200  0.36928477  0.12314090  1  0.062822  0  0.103282  0.105129  0  0.993698  0
H  H10  1  0.48258617  0.62981380  0.73822144  1  0.120534  0  0.103901  0.108302  0  1.001599  0
H  H11  1  0.47926437  0.37038679  0.26256128  1  0.092556  0  0.104426  0.109231  0  0.999839  0
H  H12  1  0.48230905  0.37001722  0.73774750  1  0.103844  0  0.103864  0.108312  0  1.001095  0
H  H13  1  0.47995260  0.63016679  0.26256920  1  0.096258  0  0.104406  0.109103  0  1.000053  0
H  H14  1  0.46229990  0.36921693  0.87718962  1  0.056751  0  0.103254  0.105222  0  0.993251  0
H  H15  1  0.46086685  0.63072131  0.12317360  1  0.067745  0  0.10328  0.105078  0  0.993707  0
H  H16  1  0.60810705  0.86667383  0.42471338  1  0.095032  0  0.118483  0.127164  0  0.979347  0
H  H17  1  0.39363804  0.13542561  0.57436689  1  0.095573  0  0.118643  0.127765  0  0.979249  0
H  H18  1  0.60694729  0.71398074  0.42892614  1  0.107648  0  0.13369  0.110791  0  0.961704  0
H  H19  1  0.39921394  0.28805579  0.57048495  1  0.121323  0  0.133325  0.11055  0  0.964612  0
H  H20  1  0.97529905  0.63780540  0.33696749  1  0.061042  0  0.096471  0.095333  0  1.008542  0
H  H21  1  0.97414255  0.53638214  0.29985543  1  0.048034  0  0.095735  0.089072  0  0.996332  0
H  H22  1  0.05092889  0.60739595  0.26823491  1  0.081399  0  0.110452  0.116363  0  0.969328  0
H  H23  1  0.03404289  0.46429328  0.69986687  1  0.046159  0  0.095728  0.08933  0  0.995873  0
H  H24  1  0.03266811  0.36287435  0.66270897  1  0.058338  0  0.096361  0.095129  0  1.009368  0
H  H25  1  0.95732479  0.39330648  0.73167573  1  0.082996  0  0.110365  0.116224  0  0.968607  0
H  H26  1  0.92119742  0.29806801  0.51109138  1  0.063946  0  0.103015  0.10642  0  0.994236  0
H  H27  1  0.94966025  0.15108579  0.52373478  1  0.064809  0  0.097463  0.092409  0  0.998417  0
H  H28  1  0.09512861  0.10153971  0.53098117  1  0.041529  0  0.095347  0.090292  0  1.005599  0
H  H29  1  0.21154502  0.20069295  0.52522906  1  0.048811  0  0.093096  0.085866  0  1.010093  0
H  H30  1  0.18326467  0.34762712  0.51321461  1  0.082316  0  0.097798  0.105572  0  1.03958  0
H  H31  1  0.08498246  0.70467713  0.48881021  1  0.04731  0  0.102893  0.106027  0  0.993969  0
H  H32  1  0.05389689  0.85116775  0.47637377  1  0.061451  0  0.097571  0.093  0  0.998795  0
H  H33  1  0.90763181  0.89834945  0.46942800  1  0.045485  0  0.095544  0.090748  0  1.004966  0
H  H34  1  0.79289338  0.79718473  0.47513385  1  0.062892  0  0.093594  0.086763  0  1.009807  0
H  H35  1  0.82387909  0.65077487  0.48676208  1  0.107706  0  0.096981  0.104421  0  1.042448  0
C  C36  1  0.49487697  0.50047349  0.35347080  1  1.573415  0  0.212982  0.589971  0  4.174819  0
C  C37  1  0.49691880  0.49991505  0.64672249  1  1.550505  0  0.212884  0.589762  0  4.175529  0
C  C38  1  0.47784542  0.57330371  0.76949967  1  -0.062106  0  -0.085296  -0.091381  0  3.998278  0
C  C39  1  0.47556555  0.42680702  0.23108621  1  -0.111701  0  -0.084482  -0.090159  0  3.994352  0
C  C40  1  0.48406505  0.49991566  0.72998692  1  0.107061  0  -0.016323  -0.028983  0  3.959505  0
C  C41  1  0.48207696  0.50029489  0.27035103  1  0.025111  0  -0.016541  -0.028225  0  3.957112  0
C  C42  1  0.47769447  0.42652886  0.76923284  1  -0.05354  0  -0.08494  -0.090653  0  3.997571  0
C  C43  1  0.47592917  0.57362327  0.23109031  1  -0.080134  0  -0.083877  -0.089554  0  3.994922  0
C  C44  1  0.46655575  0.42618797  0.84653912  1  -0.068393  0  -0.085948  -0.130688  0  3.959643  0
C  C45  1  0.46516540  0.57380384  0.15385442  1  -0.003918  0  -0.085521  -0.130234  0  3.958888  0
C  C46  1  0.46175014  0.49990359  0.88682464  1  0.077408  0  -7.6e-05  0.141624  0  4.121837  0
C  C47  1  0.46063314  0.49998953  0.11372690  1  0.078301  0  -0.000326  0.141267  0  4.121209  0
C  C48  1  0.45547737  0.49989521  0.96600769  1  -0.051615  0  -0.047496  -0.111706  0  4.132459  0
C  C49  1  0.45510943  0.49989378  0.03455408  1  -0.306064  0  -0.046921  -0.111595  0  4.132624  0
C  C50  1  0.56235633  0.83422145  0.45822319  1  -0.027743  0  -0.06927  -0.171208  0  3.912016  0
C  C51  1  0.44044183  0.16667169  0.54106957  1  -0.007502  0  -0.069878  -0.172388  0  3.909867  0
C  C52  1  0.56191492  0.75013193  0.46014746  1  0.556834  0  0.066369  0.106291  0  3.919048  0
C  C53  1  0.44338112  0.25072569  0.53946181  1  0.522238  0  0.066071  0.107976  0  3.914684  0
C  C54  1  0.44860362  0.74821333  0.54107263  1  0.466162  0  0.066164  0.109238  0  3.913318  0
C  C55  1  0.55706196  0.24983940  0.45895413  1  0.510259  0  0.066664  0.109501  0  3.914541  0
C  C56  1  0.44468376  0.83221650  0.54257971  1  0.025385  0  -0.068021  -0.168283  0  3.906463  0
C  C57  1  0.55841742  0.16577392  0.45704539  1  -0.045995  0  -0.068563  -0.169398  0  3.907344  0
C  C58  1  0.66621064  0.49754153  0.49623456  1  1.614888  0  0.217466  0.670817  0  4.242377  0
C  C59  1  0.34117015  0.50122868  0.50349591  1  1.635813  0  0.215884  0.668847  0  4.246758  0
C  C60  1  0.50251087  0.87709447  0.50020217  1  0.146031  0  0.022584  0.176749  0  4.107465  0
C  C61  1  0.49918020  0.12233661  0.49914115  1  0.049422  0  0.022867  0.176908  0  4.106119  0
C  C62  1  0.50062471  0.96275611  0.49977425  1  -0.370321  0  -0.027232  -0.089755  0  4.081602  0
C  C63  1  0.49930856  0.03663532  0.49947336  1  0.011069  0  -0.027327  -0.089113  0  4.081101  0
C  C64  1  0.03479541  0.53194439  0.43595180  1  0.614655  0  0.097774  0.208243  0  3.71686  0
C  C65  1  0.97281047  0.46885548  0.56397458  1  0.611167  0  0.097432  0.198136  0  3.734321  0
C  C66  1  0.97538662  0.45710280  0.44075836  1  -0.055833  0  -0.074653  -0.174025  0  3.637206  0
C  C67  1  0.03220755  0.54369703  0.55914617  1  -0.053458  0  -0.074716  -0.172228  0  3.638579  0
C  C68  1  0.75556426  0.49725354  0.49589855  1  0.129682  0  -0.053267  -0.204112  0  3.97882  0
C  C69  1  0.25189263  0.50206001  0.50384453  1  0.141534  0  -0.053373  -0.204289  0  3.985208  0
C  C70  1  0.97809412  0.58060398  0.49462143  1  -0.005251  0  0.000841  -0.02052  0  3.648743  0
C  C71  1  0.02943447  0.42018237  0.50529341  1  0.015374  0  0.000476  -0.017779  0  3.650406  0
C  C72  1  0.91829827  0.50391622  0.49837609  1  0.088475  0  0.004139  0.053073  0  3.813013  0
C  C73  1  0.08920880  0.49677854  0.50152808  1  0.050765  0  0.003783  0.049941  0  3.817763  0
C  C74  1  0.83081805  0.50138454  0.49701182  1  -0.365919  0  -0.033512  -0.029122  0  4.099133  0
C  C75  1  0.17663151  0.49883052  0.50282698  1  -0.383519  0  -0.034658  -0.029816  0  4.102846  0
C  C76  1  0.46669547  0.57362659  0.84680831  1  -0.075175  0  -0.085966  -0.130881  0  3.959564  0
C  C77  1  0.46495283  0.42633138  0.15383347  1  -0.000532  0  -0.085183  -0.130014  0  3.959045  0
C  C78  1  0.01404950  0.58747950  0.31653679  1  0.352779  0  -0.136596  -0.166463  0  3.924483  0
C  C79  1  0.99404045  0.41323339  0.68327341  1  0.355793  0  -0.136217  -0.165261  0  3.923123  0
C  C80  1  0.05026296  0.33319002  0.51130119  1  0.019622  0  -0.01304  0.076341  0  4.011858  0
C  C81  1  0.98496676  0.27660773  0.51406815  1  -0.145025  0  -0.094876  -0.139046  0  3.98306  0
C  C82  1  0.00101284  0.19401220  0.52133252  1  0.026853  0  -0.099934  -0.089921  0  4.066168  0
C  C83  1  0.08258760  0.16621355  0.52553479  1  -0.077978  0  -0.104954  -0.10683  0  4.063939  0
C  C84  1  0.14766911  0.22186287  0.52248188  1  -0.074087  0  -0.100799  -0.086004  0  4.062174  0
C  C85  1  0.13195202  0.30479094  0.51558162  1  -0.068861  0  -0.096022  -0.138792  0  3.974099  0
C  C86  1  0.95649870  0.66741166  0.48865027  1  0.000197  0  -0.012837  0.075991  0  4.012635  0
C  C87  1  0.02083371  0.72502791  0.48590211  1  -0.08605  0  -0.094804  -0.138022  0  3.982654  0
C  C88  1  0.00331448  0.80737417  0.47878624  1  0.011326  0  -0.100348  -0.091468  0  4.066561  0
C  C89  1  0.92127026  0.83388453  0.47473623  1  -0.092452  0  -0.104964  -0.106983  0  4.06321  0
C  C90  1  0.85715500  0.77716909  0.47773326  1  -0.073541  0  -0.101143  -0.086572  0  4.06215  0
C  C91  1  0.87436916  0.69453078  0.48445033  1  -0.073603  0  -0.09595  -0.138039  0  3.974124  0
N  N92  1  0.50605075  0.70815448  0.50066660  1  -1.21105  0  -0.313422  -0.184686  0  3.504549  0
N  N93  1  0.50069707  0.29130700  0.49938482  1  -1.21703  0  -0.31359  -0.185858  0  3.505251  0
O  O94  1  0.50195499  0.56925507  0.38557798  1  -1.157909  0  -0.320606  -0.550627  0  2.325564  0
O  O95  1  0.50168826  0.43111244  0.61423837  1  -1.169453  0  -0.320067  -0.549522  0  2.326744  0
O  O96  1  0.49750468  0.43174913  0.38602070  1  -1.169182  0  -0.320356  -0.551059  0  2.328716  0
O  O97  1  0.50181696  0.56866977  0.61442182  1  -1.167699  0  -0.319691  -0.550466  0  2.326435  0
O  O98  1  0.63203346  0.56721465  0.49734554  1  -1.140902  0  -0.31568  -0.544901  0  2.257862  0
O  O99  1  0.37498271  0.43143443  0.50437698  1  -1.145303  0  -0.315713  -0.546256  0  2.258071  0
O  O100  1  0.62990685  0.42897791  0.49563732  1  -1.150426  0  -0.315334  -0.547453  0  2.265998  0
O  O101  1  0.37765009  0.56967965  0.50212787  1  -1.136184  0  -0.315192  -0.547713  0  2.26674  0
O  O102  1  0.07206132  0.56272499  0.37285038  1  -1.076659  0  -0.206572  -0.195316  0  2.522913  0
O  O103  1  0.93578129  0.43806459  0.62717901  1  -1.067578  0  -0.20667  -0.193949  0  2.526649  0
