# generated using pymatgen
data_ZnH12C12(BrN)2
_symmetry_space_group_name_H-M   'P 1'
_cell_length_a   5.52644612
_cell_length_b   9.00340155
_cell_length_c   13.85386822
_cell_angle_alpha   87.59876998
_cell_angle_beta   97.72244098
_cell_angle_gamma   96.95269528
_symmetry_Int_Tables_number   1
_chemical_formula_structural   ZnH12C12(BrN)2
_chemical_formula_sum   'Zn2 H24 C24 Br4 N4'
_cell_volume   677.81935836
_cell_formula_units_Z   2
loop_
 _symmetry_equiv_pos_site_id
 _symmetry_equiv_pos_as_xyz
  1  'x, y, z'
loop_
 _atom_site_type_symbol
 _atom_site_label
 _atom_site_symmetry_multiplicity
 _atom_site_fract_x
 _atom_site_fract_y
 _atom_site_fract_z
 _atom_site_occupancy
 _atom_site_hle17_bader_spin_density
 _atom_site_hle17_ddec_charge
 _atom_site_hle17_ddec_spin_density
 _atom_site_hle17_ddec_sum_bond_order
 _atom_site_hle17_magmom
 _atom_site_hse06_10hf_bader_spin_density
 _atom_site_hse06_10hf_ddec_charge
 _atom_site_hse06_10hf_ddec_spin_density
 _atom_site_hse06_10hf_ddec_sum_bond_order
 _atom_site_hse06_10hf_magmom
 _atom_site_hse06_bader_spin_density
 _atom_site_hse06_ddec_charge
 _atom_site_hse06_ddec_spin_density
 _atom_site_hse06_ddec_sum_bond_order
 _atom_site_hse06_magmom
 _atom_site_pbe_bader_spin_density
 _atom_site_pbe_cm5_charge
 _atom_site_pbe_ddec_charge
 _atom_site_pbe_ddec_spin_density
 _atom_site_pbe_ddec_sum_bond_order
 _atom_site_pbe_magmom
Zn  Zn0  1  0.37288528  0.46121449  0.76034316  1  0  0.768042  0  2.135097  0  0  0.590054  0  2.617489  0  0  0.631608  0  2.57434  0  0  0.519313  0.56175  0  2.646528  0
Zn  Zn1  1  0.62710691  0.53878862  0.23965353  1  0  0.768087  0  2.135154  0  0  0.590099  0  2.617605  0  0  0.631661  0  2.574451  0  0  0.51932  0.561795  0  2.646649  0
H  H2  1  0.26749492  0.40158855  0.54694321  1  0  0.074914  0  0.982461  0  0  0.077611  0  1.059062  0  0  0.080608  0  1.056264  0  0  0.097644  0.075377  0  1.06113  0
H  H3  1  0.73249077  0.59839881  0.45305551  1  0  0.07493  0  0.982343  0  0  0.077637  0  1.05892  0  0  0.080632  0  1.056126  0  0  0.097639  0.075405  0  1.060987  0
H  H4  1  0.94426270  0.25645846  0.43405014  1  0  0.111079  0  0.955671  0  0  0.119629  0  1.019441  0  0  0.12306  0  1.018358  0  0  0.099776  0.11711  0  1.020495  0
H  H5  1  0.05571372  0.74352763  0.56595175  1  0  0.11109  0  0.955667  0  0  0.119643  0  1.019425  0  0  0.123074  0  1.018342  0  0  0.099797  0.117139  0  1.020464  0
H  H6  1  0.58007192  0.10911722  0.68493443  1  0  0.108351  0  0.943948  0  0  0.121688  0  0.998468  0  0  0.124608  0  0.998237  0  0  0.106286  0.119595  0  0.998821  0
H  H7  1  0.41992774  0.89087550  0.31507287  1  0  0.108392  0  0.943925  0  0  0.121667  0  0.998497  0  0  0.124584  0  0.998268  0  0  0.106279  0.119589  0  0.99884  0
H  H8  1  0.91581236  0.25700334  0.78638842  1  0  0.065452  0  0.980178  0  0  0.071356  0  1.054849  0  0  0.074048  0  1.051463  0  0  0.101352  0.069313  0  1.057358  0
H  H9  1  0.08419086  0.74298957  0.21361400  1  0  0.065423  0  0.98008  0  0  0.071306  0  1.054782  0  0  0.074009  0  1.051385  0  0  0.101334  0.069269  0  1.057279  0
H  H10  1  0.36714930  0.14039076  0.47678541  1  0  0.085781  0  0.951033  0  0  0.102996  0  1.01352  0  0  0.103688  0  1.014428  0  0  0.091048  0.102506  0  1.0129  0
H  H11  1  0.63283377  0.85960069  0.52322397  1  0  0.08579  0  0.950932  0  0  0.102879  0  1.01349  0  0  0.103561  0  1.014394  0  0  0.091004  0.102408  0  1.012878  0
H  H12  1  0.58566714  0.08553947  0.40915848  1  0  0.076012  0  0.940057  0  0  0.093565  0  1.000742  0  0  0.094945  0  0.999946  0  0  0.092198  0.092559  0  1.001345  0
H  H13  1  0.41431423  0.91445325  0.59084647  1  0  0.075985  0  0.94031  0  0  0.093491  0  1.000941  0  0  0.094875  0  1.000123  0  0  0.092228  0.092499  0  1.001559  0
H  H14  1  0.97198686  0.48041394  0.88644043  1  0  0.06735  0  0.969091  0  0  0.074774  0  1.040112  0  0  0.076898  0  1.03797  0  0  0.102021  0.073165  0  1.041735  0
H  H15  1  0.02802965  0.51959119  0.11356612  1  0  0.067574  0  0.96906  0  0  0.074997  0  1.040035  0  0  0.07712  0  1.03788  0  0  0.102068  0.073325  0  1.041738  0
H  H16  1  0.78810838  0.67892034  0.96024545  1  0  0.110378  0  0.970362  0  0  0.11664  0  1.039525  0  0  0.120111  0  1.038698  0  0  0.094314  0.114144  0  1.040308  0
H  H17  1  0.21190891  0.32108933  0.03975891  1  0  0.110383  0  0.970365  0  0  0.116649  0  1.039528  0  0  0.120118  0  1.038703  0  0  0.094284  0.114154  0  1.040319  0
H  H18  1  0.30490954  0.00473267  0.83474434  1  0  0.103108  0  0.98251  0  0  0.109492  0  1.051842  0  0  0.113356  0  1.050164  0  0  0.091445  0.106727  0  1.053172  0
H  H19  1  0.69508699  0.99527518  0.16524529  1  0  0.103177  0  0.982548  0  0  0.109569  0  1.051842  0  0  0.113432  0  1.050162  0  0  0.09145  0.106803  0  1.053174  0
H  H20  1  0.46894861  0.78984131  0.76392257  1  0  0.068487  0  0.972891  0  0  0.074823  0  1.042973  0  0  0.07773  0  1.040295  0  0  0.100939  0.072698  0  1.044869  0
H  H21  1  0.53103983  0.21016196  0.23606888  1  0  0.068526  0  0.972824  0  0  0.074823  0  1.042953  0  0  0.077726  0  1.040272  0  0  0.100916  0.072694  0  1.044848  0
H  H22  1  0.73413850  0.95385644  0.95424202  1  0  0.086236  0  0.937825  0  0  0.101361  0  1.001211  0  0  0.102472  0  1.001796  0  0  0.090575  0.100537  0  1.000905  0
H  H23  1  0.26587350  0.04615588  0.04574977  1  0  0.086192  0  0.937706  0  0  0.101329  0  1.001138  0  0  0.102433  0  1.00172  0  0  0.090575  0.100488  0  1.000848  0
H  H24  1  0.94961212  0.08623917  0.90315398  1  0  0.078399  0  0.955118  0  0  0.092432  0  1.023079  0  0  0.093675  0  1.02257  0  0  0.087365  0.091504  0  1.023546  0
H  H25  1  0.05040476  0.91376978  0.09683881  1  0  0.078347  0  0.955165  0  0  0.092427  0  1.02312  0  0  0.09366  0  1.022614  0  0  0.087354  0.091499  0  1.023572  0
C  C26  1  0.11263685  0.33339889  0.57423703  1  0  0.136729  0  3.694637  0  0  0.105568  0  3.941428  0  0  0.113686  0  3.959155  0  0  0.041558  0.100449  0  3.929315  0
C  C27  1  0.88736370  0.66658959  0.42576387  1  0  0.136725  0  3.694618  0  0  0.105607  0  3.941405  0  0  0.113725  0  3.959132  0  0  0.041579  0.100479  0  3.929304  0
C  C28  1  0.93102656  0.25191124  0.51200330  1  0  -0.167641  0  3.69098  0  0  -0.184915  0  3.935943  0  0  -0.193544  0  3.956538  0  0  -0.085934  -0.179431  0  3.922243  0
C  C29  1  0.06896672  0.74807714  0.48799941  1  0  -0.167647  0  3.691063  0  0  -0.184884  0  3.936054  0  0  -0.193515  0  3.956648  0  0  -0.085951  -0.179414  0  3.922356  0
C  C30  1  0.73342047  0.16687656  0.54929135  1  0  0.169418  0  3.69309  0  0  0.185486  0  3.928619  0  0  0.191826  0  3.950133  0  0  0.017539  0.181473  0  3.913897  0
C  C31  1  0.26657308  0.83311281  0.45071497  1  0  0.169622  0  3.692798  0  0  0.185508  0  3.928439  0  0  0.191844  0  3.949928  0  0  0.017619  0.181508  0  3.913747  0
C  C32  1  0.73011782  0.16904715  0.65021387  1  0  -0.170522  0  3.702551  0  0  -0.186349  0  3.945839  0  0  -0.195621  0  3.96809  0  0  -0.087092  -0.180447  0  3.930958  0
C  C33  1  0.26987612  0.83094449  0.34979172  1  0  -0.170784  0  3.702582  0  0  -0.186517  0  3.945914  0  0  -0.195792  0  3.968169  0  0  -0.087192  -0.180624  0  3.931034  0
C  C34  1  0.91834449  0.25229670  0.70806535  1  0  0.128909  0  3.742977  0  0  0.095033  0  3.994009  0  0  0.102817  0  4.012652  0  0  0.039815  0.090086  0  3.981401  0
C  C35  1  0.08166220  0.74769505  0.29193870  1  0  0.129015  0  3.742911  0  0  0.0952  0  3.993924  0  0  0.102975  0  4.012566  0  0  0.039917  0.090259  0  3.981307  0
C  C36  1  0.53204446  0.08130257  0.48283310  1  0  -0.154544  0  3.700925  0  0  -0.197207  0  3.94701  0  0  -0.19884  0  3.958369  0  0  -0.157965  -0.195901  0  3.938939  0
C  C37  1  0.46793999  0.91868670  0.51717493  1  0  -0.154444  0  3.700867  0  0  -0.196738  0  3.946741  0  0  -0.198316  0  3.958037  0  0  -0.157853  -0.195522  0  3.938749  0
C  C38  1  0.04206355  0.59773139  0.87624942  1  0  0.138733  0  3.717377  0  0  0.104206  0  3.969824  0  0  0.112638  0  3.987642  0  0  0.04102  0.098766  0  3.957809  0
C  C39  1  0.95795472  0.40227386  0.12375360  1  0  0.1384  0  3.717558  0  0  0.103888  0  3.969991  0  0  0.112334  0  3.987791  0  0  0.040965  0.098491  0  3.958001  0
C  C40  1  0.93917283  0.70940608  0.91720185  1  0  -0.168557  0  3.689606  0  0  -0.185939  0  3.936618  0  0  -0.195345  0  3.958363  0  0  -0.087736  -0.179933  0  3.922097  0
C  C41  1  0.06084014  0.29060033  0.08279945  1  0  -0.168574  0  3.689623  0  0  -0.18596  0  3.936674  0  0  -0.19537  0  3.958427  0  0  -0.087767  -0.179939  0  3.922092  0
C  C42  1  0.03034906  0.85950743  0.90292924  1  0  0.169691  0  3.69614  0  0  0.187993  0  3.925782  0  0  0.194047  0  3.947528  0  0  0.017218  0.184197  0  3.910885  0
C  C43  1  0.96965834  0.14049913  0.09706673  1  0  0.169879  0  3.696438  0  0  0.188121  0  3.926185  0  0  0.194165  0  3.947931  0  0  0.017294  0.18433  0  3.91128  0
C  C44  1  0.22470755  0.88958951  0.84682418  1  0  -0.177331  0  3.704437  0  0  -0.192395  0  3.945864  0  0  -0.201175  0  3.966801  0  0  -0.092169  -0.186776  0  3.931853  0
C  C45  1  0.77529732  0.11041384  0.15316737  1  0  -0.177537  0  3.705033  0  0  -0.192573  0  3.946458  0  0  -0.201345  0  3.967388  0  0  -0.092268  -0.186958  0  3.93245  0
C  C46  1  0.31777884  0.77206242  0.80804042  1  0  0.124021  0  3.720409  0  0  0.093507  0  3.966793  0  0  0.101209  0  3.984818  0  0  0.036359  0.088637  0  3.954466  0
C  C47  1  0.68222547  0.22793748  0.19195402  1  0  0.124014  0  3.720312  0  0  0.093517  0  3.966675  0  0  0.101225  0  3.984692  0  0  0.036392  0.088647  0  3.954353  0
C  C48  1  0.93064837  0.98360126  0.94853394  1  0  -0.152555  0  3.674791  0  0  -0.192405  0  3.91475  0  0  -0.194315  0  3.926202  0  0  -0.157382  -0.19097  0  3.906749  0
C  C49  1  0.06935821  0.01641092  0.05146120  1  0  -0.152522  0  3.674734  0  0  -0.192435  0  3.914699  0  0  -0.194304  0  3.926127  0  0  -0.157389  -0.190972  0  3.906683  0
Br  Br50  1  0.64673318  0.58590651  0.65613885  1  0  -0.516386  0  1.027962  0  0  -0.457813  0  1.339207  0  0  -0.475041  0  1.318595  0  0  -0.260259  -0.445496  0  1.353225  0
Br  Br51  1  0.35326142  0.41408990  0.34385804  1  0  -0.516369  0  1.027959  0  0  -0.457785  0  1.339207  0  0  -0.475016  0  1.318594  0  0  -0.260256  -0.445473  0  1.353223  0
Br  Br52  1  0.50482852  0.29453632  0.89115276  1  0  -0.52021  0  0.969042  0  0  -0.457306  0  1.27084  0  0  -0.474526  0  1.248776  0  0  -0.259006  -0.444893  0  1.285731  0
Br  Br53  1  0.49520463  0.70549020  0.10885146  1  0  -0.520228  0  0.969126  0  0  -0.457309  0  1.27089  0  0  -0.474533  0  1.248823  0  0  -0.259005  -0.444914  0  1.285827  0
N  N54  1  0.10771428  0.33314780  0.67121246  1  0  -0.322532  0  3.352353  0  0  -0.231886  0  3.61628  0  0  -0.252503  0  3.633658  0  0  -0.340687  -0.218156  0  3.604311  0
N  N55  1  0.89228485  0.66684291  0.32878834  1  0  -0.322606  0  3.352335  0  0  -0.232057  0  3.616362  0  0  -0.252677  0  3.633745  0  0  -0.340791  -0.218323  0  3.604392  0
N  N56  1  0.22821741  0.62783944  0.82222766  1  0  -0.320826  0  3.350987  0  0  -0.23206  0  3.619817  0  0  -0.252213  0  3.636299  0  0  -0.339551  -0.21863  0  3.60845  0
N  N57  1  0.77179187  0.37216703  0.17777129  1  0  -0.320828  0  3.350932  0  0  -0.232038  0  3.61973  0  0  -0.252196  0  3.636215  0  0  -0.339542  -0.218601  0  3.608344  0
