# generated using pymatgen
data_UH7C7NO5
_symmetry_space_group_name_H-M   'P 1'
_cell_length_a   6.38033870
_cell_length_b   8.26201226
_cell_length_c   9.02400128
_cell_angle_alpha   91.84846062
_cell_angle_beta   96.28721719
_cell_angle_gamma   110.12865978
_symmetry_Int_Tables_number   1
_chemical_formula_structural   UH7C7NO5
_chemical_formula_sum   'U2 H14 C14 N2 O10'
_cell_volume   442.70589909
_cell_formula_units_Z   2
loop_
 _symmetry_equiv_pos_site_id
 _symmetry_equiv_pos_as_xyz
  1  'x, y, z'
loop_
 _atom_site_type_symbol
 _atom_site_label
 _atom_site_symmetry_multiplicity
 _atom_site_fract_x
 _atom_site_fract_y
 _atom_site_fract_z
 _atom_site_occupancy
 _atom_site_hle17_bader_spin_density
 _atom_site_hle17_ddec_charge
 _atom_site_hle17_ddec_spin_density
 _atom_site_hle17_ddec_sum_bond_order
 _atom_site_hle17_magmom
 _atom_site_hse06_10hf_bader_spin_density
 _atom_site_hse06_10hf_ddec_charge
 _atom_site_hse06_10hf_ddec_spin_density
 _atom_site_hse06_10hf_ddec_sum_bond_order
 _atom_site_hse06_10hf_magmom
 _atom_site_hse06_bader_spin_density
 _atom_site_hse06_ddec_charge
 _atom_site_hse06_ddec_spin_density
 _atom_site_hse06_ddec_sum_bond_order
 _atom_site_hse06_magmom
 _atom_site_pbe_bader_spin_density
 _atom_site_pbe_cm5_charge
 _atom_site_pbe_ddec_charge
 _atom_site_pbe_ddec_spin_density
 _atom_site_pbe_ddec_sum_bond_order
 _atom_site_pbe_magmom
U  U0  1  0.31444984  0.28984967  0.38496158  1  0  2.500169  0  4.131137  0  0  2.566512  0  4.782273  0  0  2.676102  0  4.746693  0  0  2.160181  2.488039  0  4.809754  0
U  U1  1  0.68554626  0.71017393  0.61499714  1  0  2.499601  0  4.131663  0  0  2.56638  0  4.78263  0  0  2.67599  0  4.746985  0  0  2.160151  2.487904  0  4.810109  0
H  H2  1  0.21035363  0.58642261  0.53011447  1  0  0.431863  0  0.86056  0  0  0.415728  0  0.905183  0  0  0.428302  0  0.887192  0  0  0.307973  0.406647  0  0.918106  0
H  H3  1  0.78963336  0.41357433  0.46989393  1  0  0.431796  0  0.860615  0  0  0.415635  0  0.905301  0  0  0.428213  0  0.8873  0  0  0.307917  0.406551  0  0.918224  0
H  H4  1  0.31496757  0.88624069  0.35065264  1  0  0.087427  0  0.947453  0  0  0.094534  0  1.012607  0  0  0.09769  0  1.008701  0  0  0.128723  0.092226  0  1.015672  0
H  H5  1  0.68503734  0.11375750  0.64935387  1  0  0.087294  0  0.947576  0  0  0.094416  0  1.012725  0  0  0.097564  0  1.008819  0  0  0.128727  0.092107  0  1.015791  0
H  H6  1  0.10580859  0.58323794  0.24895183  1  0  0.112465  0  0.985205  0  0  0.122521  0  1.045308  0  0  0.126437  0  1.043422  0  0  0.114421  0.119757  0  1.04683  0
H  H7  1  0.89419531  0.41676143  0.75104244  1  0  0.112479  0  0.985173  0  0  0.122525  0  1.045295  0  0  0.126442  0  1.04341  0  0  0.114412  0.119752  0  1.046822  0
H  H8  1  0.72744124  0.51478621  0.09295396  1  0  0.099121  0  0.923256  0  0  0.114292  0  0.973617  0  0  0.11642  0  0.972025  0  0  0.11801  0.112749  0  0.974888  0
H  H9  1  0.27256010  0.48521447  0.90704236  1  0  0.09915  0  0.923279  0  0  0.114313  0  0.973641  0  0  0.116439  0  0.97205  0  0  0.118017  0.112771  0  0.974909  0
H  H10  1  0.59105367  0.75786817  0.03536806  1  0  0.112077  0  0.942553  0  0  0.123186  0  1.001049  0  0  0.126308  0  1.000236  0  0  0.114496  0.120924  0  1.001718  0
H  H11  1  0.40894355  0.24213392  0.96464015  1  0  0.112158  0  0.942631  0  0  0.12326  0  1.001114  0  0  0.126382  0  1.0003  0  0  0.114514  0.121  0  1.001783  0
H  H12  1  0.65932971  0.05716721  0.04232809  1  0  0.12387  0  0.944021  0  0  0.138212  0  1.001584  0  0  0.140941  0  1.000048  0  0  0.107981  0.136206  0  1.003006  0
H  H13  1  0.34067068  0.94283493  0.95768480  1  0  0.123901  0  0.943951  0  0  0.138262  0  1.001498  0  0  0.14099  0  0.999961  0  0  0.107987  0.136256  0  1.002921  0
H  H14  1  0.94386028  0.19952255  0.08336652  1  0  0.127759  0  0.965078  0  0  0.139635  0  1.029924  0  0  0.140794  0  1.03164  0  0  0.116359  0.138716  0  1.028793  0
H  H15  1  0.05613577  0.80047698  0.91664376  1  0  0.127845  0  0.965022  0  0  0.139717  0  1.029847  0  0  0.140877  0  1.031562  0  0  0.11637  0.1388  0  1.028714  0
C  C16  1  0.15390565  0.85294190  0.28013268  1  0  0.151652  0  3.69758  0  0  0.124634  0  3.962864  0  0  0.134697  0  3.977819  0  0  0.06329  0.117356  0  3.953285  0
C  C17  1  0.84609592  0.14705242  0.71987459  1  0  0.151646  0  3.697559  0  0  0.124615  0  3.96285  0  0  0.134688  0  3.977798  0  0  0.063172  0.117338  0  3.953269  0
C  C18  1  0.03455310  0.68315870  0.22473351  1  0  -0.124085  0  3.700793  0  0  -0.136182  0  3.945737  0  0  -0.143219  0  3.963639  0  0  -0.07539  -0.131653  0  3.93437  0
C  C19  1  0.96544766  0.31684073  0.77526716  1  0  -0.123971  0  3.700593  0  0  -0.13606  0  3.94553  0  0  -0.143098  0  3.96343  0  0  -0.07535  -0.131532  0  3.934159  0
C  C20  1  0.82727537  0.64623442  0.13735558  1  0  0.035351  0  3.688271  0  0  0.017456  0  3.934908  0  0  0.023988  0  3.949221  0  0  -0.046155  0.013092  0  3.925364  0
C  C21  1  0.17272971  0.35376758  0.86264327  1  0  0.035287  0  3.688363  0  0  0.017406  0  3.934972  0  0  0.023937  0  3.949291  0  0  -0.046168  0.013043  0  3.925427  0
C  C22  1  0.74970423  0.78101538  0.10591731  1  0  -0.145817  0  3.663339  0  0  -0.164529  0  3.905825  0  0  -0.172097  0  3.924344  0  0  -0.068201  -0.159244  0  3.893018  0
C  C23  1  0.25029871  0.21898538  0.89408688  1  0  -0.14593  0  3.663567  0  0  -0.164657  0  3.906033  0  0  -0.172226  0  3.924551  0  0  -0.068219  -0.159376  0  3.89323  0
C  C24  1  0.88119675  0.94890781  0.16228482  1  0  0.299871  0  3.730308  0  0  0.309412  0  3.974391  0  0  0.319553  0  3.994203  0  0  0.1319  0.302357  0  3.960398  0
C  C25  1  0.11880442  0.05108912  0.83772469  1  0  0.299774  0  3.730333  0  0  0.309361  0  3.974358  0  0  0.319503  0  3.994172  0  0  0.131827  0.302305  0  3.960368  0
C  C26  1  0.80684280  0.09842365  0.12728991  1  0  -0.368417  0  3.693724  0  0  -0.417681  0  3.929175  0  0  -0.42555  0  3.934897  0  0  -0.152038  -0.411957  0  3.924917  0
C  C27  1  0.19315837  0.90157327  0.87271850  1  0  -0.368486  0  3.693607  0  0  -0.417794  0  3.92906  0  0  -0.425667  0  3.934791  0  0  -0.152032  -0.412076  0  3.924792  0
C  C28  1  0.75482571  0.18038396  0.26507478  1  0  0.776422  0  3.752482  0  0  0.749199  0  4.034772  0  0  0.788224  0  4.020529  0  0  0.25621  0.722325  0  4.043274  0
C  C29  1  0.24517919  0.81961419  0.73492730  1  0  0.776473  0  3.75248  0  0  0.749239  0  4.034767  0  0  0.788264  0  4.020525  0  0  0.256196  0.722365  0  4.043263  0
N  N30  1  0.07961965  0.98414981  0.24978580  1  0  -0.442645  0  3.215372  0  0  -0.419531  0  3.506611  0  0  -0.442839  0  3.530061  0  0  -0.363347  -0.402422  0  3.48983  0
N  N31  1  0.92038664  0.01584448  0.75021851  1  0  -0.442462  0  3.215263  0  0  -0.419401  0  3.506516  0  0  -0.442711  0  3.52996  0  0  -0.363279  -0.402291  0  3.489729  0
O  O32  1  0.33054971  0.16327628  0.54328208  1  0  -0.702177  0  1.546846  0  0  -0.714114  0  1.83542  0  0  -0.737101  0  1.82509  0  0  -0.750356  -0.699484  0  1.843142  0
O  O33  1  0.66945539  0.83671535  0.45671322  1  0  -0.701913  0  1.54805  0  0  -0.713969  0  1.836679  0  0  -0.736951  0  1.826356  0  0  -0.750716  -0.69935  0  1.844417  0
O  O34  1  0.29361532  0.40242832  0.21731279  1  0  -0.735469  0  1.589539  0  0  -0.745085  0  1.885387  0  0  -0.769216  0  1.874865  0  0  -0.758527  -0.729892  0  1.893715  0
O  O35  1  0.70637636  0.59756843  0.78267713  1  0  -0.735233  0  1.58878  0  0  -0.744999  0  1.884515  0  0  -0.769144  0  1.873997  0  0  -0.758087  -0.729784  0  1.892824  0
O  O36  1  0.91067282  0.24522080  0.37410889  1  0  -0.671348  0  2.006743  0  0  -0.644744  0  2.25956  0  0  -0.677575  0  2.25165  0  0  -0.33341  -0.620886  0  2.264196  0
O  O37  1  0.08932046  0.75477607  0.62589336  1  0  -0.671445  0  2.006758  0  0  -0.644844  0  2.259539  0  0  -0.677679  0  2.251623  0  0  -0.333437  -0.620982  0  2.264155  0
O  O38  1  0.55722604  0.18322493  0.26274591  1  0  -0.670388  0  2.067343  0  0  -0.651367  0  2.336939  0  0  -0.685472  0  2.32995  0  0  -0.362674  -0.626343  0  2.340646  0
O  O39  1  0.44277551  0.81677971  0.73725826  1  0  -0.670341  0  2.067419  0  0  -0.651359  0  2.337005  0  0  -0.685462  0  2.330008  0  0  -0.362636  -0.626344  0  2.340712  0
O  O40  1  0.31598464  0.52322073  0.53439267  1  0  -0.997716  0  1.797716  0  0  -1.022141  0  2.059256  0  0  -1.066443  0  2.041276  0  0  -0.709462  -0.988562  0  2.071722  0
O  O41  1  0.68402039  0.47679141  0.46558534  1  0  -0.997609  0  1.797716  0  0  -1.021995  0  2.059185  0  0  -1.066294  0  2.041201  0  0  -0.709347  -0.98841  0  2.071659  0
