# generated using pymatgen
data_CdH20C19N2O7
_symmetry_space_group_name_H-M   'P 1'
_cell_length_a   5.66618985
_cell_length_b   12.84452908
_cell_length_c   13.89273070
_cell_angle_alpha   114.61039871
_cell_angle_beta   95.03291410
_cell_angle_gamma   93.46559829
_symmetry_Int_Tables_number   1
_chemical_formula_structural   CdH20C19N2O7
_chemical_formula_sum   'Cd2 H40 C38 N4 O14'
_cell_volume   910.44835786
_cell_formula_units_Z   2
loop_
 _symmetry_equiv_pos_site_id
 _symmetry_equiv_pos_as_xyz
  1  'x, y, z'
loop_
 _atom_site_type_symbol
 _atom_site_label
 _atom_site_symmetry_multiplicity
 _atom_site_fract_x
 _atom_site_fract_y
 _atom_site_fract_z
 _atom_site_occupancy
 _atom_site_hle17_bader_spin_density
 _atom_site_hle17_ddec_charge
 _atom_site_hle17_ddec_spin_density
 _atom_site_hle17_ddec_sum_bond_order
 _atom_site_hle17_magmom
 _atom_site_hse06_10hf_bader_spin_density
 _atom_site_hse06_10hf_ddec_charge
 _atom_site_hse06_10hf_ddec_spin_density
 _atom_site_hse06_10hf_ddec_sum_bond_order
 _atom_site_hse06_10hf_magmom
 _atom_site_hse06_bader_spin_density
 _atom_site_hse06_ddec_charge
 _atom_site_hse06_ddec_spin_density
 _atom_site_hse06_ddec_sum_bond_order
 _atom_site_hse06_magmom
 _atom_site_pbe_bader_spin_density
 _atom_site_pbe_cm5_charge
 _atom_site_pbe_ddec_charge
 _atom_site_pbe_ddec_spin_density
 _atom_site_pbe_ddec_sum_bond_order
 _atom_site_pbe_magmom
Cd  Cd0  1  0.83005157  0.26992742  0.27668262  1  0  1.143085  0  1.645323  0  0  0.953694  0  2.081692  0  0  1.006373  0  2.031535  0  0  0.773489  0.916411  0  2.115981  0
Cd  Cd1  1  0.16993515  0.73008411  0.72331937  1  0  1.143028  0  1.645491  0  0  0.95366  0  2.081863  0  0  1.006339  0  2.031705  0  0  0.773508  0.916378  0  2.11614  0
H  H2  1  0.24934545  0.75816582  0.35722310  1  0  0.09541  0  0.970178  0  0  0.102508  0  1.037071  0  0  0.105434  0  1.036018  0  0  0.097139  0.100378  0  1.03793  0
H  H3  1  0.75065018  0.24183528  0.64278122  1  0  0.095369  0  0.970133  0  0  0.102505  0  1.03699  0  0  0.105439  0  1.035921  0  0  0.09715  0.100379  0  1.037845  0
H  H4  1  0.37026291  0.87263353  0.25871725  1  0  0.088031  0  0.979905  0  0  0.098303  0  1.043376  0  0  0.100463  0  1.044404  0  0  0.093613  0.096731  0  1.042795  0
H  H5  1  0.62974195  0.12736492  0.74129305  1  0  0.088052  0  0.979928  0  0  0.098323  0  1.043408  0  0  0.100482  0  1.044436  0  0  0.093609  0.096747  0  1.042844  0
H  H6  1  0.66509247  0.79769079  0.08953172  1  0  0.102729  0  0.955029  0  0  0.11428  0  1.015406  0  0  0.117604  0  1.013706  0  0  0.101554  0.111806  0  1.01686  0
H  H7  1  0.33491311  0.20230153  0.91046984  1  0  0.102595  0  0.955103  0  0  0.114203  0  1.01542  0  0  0.117546  0  1.0137  0  0  0.101503  0.11174  0  1.016844  0
H  H8  1  0.54656493  0.68321386  0.18935231  1  0  0.080169  0  0.994128  0  0  0.089298  0  1.063308  0  0  0.092474  0  1.060685  0  0  0.094457  0.086994  0  1.065298  0
H  H9  1  0.45341288  0.31676067  0.81063900  1  0  0.080251  0  0.994418  0  0  0.08935  0  1.063611  0  0  0.09252  0  1.061003  0  0  0.094495  0.087051  0  1.065587  0
H  H10  1  0.06783973  0.85972012  0.02122266  1  0  0.122306  0  0.926932  0  0  0.136716  0  0.985007  0  0  0.138756  0  0.9848  0  0  0.104511  0.135281  0  0.985222  0
H  H11  1  0.93218512  0.14028493  0.97878683  1  0  0.122251  0  0.926903  0  0  0.13667  0  0.984903  0  0  0.13871  0  0.984695  0  0  0.104452  0.135241  0  0.985115  0
H  H12  1  0.29192374  0.94252852  0.12889196  1  0  0.119163  0  0.930928  0  0  0.133028  0  0.989409  0  0  0.136147  0  0.987184  0  0  0.102003  0.130804  0  0.99107  0
H  H13  1  0.70809724  0.05747910  0.87111108  1  0  0.119219  0  0.93095  0  0  0.133031  0  0.989454  0  0  0.136148  0  0.987226  0  0  0.102021  0.130809  0  0.991117  0
H  H14  1  0.25408615  0.42294863  0.23894391  1  0  0.091132  0  0.936145  0  0  0.104715  0  0.990843  0  0  0.106419  0  0.989646  0  0  0.124288  0.103414  0  0.99181  0
H  H15  1  0.74590968  0.57704978  0.76105006  1  0  0.091169  0  0.936118  0  0  0.10476  0  0.990794  0  0  0.106465  0  0.989596  0  0  0.124287  0.103456  0  0.991756  0
H  H16  1  0.33597570  0.52259395  0.12875623  1  0  0.106072  0  0.982725  0  0  0.113196  0  1.051513  0  0  0.117002  0  1.049176  0  0  0.106823  0.110461  0  1.053347  0
H  H17  1  0.66402339  0.47740516  0.87122520  1  0  0.106048  0  0.982652  0  0  0.113139  0  1.051506  0  0  0.116939  0  1.049173  0  0  0.10681  0.110408  0  1.053331  0
H  H18  1  0.61441670  0.40010320  0.96783674  1  0  0.098319  0  0.982589  0  0  0.110181  0  1.043837  0  0  0.112668  0  1.043728  0  0  0.10651  0.108406  0  1.044037  0
H  H19  1  0.38557605  0.59990036  0.03215106  1  0  0.098327  0  0.98253  0  0  0.110182  0  1.043783  0  0  0.112629  0  1.043723  0  0  0.106532  0.108465  0  1.043918  0
H  H20  1  0.56762018  0.30140748  0.08621986  1  0  0.089655  0  0.964997  0  0  0.098319  0  1.028158  0  0  0.100904  0  1.025626  0  0  0.117703  0.096383  0  1.030027  0
H  H21  1  0.43235600  0.69859460  0.91376868  1  0  0.089668  0  0.965071  0  0  0.09836  0  1.028201  0  0  0.100951  0  1.025669  0  0  0.117699  0.096424  0  1.030075  0
H  H22  1  0.98678854  0.06576695  0.33333743  1  0  0.075387  0  0.973755  0  0  0.08232  0  1.040857  0  0  0.083912  0  1.04052  0  0  0.114304  0.081069  0  1.041219  0
H  H23  1  0.01322732  0.93424161  0.66666642  1  0  0.075254  0  0.97396  0  0  0.082225  0  1.041002  0  0  0.08387  0  1.040609  0  0  0.114264  0.08096  0  1.04138  0
H  H24  1  0.85089813  0.94137380  0.41709024  1  0  0.102888  0  0.985753  0  0  0.111076  0  1.050675  0  0  0.11333  0  1.051728  0  0  0.105679  0.109476  0  1.050098  0
H  H25  1  0.14911707  0.05862791  0.58291606  1  0  0.102839  0  0.986036  0  0  0.111087  0  1.050859  0  0  0.113345  0  1.051911  0  0  0.105713  0.109489  0  1.050284  0
H  H26  1  0.26306899  0.15012211  0.50792773  1  0  0.10671  0  0.987804  0  0  0.114397  0  1.053427  0  0  0.117373  0  1.053019  0  0  0.10785  0.112291  0  1.053797  0
H  H27  1  0.73695947  0.84988111  0.49207550  1  0  0.106739  0  0.987673  0  0  0.114411  0  1.053333  0  0  0.117388  0  1.052901  0  0  0.107923  0.112308  0  1.053697  0
H  H28  1  0.41742035  0.25856700  0.41415314  1  0  0.069674  0  0.979304  0  0  0.081007  0  1.042779  0  0  0.083104  0  1.040386  0  0  0.117069  0.079358  0  1.044711  0
H  H29  1  0.58256859  0.74144108  0.58585128  1  0  0.069683  0  0.979223  0  0  0.081036  0  1.042674  0  0  0.083126  0  1.040292  0  0  0.11712  0.079385  0  1.044611  0
H  H30  1  0.12139978  0.36946766  0.48010870  1  0  0.417913  0  0.897449  0  0  0.38204  0  0.970108  0  0  0.394828  0  0.951676  0  0  0.278056  0.373041  0  0.983045  0
H  H31  1  0.87858426  0.63053103  0.51989700  1  0  0.41794  0  0.897435  0  0  0.382055  0  0.970102  0  0  0.394843  0  0.95167  0  0  0.278072  0.373054  0  0.983044  0
H  H32  1  0.29847634  0.39790375  0.40317753  1  0  0.413536  0  0.891848  0  0  0.38262  0  0.956567  0  0  0.393631  0  0.940249  0  0  0.282023  0.374773  0  0.96818  0
H  H33  1  0.70150238  0.60209412  0.59682542  1  0  0.413557  0  0.891825  0  0  0.382657  0  0.956532  0  0  0.393669  0  0.940212  0  0  0.281986  0.374807  0  0.968149  0
H  H34  1  0.61148710  0.48869142  0.35101898  1  0  0.414293  0  0.90219  0  0  0.376272  0  0.977518  0  0  0.389785  0  0.958408  0  0  0.276669  0.366797  0  0.990873  0
H  H35  1  0.38850843  0.51130880  0.64898357  1  0  0.414255  0  0.902252  0  0  0.376228  0  0.977592  0  0  0.389741  0  0.958483  0  0  0.276651  0.366755  0  0.990943  0
H  H36  1  0.70684763  0.46119395  0.44861888  1  0  0.416846  0  0.854752  0  0  0.392224  0  0.920759  0  0  0.401898  0  0.909845  0  0  0.300865  0.385275  0  0.92864  0
H  H37  1  0.29313600  0.53880301  0.55138543  1  0  0.416831  0  0.854772  0  0  0.392205  0  0.920798  0  0  0.401881  0  0.909876  0  0  0.300881  0.385254  0  0.928675  0
H  H38  1  0.33739286  0.15415424  0.17100326  1  0  0.424821  0  0.87977  0  0  0.392363  0  0.946102  0  0  0.403587  0  0.93  0  0  0.281255  0.384434  0  0.957439  0
H  H39  1  0.66260553  0.84584939  0.82899927  1  0  0.42485  0  0.879721  0  0  0.3924  0  0.946047  0  0  0.403624  0  0.929948  0  0  0.281256  0.384466  0  0.957393  0
H  H40  1  0.56654188  0.10248095  0.11657434  1  0  0.415816  0  0.893917  0  0  0.382862  0  0.961555  0  0  0.394852  0  0.944198  0  0  0.28098  0.374403  0  0.973767  0
H  H41  1  0.43345170  0.89752021  0.88343278  1  0  0.415788  0  0.893962  0  0  0.382826  0  0.961606  0  0  0.394816  0  0.944249  0  0  0.280931  0.374368  0  0.973817  0
C  C42  1  0.81561689  0.64639901  0.34139401  1  0  0.642105  0  3.916428  0  0  0.591778  0  4.215612  0  0  0.625887  0  4.207627  0  0  0.202189  0.568762  0  4.220192  0
C  C43  1  0.18437351  0.35360215  0.65860934  1  0  0.64199  0  3.916347  0  0  0.591632  0  4.215586  0  0  0.625731  0  4.207603  0  0  0.20218  0.568626  0  4.220158  0
C  C44  1  0.88980042  0.71312188  0.27959185  1  0  -0.085056  0  3.774283  0  0  -0.062468  0  4.008286  0  0  -0.070107  0  4.030257  0  0  -0.029466  -0.057637  0  3.993535  0
C  C45  1  0.11018542  0.28687590  0.72041072  1  0  -0.084806  0  3.774201  0  0  -0.062197  0  4.008185  0  0  -0.069806  0  4.030117  0  0  -0.02939  -0.057395  0  3.993468  0
C  C46  1  0.12182522  0.76761519  0.29881256  1  0  -0.072762  0  3.750749  0  0  -0.094932  0  3.999854  0  0  -0.093718  0  4.018838  0  0  -0.092966  -0.095484  0  3.986926  0
C  C47  1  0.87816880  0.23238858  0.70119844  1  0  -0.072769  0  3.750987  0  0  -0.094977  0  4.000102  0  0  -0.093773  0  4.01908  0  0  -0.092949  -0.095522  0  3.987179  0
C  C48  1  0.18842043  0.83145248  0.24320098  1  0  -0.142519  0  3.738897  0  0  -0.15743  0  3.983612  0  0  -0.162251  0  4.005622  0  0  -0.100066  -0.154143  0  3.968624  0
C  C49  1  0.81158404  0.16855117  0.75681196  1  0  -0.142529  0  3.739181  0  0  -0.157518  0  3.983877  0  0  -0.162338  0  4.005898  0  0  -0.100134  -0.154234  0  3.968896  0
C  C50  1  0.02627692  0.84306457  0.16684831  1  0  0.12871  0  3.733143  0  0  0.148326  0  3.968176  0  0  0.150479  0  3.99208  0  0  -0.006666  0.14694  0  3.951891  0
C  C51  1  0.97372151  0.15693567  0.83316088  1  0  0.128768  0  3.733308  0  0  0.148535  0  3.968082  0  0  0.150686  0  3.991995  0  0  -0.006499  0.147134  0  3.951823  0
C  C52  1  0.79386828  0.78795874  0.14757748  1  0  -0.13519  0  3.730793  0  0  -0.155321  0  3.981798  0  0  -0.159613  0  4.003259  0  0  -0.098332  -0.152412  0  3.967254  0
C  C53  1  0.20613961  0.21203527  0.85242412  1  0  -0.13505  0  3.730939  0  0  -0.155287  0  3.981888  0  0  -0.159594  0  4.003332  0  0  -0.098383  -0.152371  0  3.967342  0
C  C54  1  0.72803922  0.72387260  0.20277093  1  0  -0.083405  0  3.778985  0  0  -0.10703  0  4.031386  0  0  -0.10629  0  4.051239  0  0  -0.095034  -0.107243  0  4.01782  0
C  C55  1  0.27195490  0.27611463  0.79722237  1  0  -0.08359  0  3.779493  0  0  -0.107219  0  4.031928  0  0  -0.106492  0  4.051792  0  0  -0.095059  -0.107418  0  4.018358  0
C  C56  1  0.10093914  0.91311225  0.10773636  1  0  -0.31572  0  3.656986  0  0  -0.35814  0  3.899205  0  0  -0.363841  0  3.905103  0  0  -0.163293  -0.354211  0  3.895174  0
C  C57  1  0.89907526  0.08688866  0.89227536  1  0  -0.315799  0  3.657199  0  0  -0.358144  0  3.899213  0  0  -0.363842  0  3.905104  0  0  -0.163275  -0.354216  0  3.89519  0
C  C58  1  0.95547450  0.01623857  0.13033633  1  0  0.710207  0  3.833375  0  0  0.659317  0  4.141091  0  0  0.692362  0  4.134272  0  0  0.212055  0.636899  0  4.144893  0
C  C59  1  0.04453470  0.98376062  0.86966871  1  0  0.710111  0  3.833532  0  0  0.659172  0  4.141291  0  0  0.692219  0  4.134479  0  0  0.211963  0.636755  0  4.145091  0
C  C60  1  0.11718011  0.41845108  0.17694661  1  0  0.147416  0  3.684011  0  0  0.116947  0  3.932299  0  0  0.124805  0  3.95015  0  0  0.055062  0.111788  0  3.920199  0
C  C61  1  0.88282590  0.58153942  0.82304493  1  0  0.147115  0  3.683869  0  0  0.116666  0  3.932143  0  0  0.12453  0  3.949988  0  0  0.054937  0.111508  0  3.920036  0
C  C62  1  0.16077874  0.47538453  0.11355293  1  0  -0.14411  0  3.678305  0  0  -0.164734  0  3.928934  0  0  -0.172596  0  3.950169  0  0  -0.07448  -0.159661  0  3.914749  0
C  C63  1  0.83922437  0.52460346  0.88644184  1  0  -0.143962  0  3.67849  0  0  -0.16454  0  3.92906  0  0  -0.1724  0  3.950295  0  0  -0.074418  -0.159463  0  3.914864  0
C  C64  1  0.98132668  0.47077193  0.03505897  1  0  0.099836  0  3.740469  0  0  0.111826  0  3.967907  0  0  0.115647  0  3.990068  0  0  0.01839  0.109465  0  3.952724  0
C  C65  1  0.01865341  0.52921798  0.96492307  1  0  0.099931  0  3.740791  0  0  0.11187  0  3.968257  0  0  0.115689  0  3.990416  0  0  0.018426  0.1095  0  3.953089  0
C  C66  1  0.76320051  0.40781040  0.02620209  1  0  -0.147107  0  3.690789  0  0  -0.166503  0  3.938952  0  0  -0.174232  0  3.960536  0  0  -0.077563  -0.161493  0  3.924471  0
C  C67  1  0.23678762  0.59217522  0.97379245  1  0  -0.14697  0  3.690937  0  0  -0.16633  0  3.939145  0  0  -0.174029  0  3.960754  0  0  -0.07761  -0.161361  0  3.924637  0
C  C68  1  0.73341613  0.35256547  0.09203857  1  0  0.138527  0  3.700372  0  0  0.106806  0  3.952387  0  0  0.114374  0  3.970214  0  0  0.050413  0.101897  0  3.940258  0
C  C69  1  0.26658648  0.64742435  0.90796695  1  0  0.138266  0  3.700179  0  0  0.106523  0  3.952229  0  0  0.114084  0  3.970052  0  0  0.050278  0.101609  0  3.940114  0
C  C70  1  0.82626357  0.08053416  0.37263549  1  0  0.139941  0  3.712079  0  0  0.107633  0  3.965199  0  0  0.115419  0  3.982824  0  0  0.050432  0.102569  0  3.953285  0
C  C71  1  0.17374578  0.91948048  0.62736380  1  0  0.13993  0  3.712037  0  0  0.107594  0  3.965197  0  0  0.115336  0  3.982814  0  0  0.050398  0.102539  0  3.953292  0
C  C72  1  0.74928675  0.01199068  0.42130402  1  0  -0.153085  0  3.688304  0  0  -0.170333  0  3.936206  0  0  -0.177621  0  3.956923  0  0  -0.078442  -0.165654  0  3.922361  0
C  C73  1  0.25074043  0.98802282  0.57869146  1  0  -0.15303  0  3.688681  0  0  -0.170327  0  3.936489  0  0  -0.177624  0  3.957227  0  0  -0.078437  -0.165645  0  3.922645  0
C  C74  1  0.54352179  0.03451217  0.47278938  1  0  0.094566  0  3.755368  0  0  0.106808  0  3.982185  0  0  0.11067  0  4.002947  0  0  0.016336  0.104397  0  3.967973  0
C  C75  1  0.45649317  0.96548867  0.52721658  1  0  0.094813  0  3.7557  0  0  0.10712  0  3.98244  0  0  0.110984  0  4.003199  0  0  0.016467  0.104703  0  3.968233  0
C  C76  1  0.42375964  0.12589431  0.47031862  1  0  -0.151771  0  3.683465  0  0  -0.169524  0  3.9295  0  0  -0.176766  0  3.949394  0  0  -0.077495  -0.16486  0  3.916217  0
C  C77  1  0.57625076  0.87411594  0.52967405  1  0  -0.151849  0  3.684018  0  0  -0.169632  0  3.93008  0  0  -0.176862  0  3.949968  0  0  -0.077684  -0.164964  0  3.916789  0
C  C78  1  0.51049841  0.18874610  0.41814847  1  0  0.153319  0  3.695917  0  0  0.120707  0  3.944907  0  0  0.128772  0  3.961658  0  0  0.053696  0.1154  0  3.933645  0
C  C79  1  0.48951633  0.81126491  0.58183894  1  0  0.153224  0  3.695875  0  0  0.120601  0  3.944903  0  0  0.128669  0  3.961648  0  0  0.053616  0.115293  0  3.933643  0
N  N80  1  0.70908091  0.16737846  0.37035994  1  0  -0.326341  0  3.260202  0  0  -0.246141  0  3.520571  0  0  -0.265796  0  3.538134  0  0  -0.328735  -0.232778  0  3.50838  0
N  N81  1  0.29092668  0.83262590  0.62964191  1  0  -0.326165  0  3.2596  0  0  -0.245954  0  3.519954  0  0  -0.265615  0  3.537542  0  0  -0.328603  -0.232589  0  3.507759  0
N  N82  1  0.90810683  0.35723090  0.16633956  1  0  -0.335153  0  3.260777  0  0  -0.255253  0  3.525082  0  0  -0.275795  0  3.543502  0  0  -0.331544  -0.24129  0  3.512304  0
N  N83  1  0.09189457  0.64277167  0.83364761  1  0  -0.334989  0  3.26007  0  0  -0.255144  0  3.524473  0  0  -0.275691  0  3.542895  0  0  -0.331436  -0.241176  0  3.511685  0
O  O84  1  0.93924335  0.67023733  0.43037706  1  0  -0.63848  0  1.966124  0  0  -0.582825  0  2.189367  0  0  -0.608348  0  2.180707  0  0  -0.331625  -0.564993  0  2.194743  0
O  O85  1  0.06075390  0.32976803  0.56962462  1  0  -0.638486  0  1.966208  0  0  -0.582819  0  2.189473  0  0  -0.608343  0  2.180819  0  0  -0.331635  -0.564987  0  2.194839  0
O  O86  1  0.63220493  0.57223793  0.30103951  1  0  -0.635997  0  1.97327  0  0  -0.580725  0  2.198451  0  0  -0.60691  0  2.189949  0  0  -0.329603  -0.562389  0  2.20364  0
O  O87  1  0.36779309  0.42775881  0.69896259  1  0  -0.635942  0  1.973391  0  0  -0.580645  0  2.198562  0  0  -0.606835  0  2.190076  0  0  -0.329613  -0.562314  0  2.203746  0
O  O88  1  0.06270903  0.11723885  0.19279931  1  0  -0.705269  0  2.015199  0  0  -0.628948  0  2.263945  0  0  -0.658697  0  2.251611  0  0  -0.33853  -0.607957  0  2.271593  0
O  O89  1  0.93729207  0.88276554  0.80719644  1  0  -0.705151  0  2.015356  0  0  -0.628855  0  2.264157  0  0  -0.658586  0  2.251771  0  0  -0.338503  -0.607863  0  2.271804  0
O  O90  1  0.74178115  0.99633866  0.08966645  1  0  -0.611809  0  1.943619  0  0  -0.555187  0  2.162748  0  0  -0.579765  0  2.154069  0  0  -0.309656  -0.538081  0  2.168182  0
O  O91  1  0.25822299  0.00365721  0.91034285  1  0  -0.611831  0  1.943678  0  0  -0.555152  0  2.162767  0  0  -0.579723  0  2.154068  0  0  -0.309617  -0.538045  0  2.168196  0
O  O92  1  0.13066376  0.39163701  0.41758129  1  0  -0.8637  0  1.870694  0  0  -0.797605  0  2.069608  0  0  -0.820722  0  2.032861  0  0  -0.592045  -0.781162  0  2.095165  0
O  O93  1  0.86931582  0.60836343  0.58242123  1  0  -0.863746  0  1.870725  0  0  -0.797662  0  2.069621  0  0  -0.820779  0  2.032874  0  0  -0.592008  -0.781209  0  2.095173  0
O  O94  1  0.59961002  0.42600090  0.38111841  1  0  -0.844136  0  1.87063  0  0  -0.771852  0  2.064506  0  0  -0.796112  0  2.03367  0  0  -0.570456  -0.754619  0  2.085871  0
O  O95  1  0.40038853  0.57399667  0.61888114  1  0  -0.844075  0  1.870613  0  0  -0.771807  0  2.0645  0  0  -0.796067  0  2.033663  0  0  -0.570456  -0.754579  0  2.08586  0
O  O96  1  0.49249116  0.17621395  0.15193245  1  0  -0.857052  0  1.870365  0  0  -0.796716  0  2.067733  0  0  -0.819884  0  2.033255  0  0  -0.599442  -0.780151  0  2.091421  0
O  O97  1  0.50750752  0.82378964  0.84806721  1  0  -0.857038  0  1.870369  0  0  -0.796714  0  2.067721  0  0  -0.819892  0  2.033247  0  0  -0.599393  -0.780145  0  2.091414  0
