# generated using pymatgen
data_MnH6C6(N2O)4
_symmetry_space_group_name_H-M   'P 1'
_cell_length_a   4.95318543
_cell_length_b   7.77995260
_cell_length_c   13.52487572
_cell_angle_alpha   90.00003523
_cell_angle_beta   89.99999241
_cell_angle_gamma   104.62221186
_symmetry_Int_Tables_number   1
_chemical_formula_structural   MnH6C6(N2O)4
_chemical_formula_sum   'Mn2 H12 C12 N16 O8'
_cell_volume   504.30791868
_cell_formula_units_Z   2
loop_
 _symmetry_equiv_pos_site_id
 _symmetry_equiv_pos_as_xyz
  1  'x, y, z'
loop_
 _atom_site_type_symbol
 _atom_site_label
 _atom_site_symmetry_multiplicity
 _atom_site_fract_x
 _atom_site_fract_y
 _atom_site_fract_z
 _atom_site_occupancy
 _atom_site_hle17_ddec_charge
 _atom_site_hle17_ddec_spin_density
 _atom_site_hle17_ddec_sum_bond_order
 _atom_site_hle17_magmom
 _atom_site_hse06_10hf_ddec_charge
 _atom_site_hse06_10hf_ddec_spin_density
 _atom_site_hse06_10hf_ddec_sum_bond_order
 _atom_site_hse06_10hf_magmom
 _atom_site_hse06_ddec_charge
 _atom_site_hse06_ddec_spin_density
 _atom_site_hse06_ddec_sum_bond_order
 _atom_site_hse06_magmom
 _atom_site_pbe_cm5_charge
 _atom_site_pbe_ddec_charge
 _atom_site_pbe_ddec_spin_density
 _atom_site_pbe_ddec_sum_bond_order
 _atom_site_pbe_magmom
Mn  Mn0  1  0.99999824  0.00000094  0.99999998  1  1.161284  4.790365  1.840658  4.681  0.998658  4.710127  2.348432  4.537  1.05372  4.754637  2.278933  4.6  0.616043  0.956031  4.663732  2.399648  4.474
Mn  Mn1  1  0.49999918  0.50000045  0.49999950  1  1.161332  4.790362  1.840629  4.681  0.998696  4.710127  2.348409  4.537  1.053757  4.754636  2.27891  4.6  0.616054  0.956062  4.66373  2.399625  4.474
H  H2  1  0.27369762  0.82142721  0.80945748  1  0.130121  -0.00067  0.957468  0.0  0.129421  -0.000479  1.035206  0.0  0.133177  -0.000515  1.030427  0.0  0.151791  0.126538  -0.000431  1.038869  0.0
H  H3  1  0.22630370  0.67857298  0.30945730  1  0.130105  -0.000677  0.95748  0.0  0.129405  -0.000479  1.03522  0.0  0.133161  -0.000515  1.03044  0.0  0.151787  0.126522  -0.000431  1.038882  0.0
H  H4  1  0.72630276  0.17857368  0.19054372  1  0.130174  -0.000678  0.957557  0.0  0.12947  -0.00048  1.035288  0.0  0.133225  -0.000514  1.030511  0.0  0.151823  0.126589  -0.000431  1.038949  0.0
H  H5  1  0.77369817  0.32142658  0.69054169  1  0.130147  -0.000676  0.957506  0.0  0.129445  -0.000479  1.03523  0.0  0.133201  -0.000515  1.030451  0.0  0.151797  0.126561  -0.000431  1.038892  0.0
H  H6  1  0.46018220  0.88494260  0.62267574  1  0.1234  -5.9e-05  0.955044  0.0  0.125085  0.00013  1.034041  0.0  0.127712  1.3e-05  1.032167  0.0  0.12245  0.123215  0.000261  1.03543  0.0
H  H7  1  0.03981763  0.61505872  0.12267554  1  0.123385  -6.5e-05  0.955006  0.0  0.125056  0.000131  1.034018  0.0  0.127684  1.3e-05  1.032142  0.0  0.122441  0.123187  0.000261  1.035407  0.0
H  H8  1  0.53981617  0.11505829  0.37732473  1  0.123392  -6.4e-05  0.955054  0.0  0.125082  0.00013  1.034028  0.0  0.127709  1.3e-05  1.032154  0.0  0.122448  0.123212  0.000261  1.035419  0.0
H  H9  1  0.96018478  0.38494216  0.87732419  1  0.123378  -7.1e-05  0.955011  0.0  0.125047  0.000131  1.034027  0.0  0.127675  1.3e-05  1.032151  0.0  0.122435  0.123178  0.000261  1.035415  0.0
H  H10  1  0.30898266  0.03183935  0.55327828  1  0.14005  -0.000336  0.916203  0.0  0.151791  -4.4e-05  0.977782  0.0  0.154223  -0.000207  0.976678  0.0  0.131808  0.149974  0.000152  0.978696  0.001
H  H11  1  0.19102003  0.46815982  0.05327746  1  0.140018  -0.000337  0.916206  0.0  0.151803  -4.4e-05  0.977742  0.0  0.154235  -0.000207  0.976638  0.0  0.131816  0.149987  0.000152  0.978654  0.001
H  H12  1  0.69101974  0.96816154  0.44672145  1  0.140047  -0.000339  0.916202  0.0  0.151787  -4.3e-05  0.977783  0.0  0.154217  -0.000207  0.976682  0.0  0.131816  0.149968  0.000153  0.978697  0.001
H  H13  1  0.80898185  0.53183974  0.94672153  1  0.140051  -0.000341  0.916191  0.0  0.151788  -4.4e-05  0.977783  0.0  0.15422  -0.000207  0.976679  0.0  0.131813  0.14997  0.000152  0.978699  0.001
C  C14  1  0.13547022  0.89789618  0.78156445  1  0.163759  0.003973  3.598345  0.005  0.079617  0.006047  3.874333  0.006  0.092245  0.004859  3.884578  0.005  0.184246  0.071276  0.007427  3.867595  0.007
C  C15  1  0.36453111  0.60210398  0.28156424  1  0.163797  0.003997  3.598362  0.005  0.079653  0.006047  3.874352  0.006  0.092284  0.00486  3.884594  0.005  0.184255  0.071312  0.007427  3.86761  0.007
C  C16  1  0.86452465  0.10210605  0.21843528  1  0.163722  0.00401  3.598286  0.005  0.0796  0.006049  3.874281  0.006  0.09223  0.004859  3.884524  0.005  0.184193  0.071258  0.007429  3.867541  0.007
C  C17  1  0.63547077  0.39789557  0.71843475  1  0.163745  0.004012  3.598316  0.005  0.079623  0.006048  3.874272  0.006  0.092256  0.004859  3.884514  0.005  0.184254  0.07128  0.007427  3.867529  0.007
C  C18  1  0.26336207  0.91242392  0.60006186  1  -0.193986  0.001657  3.593073  0.002  -0.266459  0.002389  3.838544  0.002  -0.268086  0.001647  3.843411  0.002  -0.049797  -0.265106  0.003175  3.835514  0.002
C  C19  1  0.23664126  0.58757604  0.10006239  1  -0.193924  0.001669  3.592995  0.002  -0.266426  0.002389  3.838524  0.002  -0.268049  0.001645  3.843388  0.002  -0.049775  -0.265072  0.003175  3.835495  0.002
C  C20  1  0.73663832  0.08757697  0.39993787  1  -0.193957  0.001669  3.593086  0.002  -0.266431  0.002388  3.838625  0.002  -0.268056  0.001646  3.843492  0.002  -0.049802  -0.265076  0.003175  3.835598  0.002
C  C21  1  0.76336061  0.41242352  0.89993734  1  -0.193903  0.001692  3.593079  0.002  -0.266385  0.002386  3.838603  0.002  -0.26801  0.001646  3.843477  0.002  -0.049754  -0.265031  0.003176  3.835578  0.002
C  C22  1  0.08997022  0.75607380  0.53912967  1  0.714648  0.010605  3.850645  0.011  0.658109  0.017854  4.166924  0.017  0.693404  0.013532  4.158463  0.013  0.227946  0.633319  0.022424  4.171627  0.021
C  C23  1  0.41002907  0.74392610  0.03912950  1  0.714603  0.0106  3.85059  0.011  0.658055  0.017855  4.166899  0.017  0.693348  0.013533  4.15844  0.013  0.227942  0.633268  0.022424  4.171599  0.021
C  C24  1  0.91002963  0.24392576  0.46087006  1  0.714569  0.010608  3.850675  0.011  0.658007  0.017856  4.166996  0.017  0.6933  0.013533  4.158537  0.013  0.227907  0.633214  0.022425  4.1717  0.021
C  C25  1  0.58996877  0.25607346  0.96087023  1  0.714512  0.010598  3.850809  0.011  0.657992  0.017857  4.16707  0.017  0.693282  0.013533  4.158616  0.013  0.227901  0.633201  0.022424  4.171775  0.021
N  N26  1  0.95552610  0.95940467  0.83516124  1  -0.26609  0.023424  3.114654  0.01  -0.215106  0.029616  3.427521  0.012  -0.230661  0.026434  3.437026  0.01  -0.211704  -0.204259  0.032681  3.421291  0.014
N  N27  1  0.54447347  0.54059649  0.33516102  1  -0.266102  0.023409  3.114677  0.01  -0.215118  0.029619  3.427548  0.012  -0.230672  0.026433  3.437052  0.01  -0.211705  -0.204262  0.032681  3.421306  0.014
N  N28  1  0.04447631  0.04059622  0.16483775  1  -0.266041  0.023392  3.11443  0.01  -0.215104  0.029618  3.427339  0.012  -0.230657  0.02643  3.43684  0.01  -0.211683  -0.204249  0.03268  3.421098  0.014
N  N29  1  0.45552639  0.45940307  0.66483871  1  -0.26611  0.023393  3.114633  0.01  -0.215116  0.029622  3.427486  0.012  -0.230675  0.026428  3.436993  0.01  -0.211704  -0.204262  0.032682  3.421243  0.014
N  N30  1  0.11967040  0.95119086  0.68767377  1  0.066396  -0.000618  3.549139  0.0  0.183386  0.000637  3.738648  0.001  0.174007  4.9e-05  3.758723  0.0  -0.110981  0.188764  0.001188  3.726275  0.001
N  N31  1  0.38032890  0.54880920  0.18767279  1  0.066325  -0.000619  3.549216  0.0  0.183316  0.000634  3.738733  0.001  0.173918  5.3e-05  3.75884  0.0  -0.111024  0.188692  0.001188  3.726366  0.001
N  N32  1  0.88032946  0.04880870  0.31232670  1  0.066359  -0.000636  3.549108  0.0  0.183343  0.000634  3.738625  0.001  0.173961  5.3e-05  3.758701  0.0  -0.110985  0.188719  0.001188  3.726259  0.001
N  N33  1  0.61967297  0.45119036  0.81232620  1  0.066375  -0.000643  3.549129  0.0  0.18336  0.000634  3.738635  0.001  0.173965  5.1e-05  3.758739  0.0  -0.111026  0.188735  0.001188  3.726268  0.001
N  N34  1  0.92692753  0.04718284  0.68310497  1  -0.08565  0.001758  2.85134  0.002  -0.096982  0.003311  3.131924  0.004  -0.095144  0.002282  3.141369  0.003  -0.064478  -0.09831  0.004567  3.126056  0.005
N  N35  1  0.57307287  0.45281608  0.18310415  1  -0.085652  0.001755  2.851376  0.002  -0.096959  0.003312  3.13192  0.004  -0.095113  0.002281  3.141359  0.003  -0.064454  -0.098289  0.004567  3.126058  0.005
N  N36  1  0.07307233  0.95281673  0.31689550  1  -0.085689  0.001755  2.851391  0.002  -0.097016  0.003312  3.131973  0.004  -0.095177  0.002282  3.141418  0.003  -0.064496  -0.098342  0.004567  3.126109  0.005
N  N37  1  0.42692698  0.54718348  0.81689558  1  -0.085687  0.001755  2.851301  0.002  -0.097003  0.00331  3.13187  0.004  -0.095158  0.002282  3.141308  0.003  -0.064484  -0.098336  0.004567  3.126012  0.005
N  N38  1  0.82967300  0.05126908  0.77230136  1  -0.072415  0.002101  2.933679  0.003  -0.06844  0.004221  3.242284  0.005  -0.067675  0.003058  3.253275  0.004  -0.073505  -0.068965  0.005725  3.235053  0.007
N  N39  1  0.67032539  0.44872994  0.27230127  1  -0.072377  0.002102  2.933655  0.003  -0.068412  0.004222  3.242262  0.005  -0.067647  0.003057  3.253248  0.004  -0.0735  -0.068936  0.005725  3.235029  0.007
N  N40  1  0.17032686  0.94873048  0.22769911  1  -0.072399  0.002116  2.933591  0.003  -0.068404  0.004222  3.242196  0.005  -0.067637  0.003059  3.253185  0.004  -0.073484  -0.06893  0.005726  3.234965  0.007
N  N41  1  0.32967446  0.55126963  0.72769846  1  -0.072375  0.002116  2.933619  0.003  -0.068419  0.004219  3.242233  0.005  -0.067652  0.003061  3.253223  0.004  -0.073502  -0.068944  0.005725  3.235003  0.007
O  O42  1  0.22752362  0.67477618  0.48604451  1  -0.652421  0.02928  2.069429  0.017  -0.58683  0.038559  2.346407  0.022  -0.617095  0.03386  2.332329  0.018  -0.307972  -0.564002  0.043294  2.355097  0.027
O  O43  1  0.27247570  0.82522420  0.98604469  1  -0.652412  0.029279  2.069427  0.017  -0.586817  0.038557  2.346408  0.022  -0.617082  0.033858  2.332332  0.018  -0.307971  -0.563987  0.043291  2.355098  0.027
O  O44  1  0.77247677  0.32522471  0.51395596  1  -0.652362  0.02928  2.06939  0.017  -0.586759  0.038556  2.346373  0.022  -0.617024  0.033858  2.332298  0.018  -0.30792  -0.563928  0.043292  2.355061  0.027
O  O45  1  0.72752469  0.17477669  0.01395578  1  -0.652346  0.029282  2.069458  0.017  -0.586759  0.038558  2.346419  0.022  -0.617024  0.033859  2.332347  0.018  -0.307931  -0.563926  0.043294  2.355106  0.027
O  O46  1  0.82727534  0.72766630  0.54401694  1  -0.648484  0.033706  2.063847  0.023  -0.592944  0.042695  2.344135  0.029  -0.622987  0.037671  2.331815  0.024  -0.307841  -0.570488  0.04767  2.351762  0.033
O  O47  1  0.67272569  0.77233321  0.04401753  1  -0.648431  0.033704  2.063778  0.023  -0.592893  0.042693  2.344083  0.029  -0.622936  0.037669  2.331766  0.024  -0.307822  -0.570434  0.047668  2.351708  0.033
O  O48  1  0.17272452  0.27233326  0.45598279  1  -0.648449  0.0337  2.063854  0.023  -0.592913  0.042694  2.344181  0.029  -0.622957  0.03767  2.331863  0.024  -0.307835  -0.570455  0.047668  2.351808  0.033
O  O49  1  0.32727618  0.22766635  0.95598294  1  -0.648431  0.033701  2.063901  0.023  -0.592902  0.042694  2.344186  0.029  -0.622943  0.037671  2.331869  0.024  -0.307833  -0.570443  0.04767  2.351812  0.033
