# generated using pymatgen
data_LiH5C5N2O3
_symmetry_space_group_name_H-M   'P 1'
_cell_length_a   8.06513082
_cell_length_b   8.08597597
_cell_length_c   9.53205213
_cell_angle_alpha   90.00005961
_cell_angle_beta   90.00036735
_cell_angle_gamma   97.09940254
_symmetry_Int_Tables_number   1
_chemical_formula_structural   LiH5C5N2O3
_chemical_formula_sum   'Li4 H20 C20 N8 O12'
_cell_volume   616.86169727
_cell_formula_units_Z   4
loop_
 _symmetry_equiv_pos_site_id
 _symmetry_equiv_pos_as_xyz
  1  'x, y, z'
loop_
 _atom_site_type_symbol
 _atom_site_label
 _atom_site_symmetry_multiplicity
 _atom_site_fract_x
 _atom_site_fract_y
 _atom_site_fract_z
 _atom_site_occupancy
 _atom_site_hle17_bader_spin_density
 _atom_site_hle17_ddec_charge
 _atom_site_hle17_ddec_spin_density
 _atom_site_hle17_ddec_sum_bond_order
 _atom_site_hle17_magmom
 _atom_site_hse06_10hf_bader_spin_density
 _atom_site_hse06_10hf_ddec_charge
 _atom_site_hse06_10hf_ddec_spin_density
 _atom_site_hse06_10hf_ddec_sum_bond_order
 _atom_site_hse06_10hf_magmom
 _atom_site_hse06_bader_spin_density
 _atom_site_hse06_ddec_charge
 _atom_site_hse06_ddec_spin_density
 _atom_site_hse06_ddec_sum_bond_order
 _atom_site_hse06_magmom
 _atom_site_pbe_bader_spin_density
 _atom_site_pbe_cm5_charge
 _atom_site_pbe_ddec_charge
 _atom_site_pbe_ddec_spin_density
 _atom_site_pbe_ddec_sum_bond_order
 _atom_site_pbe_magmom
Li  Li0  1  0.93849876  0.88786169  0.39874601  1  0  0.857441  0  0.407899  0  0  0.822895  0  0.506934  0  0  0.831724  0  0.4904  0  0  0.506968  0.816321  0  0.518859  0
Li  Li1  1  0.56150508  0.11213721  0.89874718  1  0  0.857421  0  0.407967  0  0  0.822878  0  0.506983  0  0  0.831714  0  0.490449  0  0  0.506964  0.816308  0  0.518904  0
Li  Li2  1  0.06150166  0.11213444  0.60125374  1  0  0.857436  0  0.407911  0  0  0.822866  0  0.506971  0  0  0.831707  0  0.490436  0  0  0.50696  0.816295  0  0.518894  0
Li  Li3  1  0.43849705  0.88786266  0.10125363  1  0  0.857407  0  0.407985  0  0  0.822864  0  0.507014  0  0  0.831693  0  0.49048  0  0  0.506956  0.81629  0  0.518938  0
H  H4  1  0.67947253  0.36482802  0.62044866  1  0  0.090686  0  0.945174  0  0  0.094434  0  1.018514  0  0  0.097893  0  1.015175  0  0  0.128327  0.091928  0  1.021058  0
H  H5  1  0.82053888  0.63517897  0.12044874  1  0  0.09058  0  0.945236  0  0  0.094338  0  1.018569  0  0  0.097792  0  1.015234  0  0  0.128265  0.091831  0  1.021113  0
H  H6  1  0.32052480  0.63517309  0.37955214  1  0  0.090714  0  0.945145  0  0  0.094459  0  1.018477  0  0  0.097917  0  1.015135  0  0  0.128321  0.091951  0  1.021022  0
H  H7  1  0.17946325  0.36482089  0.87954996  1  0  0.090578  0  0.945228  0  0  0.094333  0  1.018561  0  0  0.097789  0  1.015224  0  0  0.128253  0.091825  0  1.021105  0
H  H8  1  0.44019520  0.27460120  0.15711333  1  0  0.099765  0  0.939799  0  0  0.104304  0  1.009682  0  0  0.107793  0  1.006848  0  0  0.136249  0.101857  0  1.011788  0
H  H9  1  0.05980086  0.72540100  0.65710976  1  0  0.099762  0  0.939758  0  0  0.104315  0  1.009657  0  0  0.107802  0  1.006824  0  0  0.136272  0.101893  0  1.011724  0
H  H10  1  0.55980430  0.72539742  0.84288852  1  0  0.099786  0  0.93972  0  0  0.104323  0  1.009621  0  0  0.107813  0  1.006788  0  0  0.136268  0.101888  0  1.011711  0
H  H11  1  0.94020066  0.27460385  0.34288790  1  0  0.099785  0  0.939779  0  0  0.104296  0  1.009716  0  0  0.107785  0  1.006881  0  0  0.136253  0.101862  0  1.011802  0
H  H12  1  0.42768954  0.14559210  0.59790395  1  0  0.126333  0  0.957061  0  0  0.133376  0  1.020895  0  0  0.13784  0  1.017887  0  0  0.129076  0.129832  0  1.023748  0
H  H13  1  0.07231674  0.85441620  0.09790392  1  0  0.126393  0  0.957093  0  0  0.133431  0  1.0209  0  0  0.137897  0  1.017898  0  0  0.129071  0.129891  0  1.02374  0
H  H14  1  0.57230778  0.85440902  0.40209791  1  0  0.126384  0  0.957025  0  0  0.133402  0  1.020882  0  0  0.137864  0  1.017874  0  0  0.129094  0.129857  0  1.023739  0
H  H15  1  0.92768539  0.14558367  0.90209688  1  0  0.126407  0  0.957047  0  0  0.13343  0  1.020884  0  0  0.137891  0  1.017889  0  0  0.129068  0.129891  0  1.023724  0
H  H16  1  0.03607296  0.59401871  0.33999849  1  0  0.401558  0  0.899815  0  0  0.366784  0  0.976033  0  0  0.376502  0  0.96155  0  0  0.294032  0.35973  0  0.986623  0
H  H17  1  0.46392624  0.40597767  0.83999893  1  0  0.4015  0  0.899797  0  0  0.366763  0  0.976044  0  0  0.376479  0  0.961564  0  0  0.294034  0.359709  0  0.986634  0
H  H18  1  0.96392638  0.40597866  0.66000127  1  0  0.401497  0  0.89981  0  0  0.366761  0  0.976047  0  0  0.376478  0  0.961566  0  0  0.294035  0.359707  0  0.986637  0
H  H19  1  0.53607326  0.59402095  0.16000083  1  0  0.401564  0  0.899804  0  0  0.366796  0  0.976014  0  0  0.376514  0  0.961531  0  0  0.294061  0.359742  0  0.986603  0
H  H20  1  0.85667458  0.57655552  0.40903515  1  0  0.382618  0  0.942049  0  0  0.338774  0  1.028056  0  0  0.349907  0  1.012036  0  0  0.283079  0.330905  0  1.039381  0
H  H21  1  0.64332950  0.42344466  0.90903388  1  0  0.382614  0  0.942031  0  0  0.338766  0  1.028055  0  0  0.349899  0  1.012035  0  0  0.283087  0.330898  0  1.039379  0
H  H22  1  0.14332848  0.42344186  0.59096460  1  0  0.382604  0  0.942066  0  0  0.338761  0  1.028074  0  0  0.349893  0  1.012055  0  0  0.283094  0.330892  0  1.039399  0
H  H23  1  0.35667279  0.57655645  0.09096483  1  0  0.382636  0  0.94201  0  0  0.338783  0  1.02804  0  0  0.349915  0  1.012021  0  0  0.283103  0.330914  0  1.039365  0
C  C24  1  0.41465158  0.18533845  0.37328388  1  0  -0.050858  0  3.683464  0  0  -0.030455  0  3.919663  0  0  -0.035491  0  3.937925  0  0  0.023335  -0.027527  0  3.907787  0
C  C25  1  0.08534819  0.81467047  0.87328682  1  0  -0.050886  0  3.683424  0  0  -0.030513  0  3.919707  0  0  -0.035542  0  3.937975  0  0  0.023341  -0.027586  0  3.907839  0
C  C26  1  0.58534451  0.81466267  0.62671482  1  0  -0.0509  0  3.68346  0  0  -0.030483  0  3.919679  0  0  -0.035511  0  3.937951  0  0  0.023358  -0.027554  0  3.907806  0
C  C27  1  0.91465285  0.18533064  0.12671294  1  0  -0.050883  0  3.683427  0  0  -0.030495  0  3.919692  0  0  -0.035523  0  3.937963  0  0  0.023354  -0.027566  0  3.907821  0
C  C28  1  0.27358286  0.04931278  0.34277900  1  0  0.702422  0  3.929393  0  0  0.654724  0  4.225273  0  0  0.687326  0  4.216595  0  0  0.236105  0.63279  0  4.230068  0
C  C29  1  0.22641543  0.95069607  0.84276917  1  0  0.702428  0  3.929612  0  0  0.654639  0  4.225659  0  0  0.687216  0  4.21703  0  0  0.236117  0.632704  0  4.230452  0
C  C30  1  0.72641632  0.95068335  0.65722286  1  0  0.702645  0  3.929241  0  0  0.654887  0  4.225222  0  0  0.687459  0  4.216594  0  0  0.236151  0.632952  0  4.230019  0
C  C31  1  0.77358685  0.04930504  0.15723059  1  0  0.702518  0  3.929505  0  0  0.65475  0  4.225522  0  0  0.687324  0  4.216893  0  0  0.23618  0.632814  0  4.230317  0
C  C32  1  0.61662975  0.33916011  0.52005562  1  0  0.104719  0  3.672207  0  0  0.071821  0  3.935548  0  0  0.074985  0  3.952382  0  0  0.066016  0.069593  0  3.924351  0
C  C33  1  0.88337855  0.66084791  0.02005711  1  0  0.104818  0  3.672259  0  0  0.071878  0  3.935598  0  0  0.075047  0  3.952427  0  0  0.066016  0.06965  0  3.9244  0
C  C34  1  0.38336758  0.66084101  0.47994519  1  0  0.104697  0  3.672209  0  0  0.071815  0  3.935536  0  0  0.074982  0  3.952366  0  0  0.066006  0.069587  0  3.924338  0
C  C35  1  0.11662497  0.33915320  0.97994160  1  0  0.104797  0  3.67228  0  0  0.071872  0  3.935622  0  0  0.075041  0  3.952449  0  0  0.066013  0.069644  0  3.924424  0
C  C36  1  0.48480523  0.28919725  0.26494753  1  0  0.081217  0  3.678287  0  0  0.043499  0  3.93926  0  0  0.047472  0  3.955741  0  0  0.068953  0.040379  0  3.929355  0
C  C37  1  0.01519400  0.71080395  0.76494580  1  0  0.08127  0  3.677989  0  0  0.043535  0  3.939  0  0  0.047513  0  3.955473  0  0  0.068974  0.0404  0  3.929104  0
C  C38  1  0.51519303  0.71080137  0.73505223  1  0  0.081232  0  3.678194  0  0  0.043513  0  3.939178  0  0  0.047486  0  3.955658  0  0  0.068965  0.040387  0  3.929269  0
C  C39  1  0.98480580  0.28919717  0.23505290  1  0  0.081213  0  3.678149  0  0  0.04352  0  3.939126  0  0  0.047495  0  3.955602  0  0  0.068979  0.040394  0  3.929221  0
C  C40  1  0.48033978  0.21519214  0.50671809  1  0  -0.070132  0  3.644223  0  0  -0.096741  0  3.892897  0  0  -0.0973  0  3.909597  0  0  -0.043702  -0.096473  0  3.882569  0
C  C41  1  0.01966346  0.78481720  0.00671877  1  0  -0.070241  0  3.644439  0  0  -0.096774  0  3.893038  0  0  -0.097341  0  3.909743  0  0  -0.043715  -0.096504  0  3.882713  0
C  C42  1  0.51965724  0.78480648  0.49328062  1  0  -0.070214  0  3.644326  0  0  -0.096793  0  3.892986  0  0  -0.097354  0  3.909692  0  0  -0.043727  -0.096527  0  3.882658  0
C  C43  1  0.98033542  0.21518641  0.99328099  1  0  -0.070206  0  3.644411  0  0  -0.096773  0  3.893086  0  0  -0.097331  0  3.909773  0  0  -0.04372  -0.096505  0  3.882762  0
N  N44  1  0.60633493  0.41443493  0.28573882  1  0  -0.195692  0  3.069697  0  0  -0.157731  0  3.337052  0  0  -0.16548  0  3.352738  0  0  -0.185502  -0.152344  0  3.32681  0
N  N45  1  0.89366384  0.58556996  0.78573798  1  0  -0.195702  0  3.069612  0  0  -0.157756  0  3.33699  0  0  -0.165505  0  3.352673  0  0  -0.185559  -0.152369  0  3.326756  0
N  N46  1  0.39366348  0.58556494  0.71426199  1  0  -0.195741  0  3.069607  0  0  -0.157785  0  3.336983  0  0  -0.165533  0  3.352667  0  0  -0.185562  -0.152399  0  3.326745  0
N  N47  1  0.10633488  0.41443240  0.21425863  1  0  -0.195688  0  3.069636  0  0  -0.157733  0  3.336971  0  0  -0.165483  0  3.352657  0  0  -0.185539  -0.152345  0  3.326733  0
N  N48  1  0.67557096  0.43630420  0.41343240  1  0  -0.182673  0  3.136699  0  0  -0.130944  0  3.394284  0  0  -0.138924  0  3.410918  0  0  -0.176579  -0.125323  0  3.382926  0
N  N49  1  0.82443502  0.56370097  0.91343327  1  0  -0.18268  0  3.136576  0  0  -0.130911  0  3.394131  0  0  -0.138889  0  3.410761  0  0  -0.176502  -0.12529  0  3.382773  0
N  N50  1  0.32442621  0.56369567  0.58656736  1  0  -0.182655  0  3.136611  0  0  -0.130931  0  3.394199  0  0  -0.13891  0  3.410832  0  0  -0.176557  -0.12531  0  3.382841  0
N  N51  1  0.17556727  0.43630014  0.08656439  1  0  -0.182704  0  3.136578  0  0  -0.130924  0  3.394128  0  0  -0.138903  0  3.410759  0  0  -0.176503  -0.125302  0  3.382767  0
O  O52  1  0.14920430  0.03651805  0.42536423  1  0  -0.760888  0  1.982877  0  0  -0.715454  0  2.226293  0  0  -0.737757  0  2.213603  0  0  -0.429576  -0.699343  0  2.233848  0
O  O53  1  0.35080363  0.96348350  0.92537082  1  0  -0.760903  0  1.982573  0  0  -0.715449  0  2.226022  0  0  -0.737747  0  2.213352  0  0  -0.429562  -0.699333  0  2.233571  0
O  O54  1  0.85079473  0.96347683  0.57463763  1  0  -0.760974  0  1.982793  0  0  -0.715526  0  2.226243  0  0  -0.737819  0  2.213568  0  0  -0.429602  -0.699413  0  2.233799  0
O  O55  1  0.64919881  0.03651886  0.07462998  1  0  -0.760942  0  1.982525  0  0  -0.715492  0  2.225986  0  0  -0.737789  0  2.213315  0  0  -0.42961  -0.699374  0  2.233536  0
O  O56  1  0.28895266  0.95874337  0.23721768  1  0  -0.69519  0  1.938284  0  0  -0.651989  0  2.173165  0  0  -0.674958  0  2.162191  0  0  -0.371087  -0.635578  0  2.18013  0
O  O57  1  0.21106061  0.04126274  0.73722379  1  0  -0.695122  0  1.938712  0  0  -0.65188  0  2.173639  0  0  -0.674837  0  2.162676  0  0  -0.371099  -0.635473  0  2.180602  0
O  O58  1  0.71104776  0.04125276  0.76278417  1  0  -0.695273  0  1.938252  0  0  -0.652046  0  2.173166  0  0  -0.675001  0  2.162197  0  0  -0.371084  -0.635646  0  2.180152  0
O  O59  1  0.78894090  0.95874211  0.26277806  1  0  -0.695161  0  1.938729  0  0  -0.651933  0  2.17364  0  0  -0.674885  0  2.162673  0  0  -0.371108  -0.635534  0  2.180626  0
O  O60  1  0.96083925  0.65686777  0.39384042  1  0  -0.891321  0  1.82372  0  0  -0.847302  0  2.016095  0  0  -0.861534  0  1.98269  0  0  -0.665694  -0.836756  0  2.039967  0
O  O61  1  0.53916347  0.34313237  0.89384271  1  0  -0.89124  0  1.823714  0  0  -0.847234  0  2.015997  0  0  -0.861475  0  1.982612  0  0  -0.665704  -0.836688  0  2.039868  0
O  O62  1  0.03916148  0.34313086  0.60615829  1  0  -0.891251  0  1.823724  0  0  -0.847237  0  2.016033  0  0  -0.861481  0  1.982648  0  0  -0.66571  -0.836692  0  2.039903  0
O  O63  1  0.46083866  0.65686749  0.10615705  1  0  -0.891323  0  1.823693  0  0  -0.847302  0  2.016029  0  0  -0.861541  0  1.98264  0  0  -0.665751  -0.836756  0  2.039902  0
