# generated using pymatgen
data_CdH9C8NO6
_symmetry_space_group_name_H-M   'P 1'
_cell_length_a   8.49316704
_cell_length_b   10.18910416
_cell_length_c   14.86229530
_cell_angle_alpha   101.50637566
_cell_angle_beta   89.98264456
_cell_angle_gamma   114.62643342
_symmetry_Int_Tables_number   1
_chemical_formula_structural   CdH9C8NO6
_chemical_formula_sum   'Cd4 H36 C32 N4 O24'
_cell_volume   1140.70693167
_cell_formula_units_Z   4
loop_
 _symmetry_equiv_pos_site_id
 _symmetry_equiv_pos_as_xyz
  1  'x, y, z'
loop_
 _atom_site_type_symbol
 _atom_site_label
 _atom_site_symmetry_multiplicity
 _atom_site_fract_x
 _atom_site_fract_y
 _atom_site_fract_z
 _atom_site_occupancy
 _atom_site_hle17_bader_spin_density
 _atom_site_hle17_ddec_charge
 _atom_site_hle17_ddec_spin_density
 _atom_site_hle17_ddec_sum_bond_order
 _atom_site_hle17_magmom
 _atom_site_hse06_10hf_bader_spin_density
 _atom_site_hse06_10hf_ddec_charge
 _atom_site_hse06_10hf_ddec_spin_density
 _atom_site_hse06_10hf_ddec_sum_bond_order
 _atom_site_hse06_10hf_magmom
 _atom_site_hse06_bader_spin_density
 _atom_site_hse06_ddec_charge
 _atom_site_hse06_ddec_spin_density
 _atom_site_hse06_ddec_sum_bond_order
 _atom_site_hse06_magmom
 _atom_site_pbe_bader_spin_density
 _atom_site_pbe_cm5_charge
 _atom_site_pbe_ddec_charge
 _atom_site_pbe_ddec_spin_density
 _atom_site_pbe_ddec_sum_bond_order
 _atom_site_pbe_magmom
Cd  Cd0  1  0.72364720  0.44716595  0.83319503  1  0  1.182542  0  1.555998  0  0  1.004654  0  1.985922  0  0  1.062548  0  1.931025  0  0  0.75825  0.96362  0  2.023411  0
Cd  Cd1  1  0.27643044  0.55296327  0.66681749  1  0  1.181928  0  1.554992  0  0  1.004056  0  1.984726  0  0  1.061979  0  1.929843  0  0  0.757969  0.962786  0  2.022496  0
Cd  Cd2  1  0.27635232  0.55283447  0.16680487  1  0  1.182514  0  1.556054  0  0  1.004625  0  1.985982  0  0  1.062517  0  1.931088  0  0  0.75824  0.963591  0  2.02347  0
Cd  Cd3  1  0.72356977  0.44703385  0.33318127  1  0  1.181972  0  1.555013  0  0  1.004087  0  1.984734  0  0  1.062007  0  1.929854  0  0  0.757977  0.962818  0  2.0225  0
H  H4  1  0.72614529  0.67938701  0.75153205  1  0  0.438731  0  0.835824  0  0  0.411777  0  0.897901  0  0  0.422156  0  0.882812  0  0  0.305288  0.404341  0  0.908711  0
H  H5  1  0.04724629  0.32047787  0.74852645  1  0  0.437677  0  0.837361  0  0  0.410987  0  0.898727  0  0  0.421325  0  0.883729  0  0  0.305026  0.403587  0  0.909482  0
H  H6  1  0.27385596  0.32061452  0.24846800  1  0  0.438715  0  0.835835  0  0  0.411754  0  0.89793  0  0  0.422133  0  0.882842  0  0  0.305273  0.404317  0  0.908743  0
H  H7  1  0.95275157  0.67951925  0.25147230  1  0  0.437694  0  0.83731  0  0  0.411  0  0.898705  0  0  0.421339  0  0.883706  0  0  0.305037  0.403599  0  0.90946  0
H  H8  1  0.66514977  0.54065515  0.67096888  1  0  0.431616  0  0.877585  0  0  0.396111  0  0.949  0  0  0.407234  0  0.932827  0  0  0.291163  0.388233  0  0.960471  0
H  H9  1  0.12456229  0.45930687  0.82904558  1  0  0.431445  0  0.877649  0  0  0.396268  0  0.948755  0  0  0.407368  0  0.93259  0  0  0.29105  0.388457  0  0.960106  0
H  H10  1  0.33484677  0.45934640  0.32902984  1  0  0.431625  0  0.877569  0  0  0.396136  0  0.948959  0  0  0.407259  0  0.932787  0  0  0.291168  0.38826  0  0.960428  0
H  H11  1  0.87543377  0.54069136  0.17095266  1  0  0.431433  0  0.877657  0  0  0.396262  0  0.948752  0  0  0.407363  0  0.932587  0  0  0.291047  0.388451  0  0.960103  0
H  H12  1  0.49668656  0.57813708  0.84402083  1  0  0.412497  0  0.899726  0  0  0.380043  0  0.967037  0  0  0.390435  0  0.952138  0  0  0.28702  0.372658  0  0.977644  0
H  H13  1  0.91858467  0.42187640  0.65606046  1  0  0.412309  0  0.899906  0  0  0.379595  0  0.96764  0  0  0.390004  0  0.952716  0  0  0.286872  0.372264  0  0.978143  0
H  H14  1  0.50331351  0.42186446  0.15597855  1  0  0.412539  0  0.899663  0  0  0.380088  0  0.966967  0  0  0.390482  0  0.952065  0  0  0.287048  0.372704  0  0.977572  0
H  H15  1  0.08141430  0.57812292  0.34393928  1  0  0.412303  0  0.899917  0  0  0.379585  0  0.96766  0  0  0.389994  0  0.952736  0  0  0.286845  0.372255  0  0.978162  0
H  H16  1  0.36324971  0.41664188  0.83536783  1  0  0.435814  0  0.845894  0  0  0.412885  0  0.896808  0  0  0.423241  0  0.881704  0  0  0.300445  0.405426  0  0.907689  0
H  H17  1  0.94642361  0.58336202  0.66470252  1  0  0.435814  0  0.843927  0  0  0.412725  0  0.896689  0  0  0.423093  0  0.881543  0  0  0.300604  0.405329  0  0.907498  0
H  H18  1  0.63675152  0.58335963  0.16463357  1  0  0.435786  0  0.845904  0  0  0.412857  0  0.896836  0  0  0.423212  0  0.881734  0  0  0.300439  0.405398  0  0.907717  0
H  H19  1  0.05357944  0.41663840  0.33529738  1  0  0.435971  0  0.843709  0  0  0.412848  0  0.896545  0  0  0.423222  0  0.881385  0  0  0.300652  0.405449  0  0.907361  0
H  H20  1  0.47923645  0.69049018  0.03742493  1  0  0.322283  0  0.866385  0  0  0.318827  0  0.908142  0  0  0.324236  0  0.905341  0  0  0.312759  0.314709  0  0.910634  0
H  H21  1  0.78899768  0.30948156  0.46265810  1  0  0.32267  0  0.864743  0  0  0.319482  0  0.906301  0  0  0.324909  0  0.903418  0  0  0.312747  0.315479  0  0.908689  0
H  H22  1  0.52076189  0.30951025  0.96257497  1  0  0.322287  0  0.866361  0  0  0.318828  0  0.908121  0  0  0.324237  0  0.90532  0  0  0.312756  0.314711  0  0.91061  0
H  H23  1  0.21100009  0.69051772  0.53734366  1  0  0.322703  0  0.864689  0  0  0.319515  0  0.906254  0  0  0.324943  0  0.90337  0  0  0.312777  0.315512  0  0.908643  0
H  H24  1  0.27431888  0.59564830  0.98538860  1  0  0.32417  0  0.924691  0  0  0.306352  0  0.987832  0  0  0.315054  0  0.980604  0  0  0.294899  0.300231  0  0.992771  0
H  H25  1  0.67884048  0.40438794  0.51462415  1  0  0.32396  0  0.925004  0  0  0.306212  0  0.988213  0  0  0.314904  0  0.980994  0  0  0.29474  0.300071  0  0.993254  0
H  H26  1  0.72567814  0.40435656  0.01461126  1  0  0.32416  0  0.924699  0  0  0.306314  0  0.987878  0  0  0.315014  0  0.980654  0  0  0.29489  0.300192  0  0.992816  0
H  H27  1  0.32115093  0.59560806  0.48537512  1  0  0.323872  0  0.92507  0  0  0.306133  0  0.988268  0  0  0.314824  0  0.981052  0  0  0.294722  0.299993  0  0.993304  0
H  H28  1  0.55675442  0.93628489  0.14614354  1  0  0.126559  0  0.933892  0  0  0.137216  0  0.991102  0  0  0.14137  0  0.988581  0  0  0.111683  0.13419  0  0.993037  0
H  H29  1  0.62067760  0.06371330  0.35383281  1  0  0.126013  0  0.933746  0  0  0.136211  0  0.991637  0  0  0.140331  0  0.989178  0  0  0.111357  0.133234  0  0.993608  0
H  H30  1  0.44324918  0.06371663  0.85385718  1  0  0.126501  0  0.933845  0  0  0.137154  0  0.991069  0  0  0.141306  0  0.98855  0  0  0.111666  0.134125  0  0.993008  0
H  H31  1  0.37932259  0.93628378  0.64616795  1  0  0.126035  0  0.933742  0  0  0.136232  0  0.991634  0  0  0.140352  0  0.989178  0  0  0.111354  0.133255  0  0.993608  0
H  H32  1  0.25514833  0.16443078  0.08529915  1  0  0.105283  0  0.965452  0  0  0.112943  0  1.031993  0  0  0.117062  0  1.028947  0  0  0.100362  0.109914  0  1.03461  0
H  H33  1  0.09093088  0.83566678  0.41474086  1  0  0.105066  0  0.96628  0  0  0.112613  0  1.032966  0  0  0.116845  0  1.029738  0  0  0.100107  0.109534  0  1.035635  0
H  H34  1  0.74485234  0.83556961  0.91470276  1  0  0.105279  0  0.96547  0  0  0.112939  0  1.032007  0  0  0.117056  0  1.028961  0  0  0.100355  0.10991  0  1.034623  0
H  H35  1  0.90906814  0.16433029  0.58526058  1  0  0.104954  0  0.96625  0  0  0.11248  0  1.032967  0  0  0.116709  0  1.029745  0  0  0.100065  0.109403  0  1.03564  0
H  H36  1  0.05305639  0.93296217  0.97660568  1  0  0.09876  0  0.974158  0  0  0.109473  0  1.033924  0  0  0.112285  0  1.032057  0  0  0.105617  0.107649  0  1.03497  0
H  H37  1  0.12026517  0.06693460  0.52358611  1  0  0.098332  0  0.973324  0  0  0.109301  0  1.032902  0  0  0.1121  0  1.031048  0  0  0.105265  0.107382  0  1.034105  0
H  H38  1  0.94694596  0.06704156  0.02339537  1  0  0.098689  0  0.974219  0  0  0.109495  0  1.033877  0  0  0.112307  0  1.03201  0  0  0.105638  0.107672  0  1.034923  0
H  H39  1  0.87973792  0.93306357  0.47641616  1  0  0.098349  0  0.973301  0  0  0.109315  0  1.032878  0  0  0.112115  0  1.031024  0  0  0.10525  0.107396  0  1.03408  0
C  C40  1  0.18218676  0.80351898  0.00355674  1  0  -0.149112  0  3.690367  0  0  -0.131503  0  3.927326  0  0  -0.1414  0  3.948282  0  0  -0.017968  -0.125486  0  3.913641  0
C  C41  1  0.37899682  0.19644146  0.49667354  1  0  -0.150008  0  3.691532  0  0  -0.132666  0  3.928001  0  0  -0.142515  0  3.948931  0  0  -0.018299  -0.126489  0  3.914766  0
C  C42  1  0.81781385  0.19648363  0.99644482  1  0  -0.149071  0  3.690346  0  0  -0.131421  0  3.927319  0  0  -0.141318  0  3.948277  0  0  -0.017916  -0.125404  0  3.913633  0
C  C43  1  0.62100105  0.80355568  0.50332388  1  0  -0.149922  0  3.69161  0  0  -0.132636  0  3.928097  0  0  -0.142486  0  3.94903  0  0  -0.018258  -0.126469  0  3.914881  0
C  C44  1  0.32816800  0.80469776  0.04988974  1  0  0.279112  0  3.770589  0  0  0.267719  0  4.026072  0  0  0.276005  0  4.049128  0  0  0.093996  0.262064  0  4.010083  0
C  C45  1  0.52376166  0.19523086  0.45027009  1  0  0.277963  0  3.772338  0  0  0.268141  0  4.025484  0  0  0.276469  0  4.048532  0  0  0.094102  0.262515  0  4.010088  0
C  C46  1  0.67183495  0.19530484  0.95011249  1  0  0.279014  0  3.770475  0  0  0.26758  0  4.025976  0  0  0.275865  0  4.049032  0  0  0.093932  0.261926  0  4.009987  0
C  C47  1  0.47623738  0.80476627  0.54972799  1  0  0.277872  0  3.772435  0  0  0.268148  0  4.025471  0  0  0.276477  0  4.048518  0  0  0.094132  0.262524  0  4.010077  0
C  C48  1  0.44573458  0.93525515  0.10878148  1  0  -0.169196  0  3.682351  0  0  -0.200544  0  3.937767  0  0  -0.205319  0  3.959131  0  0  -0.087667  -0.196537  0  3.922498  0
C  C49  1  0.51070531  0.06469761  0.39125824  1  0  -0.166773  0  3.680803  0  0  -0.197983  0  3.935971  0  0  -0.202842  0  3.957351  0  0  -0.087049  -0.194543  0  3.921207  0
C  C50  1  0.55426957  0.06474747  0.89121940  1  0  -0.169125  0  3.682225  0  0  -0.200429  0  3.937632  0  0  -0.205204  0  3.958998  0  0  -0.087664  -0.196422  0  3.922367  0
C  C51  1  0.48929489  0.93529948  0.60874186  1  0  -0.166865  0  3.680841  0  0  -0.198068  0  3.935971  0  0  -0.202929  0  3.957351  0  0  -0.087057  -0.194632  0  3.921211  0
C  C52  1  0.41865849  0.06352012  0.12351531  1  0  -0.03335  0  3.77369  0  0  -0.011311  0  4.012638  0  0  -0.016054  0  4.034975  0  0  -0.016479  -0.008205  0  3.997523  0
C  C53  1  0.35530475  0.93651394  0.37646930  1  0  -0.034038  0  3.775341  0  0  -0.012816  0  4.014993  0  0  -0.017489  0  4.037283  0  0  -0.016598  -0.009324  0  3.999622  0
C  C54  1  0.58134503  0.93648361  0.87648574  1  0  -0.033217  0  3.77358  0  0  -0.011212  0  4.012529  0  0  -0.015944  0  4.034844  0  0  -0.016405  -0.008106  0  3.997414  0
C  C55  1  0.64469490  0.06348204  0.62353131  1  0  -0.034045  0  3.775442  0  0  -0.012884  0  4.015168  0  0  -0.017556  0  4.03746  0  0  -0.016656  -0.009366  0  3.99975  0
C  C56  1  0.27652614  0.06441751  0.07559233  1  0  -0.105036  0  3.748027  0  0  -0.134118  0  4.007553  0  0  -0.136699  0  4.027227  0  0  -0.099334  -0.132933  0  3.994874  0
C  C57  1  0.21234205  0.93563078  0.42449268  1  0  -0.105429  0  3.74987  0  0  -0.134197  0  4.009402  0  0  -0.136774  0  4.02887  0  0  -0.099145  -0.132734  0  3.996586  0
C  C58  1  0.72347682  0.93558511  0.92440923  1  0  -0.105126  0  3.74809  0  0  -0.134202  0  4.007639  0  0  -0.136782  0  4.027313  0  0  -0.099391  -0.133015  0  3.994958  0
C  C59  1  0.78765530  0.06436296  0.57550895  1  0  -0.105203  0  3.749778  0  0  -0.133924  0  4.009306  0  0  -0.1365  0  4.028777  0  0  -0.09904  -0.132473  0  3.9965  0
C  C60  1  0.16253037  0.93572959  0.01595276  1  0  -0.047218  0  3.755679  0  0  -0.07109  0  4.005788  0  0  -0.069446  0  4.025041  0  0  -0.083252  -0.07189  0  3.992797  0
C  C61  1  0.22708083  0.06426078  0.48425783  1  0  -0.046556  0  3.754311  0  0  -0.070476  0  4.004406  0  0  -0.068852  0  4.023669  0  0  -0.083188  -0.071415  0  3.991409  0
C  C62  1  0.83747149  0.06427082  0.98404848  1  0  -0.047191  0  3.755761  0  0  -0.071136  0  4.005845  0  0  -0.069493  0  4.025099  0  0  -0.083302  -0.071936  0  3.992854  0
C  C63  1  0.77291826  0.93573408  0.51574262  1  0  -0.046685  0  3.754364  0  0  -0.070596  0  4.004458  0  0  -0.068973  0  4.023721  0  0  -0.083227  -0.071535  0  3.991471  0
C  C64  1  0.53793310  0.19660449  0.19301718  1  0  0.642529  0  3.891041  0  0  0.589665  0  4.184389  0  0  0.623387  0  4.178684  0  0  0.201845  0.56678  0  4.187334  0
C  C65  1  0.34127869  0.80341388  0.30690211  1  0  0.643516  0  3.890641  0  0  0.59114  0  4.183705  0  0  0.624874  0  4.177922  0  0  0.202056  0.568219  0  4.18672  0
C  C66  1  0.46206399  0.80339815  0.80698303  1  0  0.642544  0  3.891047  0  0  0.58972  0  4.18435  0  0  0.62344  0  4.178648  0  0  0.201864  0.566835  0  4.187295  0
C  C67  1  0.65872318  0.19658655  0.69309779  1  0  0.643471  0  3.890632  0  0  0.591119  0  4.183686  0  0  0.624851  0  4.17791  0  0  0.20207  0.568196  0  4.186709  0
C  C68  1  0.04663429  0.66803091  0.94189435  1  0  0.67863  0  3.879697  0  0  0.624078  0  4.176192  0  0  0.660293  0  4.167551  0  0  0.208387  0.59947  0  4.181406  0
C  C69  1  0.37886386  0.33206317  0.55823153  1  0  0.680211  0  3.879067  0  0  0.625113  0  4.176213  0  0  0.661325  0  4.167582  0  0  0.209289  0.600374  0  4.181675  0
C  C70  1  0.95336811  0.33197059  0.05810772  1  0  0.678577  0  3.879774  0  0  0.623967  0  4.176357  0  0  0.660183  0  4.167718  0  0  0.208332  0.59936  0  4.181571  0
C  C71  1  0.62113520  0.66793399  0.44176454  1  0  0.680277  0  3.87886  0  0  0.625175  0  4.176025  0  0  0.661388  0  4.16739  0  0  0.209291  0.600438  0  4.181486  0
N  N72  1  0.35257862  0.67375351  0.04146554  1  0  -0.684303  0  3.155534  0  0  -0.631612  0  3.399396  0  0  -0.654522  0  3.397363  0  0  -0.603821  -0.615256  0  3.400321  0
N  N73  1  0.67904831  0.32618420  0.45860311  1  0  -0.684288  0  3.154657  0  0  -0.632464  0  3.396966  0  0  -0.655434  0  3.394977  0  0  -0.60362  -0.616206  0  3.398395  0
N  N74  1  0.64742137  0.32625021  0.95853618  1  0  -0.684215  0  3.155369  0  0  -0.631505  0  3.39929  0  0  -0.654414  0  3.397256  0  0  -0.603747  -0.61515  0  3.400216  0
N  N75  1  0.32094948  0.67381511  0.54139663  1  0  -0.684169  0  3.154709  0  0  -0.632392  0  3.397012  0  0  -0.655362  0  3.395026  0  0  -0.603653  -0.616133  0  3.398437  0
O  O76  1  0.90262909  0.67126686  0.92095804  1  0  -0.632676  0  1.963526  0  0  -0.564046  0  2.202818  0  0  -0.594788  0  2.192152  0  0  -0.327346  -0.542719  0  2.20957  0
O  O77  1  0.23160836  0.32875922  0.57923653  1  0  -0.633237  0  1.962422  0  0  -0.564461  0  2.202069  0  0  -0.595204  0  2.191406  0  0  -0.327396  -0.542986  0  2.20873  0
O  O78  1  0.09737283  0.32873131  0.07904423  1  0  -0.632628  0  1.963478  0  0  -0.56399  0  2.202803  0  0  -0.594732  0  2.192139  0  0  -0.327326  -0.542663  0  2.209553  0
O  O79  1  0.76839243  0.67123903  0.42076037  1  0  -0.6333  0  1.962497  0  0  -0.564502  0  2.20213  0  0  -0.595246  0  2.191468  0  0  -0.327426  -0.543026  0  2.208787  0
O  O80  1  0.07628366  0.55415872  0.91433021  1  0  -0.663986  0  2.016634  0  0  -0.600553  0  2.245502  0  0  -0.627489  0  2.234071  0  0  -0.322964  -0.581859  0  2.252843  0
O  O81  1  0.52226437  0.44610987  0.58559821  1  0  -0.663832  0  2.017398  0  0  -0.600211  0  2.246298  0  0  -0.627151  0  2.234873  0  0  -0.323188  -0.581558  0  2.254268  0
O  O82  1  0.92372284  0.44584391  0.08567067  1  0  -0.66397  0  2.016671  0  0  -0.600517  0  2.245568  0  0  -0.627452  0  2.234138  0  0  -0.322949  -0.581822  0  2.252909  0
O  O83  1  0.47773582  0.55388956  0.41439549  1  0  -0.663816  0  2.017258  0  0  -0.60021  0  2.24617  0  0  -0.627151  0  2.234743  0  0  -0.323168  -0.581559  0  2.254139  0
O  O84  1  0.68206249  0.20859717  0.22398438  1  0  -0.598106  0  1.908025  0  0  -0.543647  0  2.130357  0  0  -0.569987  0  2.122529  0  0  -0.312063  -0.525393  0  2.135212  0
O  O85  1  0.47336787  0.79125644  0.27591737  1  0  -0.598685  0  1.908787  0  0  -0.544507  0  2.131136  0  0  -0.570755  0  2.123188  0  0  -0.312017  -0.525975  0  2.135869  0
O  O86  1  0.31793737  0.79141100  0.77601663  1  0  -0.598089  0  1.907905  0  0  -0.543652  0  2.13024  0  0  -0.569993  0  2.122417  0  0  -0.312065  -0.525399  0  2.135094  0
O  O87  1  0.52663454  0.20874507  0.72408403  1  0  -0.598702  0  1.908786  0  0  -0.544523  0  2.131115  0  0  -0.570767  0  2.123165  0  0  -0.312043  -0.525992  0  2.135851  0
O  O88  1  0.48438672  0.29947677  0.22216033  1  0  -0.716569  0  2.062939  0  0  -0.632602  0  2.296235  0  0  -0.663599  0  2.284294  0  0  -0.333656  -0.610612  0  2.303726  0
O  O89  1  0.18481255  0.70065199  0.27780867  1  0  -0.717497  0  2.062215  0  0  -0.633748  0  2.295593  0  0  -0.664761  0  2.283541  0  0  -0.334238  -0.611833  0  2.30311  0
O  O90  1  0.51560865  0.70052479  0.77783838  1  0  -0.716592  0  2.063037  0  0  -0.632644  0  2.296318  0  0  -0.663646  0  2.284389  0  0  -0.333652  -0.610654  0  2.303809  0
O  O91  1  0.81518879  0.29934736  0.72218906  1  0  -0.717435  0  2.062298  0  0  -0.633694  0  2.295661  0  0  -0.664704  0  2.28361  0  0  -0.334219  -0.611784  0  2.303182  0
O  O92  1  0.76021994  0.60074418  0.72221442  1  0  -0.852473  0  1.866197  0  0  -0.786544  0  2.050335  0  0  -0.809548  0  2.015913  0  0  -0.576821  -0.770286  0  2.074496  0
O  O93  1  0.15979503  0.39923540  0.77788397  1  0  -0.85066  0  1.867434  0  0  -0.785472  0  2.050838  0  0  -0.808379  0  2.01646  0  0  -0.576079  -0.769203  0  2.07471  0
O  O94  1  0.23977611  0.39925402  0.27778583  1  0  -0.852477  0  1.866193  0  0  -0.786537  0  2.05033  0  0  -0.809544  0  2.015908  0  0  -0.576808  -0.77028  0  2.074489  0
O  O95  1  0.84020277  0.60076397  0.22211309  1  0  -0.850662  0  1.867417  0  0  -0.785474  0  2.05084  0  0  -0.808379  0  2.016457  0  0  -0.576081  -0.769206  0  2.074714  0
O  O96  1  0.47605025  0.48912282  0.86914621  1  0  -0.826594  0  1.833711  0  0  -0.763954  0  2.010506  0  0  -0.786342  0  1.977883  0  0  -0.590439  -0.74795  0  2.033455  0
O  O97  1  0.98686058  0.51091919  0.63093835  1  0  -0.825843  0  1.831847  0  0  -0.763083  0  2.010567  0  0  -0.785504  0  1.977916  0  0  -0.590275  -0.747144  0  2.033153  0
O  O98  1  0.52394854  0.51088088  0.13085685  1  0  -0.826623  0  1.833705  0  0  -0.763982  0  2.010518  0  0  -0.78637  0  1.977894  0  0  -0.590468  -0.747978  0  2.033467  0
O  O99  1  0.01313965  0.48907794  0.36905973  1  0  -0.825977  0  1.831658  0  0  -0.763205  0  2.010381  0  0  -0.785627  0  1.977727  0  0  -0.590297  -0.747264  0  2.032967  0
