# generated using pymatgen
data_ZnH28C18S2N4(O5F2)2
_symmetry_space_group_name_H-M   'P 1'
_cell_length_a   8.89665103
_cell_length_b   9.65132245
_cell_length_c   16.22160000
_cell_angle_alpha   90.00000000
_cell_angle_beta   105.16055843
_cell_angle_gamma   90.00000000
_symmetry_Int_Tables_number   1
_chemical_formula_structural   ZnH28C18S2N4(O5F2)2
_chemical_formula_sum   'Zn2 H56 C36 S4 N8 O20 F8'
_cell_volume   1344.38272069
_cell_formula_units_Z   2
loop_
 _symmetry_equiv_pos_site_id
 _symmetry_equiv_pos_as_xyz
  1  'x, y, z'
loop_
 _atom_site_type_symbol
 _atom_site_label
 _atom_site_symmetry_multiplicity
 _atom_site_fract_x
 _atom_site_fract_y
 _atom_site_fract_z
 _atom_site_occupancy
 _atom_site_hle17_bader_spin_density
 _atom_site_hle17_ddec_charge
 _atom_site_hle17_ddec_spin_density
 _atom_site_hle17_ddec_sum_bond_order
 _atom_site_hle17_magmom
 _atom_site_hse06_10hf_bader_spin_density
 _atom_site_hse06_10hf_ddec_charge
 _atom_site_hse06_10hf_ddec_spin_density
 _atom_site_hse06_10hf_ddec_sum_bond_order
 _atom_site_hse06_10hf_magmom
 _atom_site_hse06_bader_spin_density
 _atom_site_hse06_ddec_charge
 _atom_site_hse06_ddec_spin_density
 _atom_site_hse06_ddec_sum_bond_order
 _atom_site_hse06_magmom
 _atom_site_pbe_bader_charge
 _atom_site_pbe_bader_spin_density
 _atom_site_pbe_cm5_charge
 _atom_site_pbe_ddec_charge
 _atom_site_pbe_ddec_spin_density
 _atom_site_pbe_ddec_sum_bond_order
 _atom_site_pbe_magmom
Zn  Zn0  1  0.49999891  0.00000000  0.99999969  1  0  1.173867  0  1.746128  0  0  1.02268  0  2.192148  0  0  1.068533  0  2.135476  0  1.407535  0  0.6915  0.989842  0  2.231326  0
Zn  Zn1  1  0.00000000  0.49999987  0.50000000  1  0  1.173862  0  1.746162  0  0  1.022668  0  2.192191  0  0  1.068522  0  2.135524  0  1.407554  0  0.691492  0.989831  0  2.231369  0
H  H2  1  0.20720579  0.94442291  0.05795511  1  0  0.053283  0  0.930299  0  0  0.063258  0  0.995692  0  0  0.065501  0  0.99009  0  0.119088  0  0.12749  0.061432  0  0.999805  0
H  H3  1  0.29279196  0.44442303  0.44204441  1  0  0.053299  0  0.930297  0  0  0.063263  0  0.995704  0  0  0.065507  0  0.990103  0  0.119116  0  0.127487  0.061434  0  0.999821  0
H  H4  1  0.79279203  0.05557788  0.94204488  1  0  0.053321  0  0.930249  0  0  0.063308  0  0.99563  0  0  0.065555  0  0.990028  0  0.119111  0  0.127491  0.061476  0  0.999747  0
H  H5  1  0.70720587  0.55557775  0.55795559  1  0  0.053325  0  0.930245  0  0  0.063287  0  0.995653  0  0  0.065534  0  0.99005  0  0.11909  0  0.127493  0.061457  0  0.999767  0
H  H6  1  0.06485953  0.92760552  0.22645783  1  0  0.099919  0  0.941734  0  0  0.115878  0  1.01044  0  0  0.117138  0  1.009468  0  0.085753  0  0.100364  0.114838  0  1.011183  0
H  H7  1  0.43513822  0.42760461  0.27354231  1  0  0.099874  0  0.941742  0  0  0.115833  0  1.010457  0  0  0.117094  0  1.009484  0  0.085753  0  0.10035  0.114794  0  1.011199  0
H  H8  1  0.93513946  0.07239526  0.77354172  1  0  0.099898  0  0.941721  0  0  0.115855  0  1.01044  0  0  0.117118  0  1.009464  0  0.085757  0  0.100353  0.114816  0  1.011182  0
H  H9  1  0.56486077  0.57239513  0.72645909  1  0  0.099927  0  0.941723  0  0  0.115879  0  1.010426  0  0  0.117141  0  1.009452  0  0.085734  0  0.100372  0.114841  0  1.011168  0
H  H10  1  0.01420633  0.93175210  0.11245215  1  0  0.111293  0  0.956586  0  0  0.128686  0  1.023462  0  0  0.130043  0  1.022477  0  0.096313  0  0.108285  0.127705  0  1.024066  0
H  H11  1  0.48579258  0.43175223  0.38754816  1  0  0.111286  0  0.956576  0  0  0.128678  0  1.023459  0  0  0.130035  0  1.022475  0  0.096323  0  0.108296  0.127697  0  1.024064  0
H  H12  1  0.98579383  0.06824764  0.88754818  1  0  0.111283  0  0.956592  0  0  0.128679  0  1.023465  0  0  0.130036  0  1.022482  0  0.096312  0  0.108288  0.127698  0  1.024069  0
H  H13  1  0.51420640  0.56824751  0.61245324  1  0  0.111231  0  0.956528  0  0  0.128621  0  1.023419  0  0  0.129979  0  1.022433  0  0.096344  0  0.108261  0.127641  0  1.024023  0
H  H14  1  0.98406447  0.08081898  0.17142871  1  0  0.099683  0  0.951098  0  0  0.118775  0  1.014148  0  0  0.119404  0  1.014606  0  0.062558  0  0.101869  0.118392  0  1.013523  0
H  H15  1  0.51593343  0.58081989  0.32857053  1  0  0.099658  0  0.951115  0  0  0.118758  0  1.014166  0  0  0.119389  0  1.014621  0  0.06257  0  0.101875  0.118375  0  1.013541  0
H  H16  1  0.01593452  0.91917973  0.82857084  1  0  0.099663  0  0.951116  0  0  0.118761  0  1.014166  0  0  0.119391  0  1.014623  0  0.062563  0  0.101874  0.118378  0  1.013541  0
H  H17  1  0.48406439  0.41917986  0.67142946  1  0  0.099698  0  0.951079  0  0  0.11879  0  1.014125  0  0  0.119421  0  1.014579  0  0.062544  0  0.101885  0.118408  0  1.0135  0
H  H18  1  0.30759337  0.07617298  0.30356783  1  0  0.101391  0  0.93846  0  0  0.120993  0  1.002458  0  0  0.121937  0  1.001546  0  0.086151  0  0.102218  0.120231  0  1.003103  0
H  H19  1  0.19240438  0.57617389  0.19643169  1  0  0.101418  0  0.938409  0  0  0.120987  0  1.002452  0  0  0.121927  0  1.001542  0  0.086144  0  0.10221  0.120225  0  1.003098  0
H  H20  1  0.69240446  0.92382573  0.69643278  1  0  0.101408  0  0.938451  0  0  0.120957  0  1.002504  0  0  0.121894  0  1.001599  0  0.086166  0  0.102208  0.120197  0  1.003149  0
H  H21  1  0.80759577  0.42382586  0.80356802  1  0  0.101411  0  0.938426  0  0  0.120994  0  1.002454  0  0  0.121934  0  1.001545  0  0.086248  0  0.102207  0.120232  0  1.003101  0
H  H22  1  0.22805936  0.22496813  0.24268781  1  0  0.091225  0  0.934303  0  0  0.110951  0  1.000537  0  0  0.111268  0  1.000629  0  0.040735  0  0.101128  0.110647  0  1.000449  0
H  H23  1  0.27193955  0.72496801  0.25731188  1  0  0.091239  0  0.934325  0  0  0.11097  0  1.000558  0  0  0.111286  0  1.000649  0  0.04074  0  0.101136  0.110666  0  1.00047  0
H  H24  1  0.77193963  0.77503265  0.75731235  1  0  0.091248  0  0.934307  0  0  0.110978  0  1.000535  0  0  0.111296  0  1.000624  0  0.040742  0  0.101123  0.110674  0  1.000448  0
H  H25  1  0.72805944  0.27503174  0.74268828  1  0  0.091223  0  0.934331  0  0  0.110956  0  1.000568  0  0  0.111273  0  1.000659  0  0.040725  0  0.101126  0.110653  0  1.000479  0
H  H26  1  0.41193109  0.15622729  0.23622627  1  0  0.122385  0  0.956653  0  0  0.139297  0  1.021916  0  0  0.141234  0  1.020391  0  0.138488  0  0.110578  0.137829  0  1.023075  0
H  H27  1  0.08806782  0.65622820  0.26377342  1  0  0.122376  0  0.95678  0  0  0.139294  0  1.022037  0  0  0.141231  0  1.020513  0  0.13846  0  0.110575  0.137827  0  1.023194  0
H  H28  1  0.58806789  0.84377245  0.76377451  1  0  0.122408  0  0.956756  0  0  0.139304  0  1.022024  0  0  0.141241  0  1.020498  0  0.13851  0  0.110583  0.137837  0  1.023179  0
H  H29  1  0.91193117  0.34377154  0.73622612  1  0  0.122387  0  0.956724  0  0  0.139306  0  1.021985  0  0  0.141244  0  1.020459  0  0.138477  0  0.110578  0.137839  0  1.023142  0
H  H30  1  0.63819472  0.18885909  0.15681156  1  0  0.06097  0  0.926159  0  0  0.070494  0  0.992016  0  0  0.073003  0  0.986489  0  0.136584  0  0.12843  0.068328  0  0.996359  0
H  H31  1  0.86180434  0.68885793  0.34318784  1  0  0.060945  0  0.926191  0  0  0.070476  0  0.992045  0  0  0.072979  0  0.986519  0  0.136573  0  0.128411  0.068309  0  0.996389  0
H  H32  1  0.36180427  0.81114169  0.84318798  1  0  0.060963  0  0.92619  0  0  0.070492  0  0.992044  0  0  0.072997  0  0.986515  0  0.136582  0  0.128417  0.068325  0  0.996388  0
H  H33  1  0.13819465  0.31114182  0.65681109  1  0  0.060954  0  0.926189  0  0  0.070488  0  0.992043  0  0  0.072989  0  0.986521  0  0.136576  0  0.12842  0.068321  0  0.996387  0
H  H34  1  0.96942027  0.34478384  0.25437166  1  0  0.099361  0  0.934643  0  0  0.115557  0  1.00366  0  0  0.116944  0  1.002575  0  0.043529  0  0.096636  0.114561  0  1.004328  0
H  H35  1  0.53057996  0.84478268  0.24562791  1  0  0.099335  0  0.934656  0  0  0.115529  0  1.003677  0  0  0.116916  0  1.002589  0  0.04353  0  0.096622  0.114533  0  1.004345  0
H  H36  1  0.03057988  0.65521694  0.74562744  1  0  0.099333  0  0.9346  0  0  0.115553  0  1.003612  0  0  0.116947  0  1.002515  0  0.04353  0  0.096621  0.114554  0  1.004285  0
H  H37  1  0.46941903  0.15521707  0.75437164  1  0  0.099355  0  0.93462  0  0  0.115565  0  1.00363  0  0  0.116956  0  1.002538  0  0.043545  0  0.096625  0.114566  0  1.004303  0
H  H38  1  0.77158095  0.32320027  0.25473341  1  0  0.115416  0  0.973129  0  0  0.129832  0  1.044216  0  0  0.131765  0  1.042593  0  0.116778  0  0.103556  0.128318  0  1.045394  0
H  H39  1  0.72841928  0.82320014  0.24526616  1  0  0.115389  0  0.973173  0  0  0.129823  0  1.044244  0  0  0.131756  0  1.042619  0  0.116804  0  0.103556  0.128308  0  1.045424  0
H  H40  1  0.22841921  0.67679948  0.74526630  1  0  0.115364  0  0.973151  0  0  0.1298  0  1.044233  0  0  0.131734  0  1.042608  0  0.116773  0  0.103542  0.128285  0  1.04541  0
H  H41  1  0.27158087  0.17680064  0.75473356  1  0  0.115379  0  0.973182  0  0  0.129816  0  1.044246  0  0  0.131749  0  1.042623  0  0.116756  0  0.103557  0.128302  0  1.045425  0
H  H42  1  0.83436525  0.48063361  0.21444577  1  0  0.117116  0  0.960725  0  0  0.136221  0  1.023186  0  0  0.137438  0  1.022695  0  0.087099  0  0.10158  0.135151  0  1.0238  0
H  H43  1  0.66563614  0.98063349  0.28555397  1  0  0.117105  0  0.960695  0  0  0.136205  0  1.02317  0  0  0.137421  0  1.022679  0  0.087108  0  0.101571  0.135134  0  1.023783  0
H  H44  1  0.16563490  0.51936613  0.78555395  1  0  0.117102  0  0.960716  0  0  0.13621  0  1.023186  0  0  0.137427  0  1.022694  0  0.087096  0  0.101578  0.135139  0  1.023798  0
H  H45  1  0.33436285  0.01936626  0.71444558  1  0  0.117151  0  0.960619  0  0  0.136224  0  1.023129  0  0  0.137454  0  1.022622  0  0.087111  0  0.101583  0.135151  0  1.023741  0
H  H46  1  0.92133141  0.46324740  0.07918129  1  0  0.105461  0  0.943547  0  0  0.125818  0  1.00686  0  0  0.126386  0  1.006839  0  0.035524  0  0.104537  0.125185  0  1.007095  0
H  H47  1  0.57866766  0.96324831  0.42081750  1  0  0.105473  0  0.943559  0  0  0.125839  0  1.006857  0  0  0.126409  0  1.006829  0  0.035523  0  0.104548  0.125202  0  1.0071  0
H  H48  1  0.07866758  0.53675235  0.92081764  1  0  0.105475  0  0.943554  0  0  0.125842  0  1.006853  0  0  0.126412  0  1.006824  0  0.035521  0  0.104551  0.125208  0  1.007089  0
H  H49  1  0.42133249  0.03675248  0.57918160  1  0  0.105455  0  0.943542  0  0  0.125818  0  1.006852  0  0  0.126388  0  1.006823  0  0.035532  0  0.104541  0.125183  0  1.007087  0
H  H50  1  0.86181482  0.31222043  0.01395918  1  0  0.114988  0  0.936532  0  0  0.133804  0  0.998092  0  0  0.135656  0  0.996328  0  0.123714  0  0.107758  0.132346  0  0.99943  0
H  H51  1  0.63818424  0.81222133  0.48604022  1  0  0.114952  0  0.936436  0  0  0.13377  0  0.998003  0  0  0.13562  0  0.996242  0  0.123739  0  0.107731  0.132311  0  0.999342  0
H  H52  1  0.13818416  0.68777828  0.98604037  1  0  0.114954  0  0.93644  0  0  0.133772  0  0.998011  0  0  0.135623  0  0.996249  0  0.123739  0  0.107736  0.132314  0  0.999348  0
H  H53  1  0.36181591  0.18777945  0.51395949  1  0  0.114963  0  0.936509  0  0  0.133778  0  0.998072  0  0  0.13563  0  0.996307  0  0.12372  0  0.107737  0.132319  0  0.999409  0
H  H54  1  0.02967735  0.30605547  0.10155226  1  0  0.109509  0  0.941147  0  0  0.129081  0  1.004601  0  0  0.129864  0  1.004548  0  0.062494  0  0.103357  0.12836  0  1.00486  0
H  H55  1  0.47032272  0.80605638  0.39844636  1  0  0.109507  0  0.941125  0  0  0.129071  0  1.004599  0  0  0.129854  0  1.004547  0  0.062486  0  0.103356  0.12835  0  1.004858  0
H  H56  1  0.97032163  0.69394324  0.89844667  1  0  0.109493  0  0.941139  0  0  0.12906  0  1.004607  0  0  0.129843  0  1.004555  0  0.062475  0  0.103347  0.128339  0  1.004866  0
H  H57  1  0.52967860  0.19394441  0.60155290  1  0  0.109512  0  0.941103  0  0  0.129075  0  1.004577  0  0  0.129859  0  1.004524  0  0.062485  0  0.103354  0.128354  0  1.004836  0
C  C58  1  0.61309288  0.60723388  0.03029418  1  0  -0.268478  0  3.694551  0  0  -0.2692  0  3.974212  0  0  -0.274039  0  3.987794  0  -0.020851  0  -0.030515  -0.266151  0  3.964802  0
C  C59  1  0.88691201  0.10723401  0.46970482  1  0  -0.268506  0  3.694539  0  0  -0.269263  0  3.974164  0  0  -0.274107  0  3.987753  0  -0.021209  0  -0.030569  -0.266217  0  3.964758  0
C  C60  1  0.38690611  0.39276690  0.96970536  1  0  -0.268313  0  3.694394  0  0  -0.269122  0  3.974085  0  0  -0.273964  0  3.987675  0  -0.02091  0  -0.030527  -0.266075  0  3.964677  0
C  C61  1  0.11309397  0.89276470  0.53029573  1  0  -0.26842  0  3.694367  0  0  -0.269154  0  3.974091  0  0  -0.274003  0  3.987688  0  -0.021172  0  -0.030519  -0.266108  0  3.964683  0
C  C62  1  0.60146020  0.53935925  0.95272565  1  0  0.212139  0  3.781193  0  0  0.178007  0  4.085478  0  0  0.188485  0  4.091403  0  0.559484  0  0.094797  0.171008  0  4.080977  0
C  C63  1  0.89853886  0.03935937  0.54727560  1  0  0.212171  0  3.781029  0  0  0.178036  0  4.08542  0  0  0.188515  0  4.091346  0  0.559591  0  0.094831  0.171038  0  4.080915  0
C  C64  1  0.39853879  0.46064257  0.04727328  1  0  0.211987  0  3.781174  0  0  0.177925  0  4.085468  0  0  0.188403  0  4.091396  0  0.559532  0  0.094783  0.170927  0  4.080966  0
C  C65  1  0.10146246  0.96064037  0.45272675  1  0  0.212164  0  3.781117  0  0  0.177987  0  4.085473  0  0  0.188463  0  4.091408  0  0.559839  0  0.094812  0.170988  0  4.080969  0
C  C66  1  0.50836736  0.56486974  0.07618273  1  0  0.221957  0  3.777658  0  0  0.181052  0  4.083783  0  0  0.193356  0  4.089181  0  0.529771  0  0.093947  0.173568  0  4.079584  0
C  C67  1  0.99163637  0.06486676  0.42381981  1  0  0.221842  0  3.777784  0  0  0.181089  0  4.083785  0  0  0.193381  0  4.089189  0  0.529282  0  0.093971  0.173608  0  4.079581  0
C  C68  1  0.49163396  0.43513415  0.92381777  1  0  0.221834  0  3.777692  0  0  0.181025  0  4.083746  0  0  0.193331  0  4.089148  0  0.529654  0  0.093948  0.173542  0  4.07955  0
C  C69  1  0.00836728  0.93513195  0.57618349  1  0  0.221865  0  3.777575  0  0  0.180978  0  4.083759  0  0  0.193283  0  4.089153  0  0.529701  0  0.093946  0.173496  0  4.079555  0
C  C70  1  0.28044774  0.00954066  0.10842188  1  0  0.41141  0  3.783823  0  0  0.333794  0  4.072205  0  0  0.363171  0  4.071085  0  1.388727  0  0.180169  0.314069  0  4.072589  0
C  C71  1  0.21955233  0.50954261  0.39157613  1  0  0.411493  0  3.783863  0  0  0.333866  0  4.072255  0  0  0.363241  0  4.071134  0  1.388749  0  0.180197  0.314143  0  4.072637  0
C  C72  1  0.71955125  0.99045908  0.89157520  1  0  0.411412  0  3.783876  0  0  0.333775  0  4.072264  0  0  0.363145  0  4.071149  0  1.388756  0  0.180166  0.314056  0  4.072639  0
C  C73  1  0.78044782  0.49045921  0.60842235  1  0  0.411388  0  3.78383  0  0  0.333773  0  4.072201  0  0  0.363144  0  4.071086  0  1.388749  0  0.180155  0.314054  0  4.072578  0
C  C74  1  0.06144275  0.99260387  0.17043686  1  0  -0.176116  0  3.652825  0  0  -0.277338  0  3.905104  0  0  -0.274003  0  3.915358  0  0.238194  0  -0.135138  -0.279126  0  3.8977  0
C  C75  1  0.43855500  0.49260400  0.32956267  1  0  -0.17603  0  3.652908  0  0  -0.277249  0  3.905151  0  0  -0.273914  0  3.915403  0  0.238196  0  -0.135149  -0.279037  0  3.897749  0
C  C76  1  0.93855508  0.00739588  0.82956376  1  0  -0.176061  0  3.652919  0  0  -0.277281  0  3.905171  0  0  -0.273947  0  3.915423  0  0.238223  0  -0.135128  -0.279069  0  3.897767  0
C  C77  1  0.56144399  0.50739471  0.67043811  1  0  -0.176058  0  3.652738  0  0  -0.277287  0  3.90503  0  0  -0.273951  0  3.915282  0  0.238205  0  -0.135135  -0.279073  0  3.897622  0
C  C78  1  0.29614236  0.12978532  0.24255887  1  0  -0.16649  0  3.640739  0  0  -0.26819  0  3.890311  0  0  -0.264191  0  3.899563  0  0.229341  0  -0.133397  -0.270531  0  3.883907  0
C  C79  1  0.20385538  0.62978727  0.25744189  1  0  -0.166525  0  3.640847  0  0  -0.26823  0  3.890456  0  0  -0.26423  0  3.899711  0  0.229165  0  -0.133429  -0.270573  0  3.884053  0
C  C80  1  0.70385430  0.87021131  0.75744219  1  0  -0.166543  0  3.640818  0  0  -0.268195  0  3.890401  0  0  -0.264192  0  3.899652  0  0.229085  0  -0.133407  -0.270541  0  3.884001  0
C  C81  1  0.79614360  0.37021248  0.74255889  1  0  -0.16651  0  3.64078  0  0  -0.268231  0  3.890396  0  0  -0.264229  0  3.899646  0  0.229247  0  -0.133411  -0.270573  0  3.88399  0
C  C82  1  0.70142505  0.21446595  0.10881061  1  0  0.389858  0  3.785688  0  0  0.314489  0  4.074289  0  0  0.342174  0  4.075887  0  1.33411  0  0.174503  0.295971  0  4.072597  0
C  C83  1  0.79857518  0.71446478  0.39118896  1  0  0.389815  0  3.785704  0  0  0.314441  0  4.074301  0  0  0.342134  0  4.075901  0  1.334094  0  0.174494  0.295922  0  4.072608  0
C  C84  1  0.29857394  0.78553484  0.89118894  1  0  0.389811  0  3.785783  0  0  0.314442  0  4.074364  0  0  0.342135  0  4.075965  0  1.334106  0  0.174487  0.295923  0  4.072671  0
C  C85  1  0.20142497  0.28553496  0.60881075  1  0  0.389857  0  3.785643  0  0  0.31446  0  4.07427  0  0  0.342155  0  4.075866  0  1.334109  0  0.174521  0.295942  0  4.072577  0
C  C86  1  0.84875325  0.36786150  0.21923916  1  0  -0.186803  0  3.636931  0  0  -0.291743  0  3.893959  0  0  -0.288631  0  3.903162  0  0.258536  0  -0.145023  -0.293333  0  3.887725  0
C  C87  1  0.65124815  0.86786034  0.28075996  1  0  -0.186763  0  3.636877  0  0  -0.29171  0  3.893894  0  0  -0.288598  0  3.903097  0  0.258584  0  -0.145006  -0.293302  0  3.887662  0
C  C88  1  0.15124807  0.63213824  0.78076072  1  0  -0.186714  0  3.636831  0  0  -0.2917  0  3.893848  0  0  -0.288589  0  3.903048  0  0.258633  0  -0.145009  -0.293289  0  3.887613  0
C  C89  1  0.34875084  0.13214044  0.71923958  1  0  -0.186794  0  3.636817  0  0  -0.291733  0  3.893819  0  0  -0.288635  0  3.903015  0  0.258531  0  -0.145006  -0.293323  0  3.887594  0
C  C90  1  0.91217689  0.34988884  0.07888848  1  0  -0.176767  0  3.636324  0  0  -0.279471  0  3.886301  0  0  -0.275826  0  3.895979  0  0.269405  0  -0.139812  -0.281479  0  3.879925  0
C  C91  1  0.58782217  0.84988871  0.42111030  1  0  -0.176737  0  3.636213  0  0  -0.27946  0  3.886216  0  0  -0.275808  0  3.895884  0  0.269414  0  -0.139794  -0.281466  0  3.879837  0
C  C92  1  0.08782093  0.65011091  0.92111028  1  0  -0.176727  0  3.636194  0  0  -0.279458  0  3.886202  0  0  -0.275809  0  3.895876  0  0.269404  0  -0.139804  -0.281463  0  3.879824  0
C  C93  1  0.41217681  0.15011207  0.57888863  1  0  -0.176747  0  3.636253  0  0  -0.279456  0  3.886228  0  0  -0.275807  0  3.895901  0  0.269415  0  -0.139803  -0.281461  0  3.87985  0
S  S94  1  0.75428041  0.74207343  0.07406424  1  0  1.324878  0  5.698183  0  0  1.227651  0  6.225752  0  0  1.276759  0  6.20096  0  3.276856  0  0.514239  1.194028  0  6.241381  0
S  S95  1  0.74572215  0.24207253  0.42593505  1  0  1.324928  0  5.698254  0  0  1.227692  0  6.225835  0  0  1.276802  0  6.201049  0  3.277519  0  0.514274  1.194071  0  6.241466  0
S  S96  1  0.24571858  0.25792631  0.92593592  1  0  1.324879  0  5.698319  0  0  1.227662  0  6.225896  0  0  1.276774  0  6.201102  0  3.276874  0  0.514272  1.194042  0  6.241521  0
S  S97  1  0.25428267  0.75792515  0.57406657  1  0  1.32487  0  5.698303  0  0  1.227626  0  6.225896  0  0  1.276738  0  6.201096  0  3.277255  0  0.514248  1.194006  0  6.241521  0
N  N98  1  0.21688552  0.04135806  0.17194891  1  0  -0.085472  0  3.506167  0  0  0.017291  0  3.742591  0  0  -0.002954  0  3.768137  0  -1.2309  0  -0.280167  0.030832  0  3.724913  0
N  N99  1  0.28311456  0.54135690  0.32805095  1  0  -0.085548  0  3.506332  0  0  0.017262  0  3.742709  0  0  -0.002981  0  3.768253  0  -1.23076  0  -0.280127  0.030804  0  3.725032  0
N  N100  1  0.78311463  0.95864272  0.82805142  1  0  -0.085505  0  3.506317  0  0  0.017289  0  3.742696  0  0  -0.002953  0  3.76824  0  -1.230758  0  -0.280134  0.03083  0  3.725018  0
N  N101  1  0.71688443  0.45864285  0.67194860  1  0  -0.085523  0  3.506208  0  0  0.017287  0  3.742578  0  0  -0.002958  0  3.768125  0  -1.230917  0  -0.280137  0.030829  0  3.724901  0
N  N102  1  0.81475076  0.30762313  0.13392985  1  0  -0.089329  0  3.530353  0  0  0.014302  0  3.766606  0  0  -0.006475  0  3.794517  0  -1.215871  0  -0.281968  0.028082  0  3.747575  0
N  N103  1  0.68524947  0.80762196  0.36606972  1  0  -0.089293  0  3.530241  0  0  0.01434  0  3.766506  0  0  -0.006436  0  3.794414  0  -1.215961  0  -0.28196  0.028121  0  3.747474  0
N  N104  1  0.18524823  0.69237765  0.86606969  1  0  -0.089332  0  3.530325  0  0  0.014304  0  3.766605  0  0  -0.006473  0  3.794517  0  -1.215974  0  -0.281949  0.028085  0  3.747572  0
N  N105  1  0.31475068  0.19237778  0.63393000  1  0  -0.089325  0  3.530289  0  0  0.01431  0  3.766555  0  0  -0.006468  0  3.794468  0  -1.215866  0  -0.281971  0.02809  0  3.747523  0
O  O106  1  0.65746916  0.86230670  0.08350904  1  0  -0.680568  0  2.081813  0  0  -0.621874  0  2.361404  0  0  -0.645262  0  2.344898  0  -1.320643  0  -0.334246  -0.604854  0  2.371448  0
O  O107  1  0.84253107  0.36230683  0.41648992  1  0  -0.68056  0  2.081859  0  0  -0.621865  0  2.36145  0  0  -0.645255  0  2.344941  0  -1.320668  0  -0.33425  -0.604846  0  2.371496  0
O  O108  1  0.34252749  0.13769305  0.91649141  1  0  -0.680536  0  2.081895  0  0  -0.621827  0  2.361477  0  0  -0.645211  0  2.344962  0  -1.320587  0  -0.334241  -0.60481  0  2.37152  0
O  O109  1  0.15747375  0.63769085  0.58351108  1  0  -0.680544  0  2.081985  0  0  -0.621798  0  2.361504  0  0  -0.645205  0  2.345035  0  -1.32067  0  -0.334215  -0.604787  0  2.371561  0
O  O110  1  0.84016936  0.68804042  0.15699671  1  0  -0.647965  0  1.966514  0  0  -0.606745  0  2.217352  0  0  -0.627779  0  2.204564  0  -1.333381  0  -0.333471  -0.59155  0  2.225457  0
O  O111  1  0.65983203  0.18803952  0.34300303  1  0  -0.647979  0  1.96657  0  0  -0.60676  0  2.217415  0  0  -0.627795  0  2.20463  0  -1.3334  0  -0.333482  -0.591561  0  2.225517  0
O  O112  1  0.15982846  0.31195932  0.84300267  1  0  -0.647946  0  1.966502  0  0  -0.606748  0  2.217364  0  0  -0.627781  0  2.204565  0  -1.333399  0  -0.333433  -0.591552  0  2.225466  0
O  O113  1  0.34017045  0.81195919  0.65699949  1  0  -0.647947  0  1.966583  0  0  -0.606732  0  2.217451  0  0  -0.627763  0  2.204654  0  -1.33348  0  -0.33345  -0.591535  0  2.225554  0
O  O114  1  0.84655691  0.76277526  0.01336858  1  0  -0.640142  0  1.97068  0  0  -0.600785  0  2.218098  0  0  -0.621059  0  2.2054  0  -1.314506  0  -0.334581  -0.586608  0  2.226194  0
O  O115  1  0.65344332  0.26277435  0.48663099  1  0  -0.640186  0  1.970707  0  0  -0.600807  0  2.218115  0  0  -0.621082  0  2.205415  0  -1.314765  0  -0.334578  -0.586627  0  2.226203  0
O  O116  1  0.15343975  0.23722759  0.98663063  1  0  -0.640158  0  1.970729  0  0  -0.600803  0  2.218147  0  0  -0.621082  0  2.20545  0  -1.314542  0  -0.334619  -0.586626  0  2.226235  0
O  O117  1  0.34656149  0.73722539  0.51337186  1  0  -0.640169  0  1.970644  0  0  -0.600796  0  2.218058  0  0  -0.62107  0  2.205357  0  -1.314502  0  -0.334609  -0.586617  0  2.226146  0
O  O118  1  0.41406688  0.04745982  0.10526257  1  0  -0.547865  0  2.131007  0  0  -0.48286  0  2.398977  0  0  -0.509398  0  2.389799  0  -1.164387  0  -0.298311  -0.464492  0  2.404659  0
O  O119  1  0.08593204  0.54745969  0.39473712  1  0  -0.547905  0  2.130991  0  0  -0.48291  0  2.398997  0  0  -0.509446  0  2.389815  0  -1.164392  0  -0.298333  -0.464541  0  2.404677  0
O  O120  1  0.58593095  0.95254200  0.89473681  1  0  -0.547907  0  2.131013  0  0  -0.482911  0  2.399017  0  0  -0.50945  0  2.389841  0  -1.164404  0  -0.298336  -0.464539  0  2.404691  0
O  O121  1  0.91406695  0.45254109  0.60526304  1  0  -0.547864  0  2.131033  0  0  -0.482868  0  2.39902  0  0  -0.509404  0  2.389843  0  -1.164372  0  -0.29832  -0.464499  0  2.404699  0
O  O122  1  0.66668191  0.15867774  0.03597459  1  0  -0.560761  0  2.139891  0  0  -0.500729  0  2.413291  0  0  -0.527526  0  2.405429  0  -1.168658  0  -0.305371  -0.482069  0  2.417566  0
O  O123  1  0.83331832  0.65867865  0.46402498  1  0  -0.560703  0  2.139908  0  0  -0.500677  0  2.413316  0  0  -0.527475  0  2.40545  0  -1.168644  0  -0.305344  -0.482017  0  2.417589  0
O  O124  1  0.33331708  0.84132201  0.96402495  1  0  -0.560714  0  2.139921  0  0  -0.500687  0  2.413324  0  0  -0.527487  0  2.405458  0  -1.168647  0  -0.305343  -0.482029  0  2.417598  0
O  O125  1  0.16668300  0.34132317  0.53597429  1  0  -0.560749  0  2.139893  0  0  -0.500706  0  2.413304  0  0  -0.527504  0  2.405436  0  -1.168664  0  -0.305379  -0.482047  0  2.417577  0
F  F126  1  0.69648503  0.57038919  0.90229806  1  0  -0.156538  0  1.24997  0  0  -0.111549  0  1.424125  0  0  -0.119375  0  1.414186  0  -0.6308  0  -0.077281  -0.105699  0  1.430565  0
F  F127  1  0.80351403  0.07038828  0.59770011  1  0  -0.1565  0  1.250073  0  0  -0.111501  0  1.424242  0  0  -0.11933  0  1.414302  0  -0.630803  0  -0.077257  -0.105653  0  1.430678  0
F  F128  1  0.30351163  0.42961159  0.09770053  1  0  -0.156548  0  1.249973  0  0  -0.111569  0  1.424112  0  0  -0.119395  0  1.414173  0  -0.630791  0  -0.077303  -0.10572  0  1.430551  0
F  F129  1  0.19648845  0.92960732  0.40229994  1  0  -0.15656  0  1.249958  0  0  -0.111555  0  1.424136  0  0  -0.119386  0  1.414199  0  -0.630804  0  -0.077292  -0.105707  0  1.430572  0
F  F130  1  0.50993368  0.62550288  0.15165767  1  0  -0.165792  0  1.257099  0  0  -0.106025  0  1.420722  0  0  -0.119217  0  1.41544  0  -0.62296  0  -0.071885  -0.099846  0  1.427038  0
F  F131  1  0.99007238  0.12550404  0.34834273  1  0  -0.165836  0  1.257012  0  0  -0.106125  0  1.420604  0  0  -0.119283  0  1.415291  0  -0.622924  0  -0.071959  -0.099946  0  1.426917  0
F  F132  1  0.49006531  0.37449686  0.84834187  1  0  -0.16584  0  1.257084  0  0  -0.106083  0  1.420665  0  0  -0.119283  0  1.41539  0  -0.622946  0  -0.07191  -0.099902  0  1.426983  0
F  F133  1  0.00993360  0.87449570  0.65165782  1  0  -0.165818  0  1.2571  0  0  -0.106049  0  1.420731  0  0  -0.119242  0  1.415446  0  -0.622979  0  -0.071919  -0.09987  0  1.427044  0
