# generated using pymatgen
data_SrH7(C2O3)2
_symmetry_space_group_name_H-M   'P 1'
_cell_length_a   7.89661815
_cell_length_b   8.74886866
_cell_length_c   10.06135046
_cell_angle_alpha   96.20097591
_cell_angle_beta   90.00000352
_cell_angle_gamma   90.00010516
_symmetry_Int_Tables_number   1
_chemical_formula_structural   SrH7(C2O3)2
_chemical_formula_sum   'Sr4 H28 C16 O24'
_cell_volume   691.03627473
_cell_formula_units_Z   4
loop_
 _symmetry_equiv_pos_site_id
 _symmetry_equiv_pos_as_xyz
  1  'x, y, z'
loop_
 _atom_site_type_symbol
 _atom_site_label
 _atom_site_symmetry_multiplicity
 _atom_site_fract_x
 _atom_site_fract_y
 _atom_site_fract_z
 _atom_site_occupancy
 _atom_site_hle17_bader_spin_density
 _atom_site_hle17_ddec_charge
 _atom_site_hle17_ddec_spin_density
 _atom_site_hle17_ddec_sum_bond_order
 _atom_site_hle17_magmom
 _atom_site_hse06_10hf_bader_spin_density
 _atom_site_hse06_10hf_ddec_charge
 _atom_site_hse06_10hf_ddec_spin_density
 _atom_site_hse06_10hf_ddec_sum_bond_order
 _atom_site_hse06_10hf_magmom
 _atom_site_hse06_bader_spin_density
 _atom_site_hse06_ddec_charge
 _atom_site_hse06_ddec_spin_density
 _atom_site_hse06_ddec_sum_bond_order
 _atom_site_hse06_magmom
 _atom_site_pbe_bader_spin_density
 _atom_site_pbe_cm5_charge
 _atom_site_pbe_ddec_charge
 _atom_site_pbe_ddec_spin_density
 _atom_site_pbe_ddec_sum_bond_order
 _atom_site_pbe_magmom
Sr  Sr0  1  0.45720356  0.21993637  0.60816290  1  0  1.619505  0  1.090305  0  0  1.473969  0  1.462856  0  0  1.512019  0  1.418552  0  0  0.951298  1.446021  0  1.494248  0
Sr  Sr1  1  0.95720502  0.28006377  0.89183730  1  0  1.61951  0  1.090302  0  0  1.473962  0  1.462868  0  0  1.512014  0  1.418563  0  0  0.951293  1.446028  0  1.494237  0
Sr  Sr2  1  0.54279519  0.78006420  0.39183516  1  0  1.619537  0  1.09026  0  0  1.47397  0  1.462866  0  0  1.512022  0  1.418558  0  0  0.951312  1.446037  0  1.494233  0
Sr  Sr3  1  0.04279626  0.71993567  0.10816365  1  0  1.619531  0  1.090277  0  0  1.473966  0  1.462864  0  0  1.512016  0  1.418556  0  0  0.951308  1.446037  0  1.494226  0
H  H4  1  0.46046894  0.89892354  0.72564635  1  0  0.419728  0  0.888267  0  0  0.386559  0  0.95616  0  0  0.397577  0  0.940359  0  0  0.296404  0.378955  0  0.966992  0
H  H5  1  0.96046749  0.60107726  0.77435223  1  0  0.419727  0  0.888266  0  0  0.386552  0  0.956167  0  0  0.397569  0  0.940367  0  0  0.2964  0.378946  0  0.967  0
H  H6  1  0.53953361  0.10107818  0.27435181  1  0  0.419805  0  0.888161  0  0  0.386599  0  0.956106  0  0  0.397616  0  0.940304  0  0  0.296415  0.378994  0  0.966938  0
H  H7  1  0.03953379  0.39892104  0.22564862  1  0  0.41981  0  0.888152  0  0  0.386607  0  0.956091  0  0  0.397625  0  0.94029  0  0  0.296414  0.379002  0  0.966923  0
H  H8  1  0.33125451  0.01338085  0.80579983  1  0  0.41536  0  0.886499  0  0  0.386424  0  0.949634  0  0  0.395921  0  0.935702  0  0  0.30359  0.379788  0  0.959353  0
H  H9  1  0.83125637  0.48661790  0.69419826  1  0  0.415371  0  0.886492  0  0  0.386435  0  0.94962  0  0  0.395933  0  0.935689  0  0  0.303595  0.3798  0  0.95934  0
H  H10  1  0.66874551  0.98661857  0.19419913  1  0  0.415356  0  0.886504  0  0  0.38642  0  0.949639  0  0  0.395918  0  0.935706  0  0  0.303585  0.379785  0  0.959358  0
H  H11  1  0.16874618  0.51338267  0.30580080  1  0  0.415359  0  0.886499  0  0  0.386422  0  0.949636  0  0  0.395919  0  0.935705  0  0  0.303586  0.379787  0  0.959356  0
H  H12  1  0.26520769  0.46972421  0.49511174  1  0  0.416958  0  0.885004  0  0  0.385491  0  0.950156  0  0  0.396669  0  0.933532  0  0  0.301485  0.377463  0  0.962046  0
H  H13  1  0.76520735  0.03027539  0.00488874  1  0  0.416957  0  0.885005  0  0  0.385487  0  0.950161  0  0  0.396664  0  0.933537  0  0  0.301479  0.377459  0  0.962051  0
H  H14  1  0.73479232  0.53027636  0.50488732  1  0  0.416987  0  0.884968  0  0  0.385522  0  0.950118  0  0  0.396699  0  0.933493  0  0  0.301493  0.377493  0  0.962008  0
H  H15  1  0.23479267  0.96972292  0.99511310  1  0  0.416985  0  0.884971  0  0  0.385514  0  0.950132  0  0  0.396691  0  0.933508  0  0  0.301488  0.377484  0  0.962024  0
H  H16  1  0.12141068  0.44973185  0.60798516  1  0  0.438573  0  0.850984  0  0  0.410999  0  0.907697  0  0  0.42155  0  0.892201  0  0  0.30009  0.403476  0  0.918753  0
H  H17  1  0.62141167  0.05027001  0.89201417  1  0  0.438567  0  0.850996  0  0  0.410992  0  0.907711  0  0  0.421542  0  0.892216  0  0  0.300069  0.403469  0  0.918766  0
H  H18  1  0.87858934  0.55026988  0.39201499  1  0  0.438586  0  0.850968  0  0  0.411012  0  0.907681  0  0  0.421563  0  0.892184  0  0  0.300089  0.403489  0  0.918736  0
H  H19  1  0.37859088  0.94973058  0.10798588  1  0  0.438588  0  0.850969  0  0  0.41101  0  0.907689  0  0  0.421562  0  0.89219  0  0  0.300075  0.403487  0  0.918744  0
H  H20  1  0.37708579  0.30510835  0.10404065  1  0  0.119485  0  0.918424  0  0  0.137479  0  0.972992  0  0  0.140174  0  0.971717  0  0  0.115774  0.135475  0  0.974187  0
H  H21  1  0.87708580  0.19489372  0.39595905  1  0  0.119476  0  0.918393  0  0  0.137465  0  0.972982  0  0  0.140159  0  0.971704  0  0  0.115768  0.135463  0  0.974175  0
H  H22  1  0.62291550  0.69489335  0.89595652  1  0  0.119454  0  0.918402  0  0  0.137458  0  0.972989  0  0  0.140147  0  0.97171  0  0  0.115778  0.135453  0  0.974184  0
H  H23  1  0.12291421  0.80510804  0.60404409  1  0  0.119471  0  0.918412  0  0  0.137492  0  0.972983  0  0  0.140179  0  0.971708  0  0  0.115779  0.135484  0  0.974184  0
H  H24  1  0.59722177  0.28348133  0.11565062  1  0  0.116809  0  0.953612  0  0  0.128398  0  1.018782  0  0  0.131772  0  1.016695  0  0  0.107135  0.125924  0  1.020449  0
H  H25  1  0.09722160  0.21651913  0.38434993  1  0  0.116808  0  0.953612  0  0  0.128407  0  1.018783  0  0  0.131781  0  1.016692  0  0  0.107136  0.125932  0  1.020452  0
H  H26  1  0.40277951  0.71651923  0.88434645  1  0  0.116767  0  0.953661  0  0  0.128384  0  1.018825  0  0  0.131756  0  1.01673  0  0  0.107138  0.125908  0  1.020495  0
H  H27  1  0.90277842  0.78347917  0.61565192  1  0  0.116762  0  0.953616  0  0  0.128375  0  1.018797  0  0  0.131748  0  1.0167  0  0  0.107125  0.1259  0  1.020465  0
H  H28  1  0.42815731  0.60014752  0.12084157  1  0  0.074653  0  0.938963  0  0  0.084864  0  1.002602  0  0  0.087914  0  1.000524  0  0  0.120054  0.082627  0  1.004231  0
H  H29  1  0.92815521  0.89985300  0.37915732  1  0  0.074624  0  0.938983  0  0  0.084849  0  1.002604  0  0  0.087901  0  1.000518  0  0  0.120043  0.082611  0  1.004235  0
H  H30  1  0.57184397  0.39985303  0.87915451  1  0  0.074624  0  0.938975  0  0  0.084847  0  1.002585  0  0  0.0879  0  1.0005  0  0  0.120038  0.082607  0  1.00422  0
H  H31  1  0.07184101  0.10014645  0.62084462  1  0  0.074625  0  0.938991  0  0  0.084844  0  1.002606  0  0  0.087898  0  1.00052  0  0  0.120044  0.082604  0  1.00424  0
C  C32  1  0.46879095  0.38514340  0.29408164  1  0  0.737963  0  3.801842  0  0  0.685463  0  4.108387  0  0  0.718607  0  4.100291  0  0  0.235205  0.662909  0  4.113338  0
C  C33  1  0.96879080  0.11485653  0.20591788  1  0  0.738079  0  3.801847  0  0  0.685609  0  4.108349  0  0  0.718751  0  4.100251  0  0  0.235264  0.663056  0  4.113302  0
C  C34  1  0.53121159  0.61485831  0.70591553  1  0  0.737964  0  3.801916  0  0  0.685515  0  4.108412  0  0  0.718651  0  4.100317  0  0  0.235229  0.662962  0  4.113356  0
C  C35  1  0.03120795  0.88514178  0.79408495  1  0  0.737908  0  3.801979  0  0  0.685421  0  4.108536  0  0  0.718557  0  4.100441  0  0  0.235147  0.66287  0  4.113479  0
C  C36  1  0.49338627  0.36412097  0.14290005  1  0  -0.291639  0  3.629494  0  0  -0.334801  0  3.878532  0  0  -0.340262  0  3.884573  0  0  -0.156218  -0.330967  0  3.874558  0
C  C37  1  0.99338490  0.13587900  0.35709848  1  0  -0.291653  0  3.629461  0  0  -0.334855  0  3.878537  0  0  -0.340309  0  3.884566  0  0  -0.156242  -0.331022  0  3.874565  0
C  C38  1  0.50661502  0.63587844  0.85709691  1  0  -0.291535  0  3.629477  0  0  -0.33479  0  3.878556  0  0  -0.340224  0  3.884558  0  0  -0.156245  -0.330955  0  3.874577  0
C  C39  1  0.00661259  0.86412160  0.64290356  1  0  -0.291556  0  3.629435  0  0  -0.33481  0  3.878502  0  0  -0.340244  0  3.884506  0  0  -0.156223  -0.330976  0  3.874523  0
C  C40  1  0.51673945  0.51254707  0.07591423  1  0  -0.10727  0  3.639823  0  0  -0.117079  0  3.877714  0  0  -0.121238  0  3.889973  0  0  -0.075274  -0.114295  0  3.86908  0
C  C41  1  0.01673729  0.98745507  0.42408577  1  0  -0.10723  0  3.639827  0  0  -0.11701  0  3.877699  0  0  -0.121168  0  3.889957  0  0  -0.075238  -0.114225  0  3.86906  0
C  C42  1  0.48326184  0.48745465  0.92408393  1  0  -0.107226  0  3.639788  0  0  -0.116956  0  3.877613  0  0  -0.12112  0  3.889866  0  0  -0.075224  -0.114173  0  3.868976  0
C  C43  1  0.98325893  0.01254667  0.57591538  1  0  -0.107238  0  3.639829  0  0  -0.116961  0  3.877673  0  0  -0.121128  0  3.889928  0  0  -0.075256  -0.114182  0  3.869044  0
C  C44  1  0.69569333  0.57397018  0.09818915  1  0  0.689898  0  3.857995  0  0  0.647532  0  4.145358  0  0  0.67988  0  4.139104  0  0  0.219565  0.625539  0  4.149494  0
C  C45  1  0.19568978  0.92602997  0.40181168  1  0  0.689804  0  3.858006  0  0  0.64739  0  4.14543  0  0  0.679739  0  4.139177  0  0  0.219474  0.625399  0  4.149562  0
C  C46  1  0.30430922  0.42603154  0.90180901  1  0  0.689847  0  3.858092  0  0  0.647456  0  4.145459  0  0  0.679804  0  4.139207  0  0  0.219532  0.625463  0  4.149591  0
C  C47  1  0.80430517  0.07396834  0.59819116  1  0  0.689876  0  3.857967  0  0  0.647433  0  4.145422  0  0  0.67978  0  4.139168  0  0  0.219512  0.62544  0  4.149553  0
O  O48  1  0.51131665  0.27489785  0.35986737  1  0  -0.684093  0  1.961637  0  0  -0.620286  0  2.196344  0  0  -0.646604  0  2.186351  0  0  -0.341579  -0.601991  0  2.202519  0
O  O49  1  0.01131900  0.22510131  0.14013305  1  0  -0.684159  0  1.961632  0  0  -0.620368  0  2.196342  0  0  -0.646686  0  2.186347  0  0  -0.341618  -0.602073  0  2.202517  0
O  O50  1  0.48868590  0.72510271  0.64012969  1  0  -0.684074  0  1.961686  0  0  -0.620281  0  2.196357  0  0  -0.646599  0  2.186368  0  0  -0.341579  -0.601989  0  2.202527  0
O  O51  1  0.98867848  0.77489700  0.85986979  1  0  -0.684048  0  1.961692  0  0  -0.620233  0  2.19639  0  0  -0.646553  0  2.186404  0  0  -0.341527  -0.601942  0  2.202562  0
O  O52  1  0.44904796  0.00558095  0.77305905  1  0  -0.87024  0  1.863967  0  0  -0.809808  0  2.039075  0  0  -0.830358  0  2.008324  0  0  -0.60163  -0.795193  0  2.060186  0
O  O53  1  0.94904857  0.49441918  0.72694115  1  0  -0.870251  0  1.863955  0  0  -0.809823  0  2.039079  0  0  -0.830365  0  2.008311  0  0  -0.601636  -0.795211  0  2.060191  0
O  O54  1  0.55095205  0.99441964  0.22694100  1  0  -0.870312  0  1.863895  0  0  -0.809846  0  2.039066  0  0  -0.830397  0  2.008309  0  0  -0.60164  -0.795234  0  2.060177  0
O  O55  1  0.05095145  0.50558026  0.27305880  1  0  -0.870315  0  1.863866  0  0  -0.809851  0  2.039041  0  0  -0.830397  0  2.008275  0  0  -0.601637  -0.795241  0  2.060152  0
O  O56  1  0.39825836  0.50888376  0.34715116  1  0  -0.734789  0  2.015217  0  0  -0.664643  0  2.253269  0  0  -0.690197  0  2.240907  0  0  -0.349186  -0.646475  0  2.26078  0
O  O57  1  0.89825895  0.99111673  0.15284872  1  0  -0.734842  0  2.015281  0  0  -0.664678  0  2.253275  0  0  -0.690232  0  2.240913  0  0  -0.349188  -0.646511  0  2.260786  0
O  O58  1  0.60174293  0.49111564  0.65284481  1  0  -0.734833  0  2.015222  0  0  -0.664691  0  2.253203  0  0  -0.690243  0  2.240844  0  0  -0.349223  -0.646522  0  2.260712  0
O  O59  1  0.10173980  0.00888273  0.84715323  1  0  -0.734778  0  2.015238  0  0  -0.664625  0  2.253246  0  0  -0.690178  0  2.240889  0  0  -0.349172  -0.646457  0  2.260756  0
O  O60  1  0.21734537  0.40064985  0.55638989  1  0  -0.89326  0  1.829347  0  0  -0.839637  0  2.010821  0  0  -0.859144  0  1.978443  0  0  -0.633982  -0.825621  0  2.033729  0
O  O61  1  0.71734520  0.09934988  0.94361027  1  0  -0.893248  0  1.829349  0  0  -0.839622  0  2.010826  0  0  -0.859126  0  1.978449  0  0  -0.633956  -0.825613  0  2.033743  0
O  O62  1  0.78265465  0.59935187  0.44360927  1  0  -0.893292  0  1.8293  0  0  -0.839669  0  2.010775  0  0  -0.859178  0  1.978397  0  0  -0.633982  -0.825651  0  2.033671  0
O  O63  1  0.28265609  0.90064842  0.05639058  1  0  -0.893301  0  1.829301  0  0  -0.839674  0  2.010787  0  0  -0.859181  0  1.978407  0  0  -0.633972  -0.825659  0  2.033696  0
O  O64  1  0.71975819  0.69457939  0.17890515  1  0  -0.729787  0  1.976753  0  0  -0.665586  0  2.218517  0  0  -0.692203  0  2.20973  0  0  -0.391288  -0.647027  0  2.224575  0
O  O65  1  0.21975439  0.80542196  0.32109678  1  0  -0.729742  0  1.976725  0  0  -0.665514  0  2.218496  0  0  -0.692121  0  2.209684  0  0  -0.39126  -0.646955  0  2.224551  0
O  O66  1  0.28024183  0.30542118  0.82109391  1  0  -0.729783  0  1.976768  0  0  -0.665583  0  2.21852  0  0  -0.692204  0  2.209742  0  0  -0.391304  -0.64702  0  2.224575  0
O  O67  1  0.78023929  0.19457751  0.67890715  1  0  -0.729765  0  1.976668  0  0  -0.665553  0  2.218463  0  0  -0.692176  0  2.209689  0  0  -0.391277  -0.64699  0  2.224518  0
O  O68  1  0.81580290  0.50467872  0.03209708  1  0  -0.737862  0  1.996387  0  0  -0.675354  0  2.246979  0  0  -0.702103  0  2.238007  0  0  -0.401433  -0.656628  0  2.252779  0
O  O69  1  0.31580077  0.99532048  0.46790268  1  0  -0.737841  0  1.996396  0  0  -0.675325  0  2.247013  0  0  -0.702073  0  2.238041  0  0  -0.401407  -0.656596  0  2.252813  0
O  O70  1  0.18419964  0.49532071  0.96790187  1  0  -0.737856  0  1.996469  0  0  -0.675339  0  2.24707  0  0  -0.702086  0  2.2381  0  0  -0.401405  -0.656614  0  2.252871  0
O  O71  1  0.68419545  0.00467782  0.53209917  1  0  -0.737878  0  1.996469  0  0  -0.675343  0  2.247094  0  0  -0.702089  0  2.238124  0  0  -0.401406  -0.656616  0  2.252895  0
