# generated using pymatgen
data_ZnH13C18BrN4O
_symmetry_space_group_name_H-M   'P 1'
_cell_length_a   8.58822513
_cell_length_b   13.02232229
_cell_length_c   16.83556640
_cell_angle_alpha   89.99999317
_cell_angle_beta   89.99979376
_cell_angle_gamma   89.99991580
_symmetry_Int_Tables_number   1
_chemical_formula_structural   ZnH13C18BrN4O
_chemical_formula_sum   'Zn4 H52 C72 Br4 N16 O4'
_cell_volume   1882.86677484
_cell_formula_units_Z   4
loop_
 _symmetry_equiv_pos_site_id
 _symmetry_equiv_pos_as_xyz
  1  'x, y, z'
loop_
 _atom_site_type_symbol
 _atom_site_label
 _atom_site_symmetry_multiplicity
 _atom_site_fract_x
 _atom_site_fract_y
 _atom_site_fract_z
 _atom_site_occupancy
 _atom_site_pbe_bader_charge
 _atom_site_pbe_bader_spin_density
 _atom_site_pbe_cm5_charge
 _atom_site_pbe_ddec_charge
 _atom_site_pbe_ddec_spin_density
 _atom_site_pbe_ddec_sum_bond_order
 _atom_site_pbe_magmom
Zn  Zn0  1  0.62819629  0.61850529  0.75469156  1  1.138498  0  0.593585  0.591216  0  2.600844  0
Zn  Zn1  1  0.87180279  0.38149372  0.25469213  1  1.138512  0  0.593584  0.591194  0  2.600851  0
Zn  Zn2  1  0.12819577  0.88149477  0.24530671  1  1.138521  0  0.593553  0.591179  0  2.600845  0
Zn  Zn3  1  0.37180398  0.11850474  0.74530811  1  1.138508  0  0.59359  0.591243  0  2.600823  0
H  H4  1  0.08956023  0.09798549  0.84552478  1  0.117219  0  0.122472  0.102894  0  0.990442  0
H  H5  1  0.41043532  0.90201400  0.34552464  1  0.117218  0  0.122459  0.102905  0  0.990445  0
H  H6  1  0.58956320  0.40201402  0.15447538  1  0.117206  0  0.122449  0.102878  0  0.990478  0
H  H7  1  0.91043892  0.59798578  0.65447549  1  0.117225  0  0.122458  0.1029  0  0.990464  0
H  H8  1  0.44329324  0.40688798  0.78871495  1  0.106617  0  0.114916  0.085048  0  0.997459  0
H  H9  1  0.05670736  0.59310845  0.28871548  1  0.106626  0  0.11498  0.085109  0  0.99741  0
H  H10  1  0.94329184  0.09310888  0.21128516  1  0.106651  0  0.114957  0.085063  0  0.997445  0
H  H11  1  0.55670638  0.90688861  0.71128470  1  0.106624  0  0.114932  0.085073  0  0.997425  0
H  H12  1  0.03960448  0.80437182  0.66402629  1  0.085024  0  0.116276  0.128332  0  0.986136  0
H  H13  1  0.46039584  0.19562616  0.16402672  1  0.085028  0  0.116239  0.12829  0  0.986239  0
H  H14  1  0.53960429  0.69562679  0.33597391  1  0.085023  0  0.116264  0.128328  0  0.986173  0
H  H15  1  0.96039538  0.30437222  0.83597395  1  0.085011  0  0.116264  0.128317  0  0.986172  0
H  H16  1  0.85441223  0.98305306  0.85699380  1  0.110415  0  0.107414  0.118574  0  1.041025  0
H  H17  1  0.64558496  0.01694671  0.35699423  1  0.110443  0  0.10742  0.118598  0  1.041042  0
H  H18  1  0.35441324  0.51694602  0.14300524  1  0.110448  0  0.107409  0.118533  0  1.041068  0
H  H19  1  0.14558723  0.48305274  0.64300643  1  0.110429  0  0.107425  0.118566  0  1.041039  0
H  H20  1  0.30258167  0.32860323  0.90307357  1  0.130892  0  0.107198  0.124192  0  1.015346  0
H  H21  1  0.19741697  0.67139318  0.40307384  1  0.130974  0  0.107201  0.124166  0  1.015397  0
H  H22  1  0.80258090  0.17139453  0.09692679  1  0.130943  0  0.107233  0.124204  0  1.015327  0
H  H23  1  0.69741814  0.82860374  0.59692667  1  0.13094  0  0.107206  0.124192  0  1.015334  0
H  H24  1  0.39941933  0.60713882  0.03515791  1  0.14177  0  0.104044  0.106538  0  1.064725  0
H  H25  1  0.10057026  0.39286071  0.53515919  1  0.141885  0  0.104078  0.106644  0  1.064652  0
H  H26  1  0.89942940  0.89286328  0.96483867  1  0.141869  0  0.104077  0.10662  0  1.064679  0
H  H27  1  0.60058100  0.10713955  0.46484214  1  0.141771  0  0.104072  0.106598  0  1.064676  0
H  H28  1  0.70291148  0.64033936  0.06053664  1  0.032905  0  0.098504  0.097862  0  1.015013  0
H  H29  1  0.79708897  0.35966430  0.56053697  1  0.032854  0  0.098497  0.097844  0  1.014946  0
H  H30  1  0.20291309  0.85966293  0.93946327  1  0.032864  0  0.098491  0.097875  0  1.014937  0
H  H31  1  0.29708878  0.14033961  0.43946340  1  0.032915  0  0.098511  0.097867  0  1.015017  0
H  H32  1  0.48350539  0.88938561  0.93458168  1  0.120403  0  0.097712  0.100462  0  1.017241  0
H  H33  1  0.01649302  0.11061003  0.43458827  1  0.120466  0  0.097637  0.10039  0  1.017349  0
H  H34  1  0.98350614  0.61060950  0.06541119  1  0.1201  0  0.097648  0.100407  0  1.017331  0
H  H35  1  0.51649544  0.38938494  0.56541797  1  0.120413  0  0.097688  0.100434  0  1.017273  0
H  H36  1  0.27657344  0.43282666  0.02954789  1  0.106948  0  0.098687  0.110228  0  1.010782  0
H  H37  1  0.22341852  0.56717134  0.52954952  1  0.106975  0  0.098696  0.110238  0  1.010812  0
H  H38  1  0.77658187  0.06717420  0.97045015  1  0.106967  0  0.098691  0.110238  0  1.010772  0
H  H39  1  0.72342733  0.93282785  0.47045154  1  0.106934  0  0.098689  0.110225  0  1.010773  0
H  H40  1  0.26367278  0.92709176  0.65806846  1  0.090013  0  0.117855  0.086422  0  1.016597  0
H  H41  1  0.23632759  0.07290776  0.15806812  1  0.090013  0  0.117833  0.086404  0  1.016572  0
H  H42  1  0.76367283  0.57290817  0.34193134  1  0.090015  0  0.117845  0.086428  0  1.016592  0
H  H43  1  0.73632681  0.42709160  0.84193118  1  0.090007  0  0.117844  0.086407  0  1.016615  0
H  H44  1  0.71908424  0.74946581  0.18177935  1  0.075159  0  0.095414  0.093373  0  1.014993  0
H  H45  1  0.78090837  0.25054397  0.68178210  1  0.075127  0  0.095495  0.09343  0  1.015056  0
H  H46  1  0.21909277  0.75054338  0.81821815  1  0.075107  0  0.095499  0.093431  0  1.015064  0
H  H47  1  0.28091694  0.24946610  0.31822069  1  0.075184  0  0.095423  0.093381  0  1.014985  0
H  H48  1  0.60484391  0.92396546  0.18135891  1  0.04984  0  0.092006  0.085597  0  1.052237  0
H  H49  1  0.89514055  0.07604125  0.68136621  1  0.049084  0  0.092014  0.085609  0  1.052257  0
H  H50  1  0.10485981  0.57604077  0.81863286  1  0.049475  0  0.091997  0.085592  0  1.052264  0
H  H51  1  0.39515688  0.42396564  0.31864170  1  0.049845  0  0.091976  0.085531  0  1.052306  0
H  H52  1  0.48477639  0.99364818  0.05736497  1  0.073038  0  0.095625  0.090986  0  1.01653  0
H  H53  1  0.01521537  0.00635365  0.55737476  1  0.073337  0  0.095689  0.090992  0  1.016614  0
H  H54  1  0.98478631  0.50635307  0.94262492  1  0.073343  0  0.095694  0.091022  0  1.016586  0
H  H55  1  0.51522425  0.49364746  0.44263564  1  0.07304  0  0.095627  0.090979  0  1.016538  0
C  C56  1  0.49692299  0.59444128  0.91728615  1  0.411222  0  0.116054  0.162032  0  3.994397  0
C  C57  1  0.00307321  0.40555666  0.41728680  1  0.410873  0  0.116069  0.162113  0  3.994509  0
C  C58  1  0.99692529  0.90555689  0.08271203  1  0.411119  0  0.116122  0.162107  0  3.994541  0
C  C59  1  0.50307501  0.09444062  0.58271411  1  0.411228  0  0.11604  0.162054  0  3.994394  0
C  C60  1  0.07445254  0.03102893  0.80755755  1  0.434867  0  0.048718  0.086919  0  3.91784  0
C  C61  1  0.42554676  0.96897133  0.30755738  1  0.434927  0  0.048682  0.086789  0  3.917715  0
C  C62  1  0.57445393  0.46896982  0.19244264  1  0.434519  0  0.048688  0.086825  0  3.917872  0
C  C63  1  0.92554676  0.53102844  0.69244272  1  0.434911  0  0.048644  0.086753  0  3.917873  0
C  C64  1  0.93346044  0.88191285  0.76377976  1  -0.014004  0  0.017601  0.049686  0  3.951962  0
C  C65  1  0.56653742  0.11808694  0.26378032  1  -0.013994  0  0.017595  0.049668  0  3.952018  0
C  C66  1  0.43345940  0.61808845  0.23621972  1  -0.014013  0  0.017577  0.04967  0  3.951948  0
C  C67  1  0.06654041  0.38191182  0.73622047  1  -0.014004  0  0.017597  0.049693  0  3.951988  0
C  C68  1  0.43429347  0.44728246  0.84535576  1  0.487611  0  0.04999  0.099186  0  3.962642  0
C  C69  1  0.06570674  0.55271472  0.34535628  1  0.487619  0  0.04999  0.099206  0  3.962812  0
C  C70  1  0.93429256  0.05271594  0.15464318  1  0.487607  0  0.049967  0.099194  0  3.96274  0
C  C71  1  0.56570723  0.94728156  0.65464388  1  0.487536  0  0.04996  0.099159  0  3.962664  0
C  C72  1  0.04731016  0.86864069  0.70518855  1  -0.006299  0  -0.072276  -0.144074  0  3.936844  0
C  C73  1  0.45268871  0.13136036  0.20518780  1  -0.006326  0  -0.072269  -0.144043  0  3.936845  0
C  C74  1  0.54731041  0.63135945  0.29481224  1  -0.006287  0  -0.07229  -0.1441  0  3.936748  0
C  C75  1  0.95268955  0.36863956  0.79481169  1  -0.006292  0  -0.072273  -0.144074  0  3.936799  0
C  C76  1  0.94579682  0.96708044  0.81410832  1  0.02855  0  -0.071782  -0.145639  0  3.942827  0
C  C77  1  0.55420300  0.03292010  0.31410772  1  0.028492  0  -0.071783  -0.14563  0  3.942809  0
C  C78  1  0.44579866  0.53292008  0.18589114  1  0.0289  0  -0.071758  -0.145553  0  3.942758  0
C  C79  1  0.05420267  0.46708020  0.68589191  1  0.028534  0  -0.071749  -0.145538  0  3.942818  0
C  C80  1  0.81045953  0.80256991  0.77296104  1  1.317364  0  0.214603  0.39816  0  4.154922  0
C  C81  1  0.68954059  0.19742987  0.27296077  1  1.317393  0  0.214574  0.398086  0  4.155  0
C  C82  1  0.31045721  0.69742997  0.22703867  1  1.317368  0  0.214593  0.39808  0  4.155023  0
C  C83  1  0.18954150  0.30256954  0.72703921  1  1.317356  0  0.214578  0.398087  0  4.155035  0
C  C84  1  0.35507087  0.40422720  0.90959424  1  -0.010971  0  -0.082901  -0.127648  0  3.948689  0
C  C85  1  0.14492772  0.59576998  0.40959461  1  -0.011211  0  -0.082975  -0.127696  0  3.948826  0
C  C86  1  0.85507031  0.09577128  0.09040484  1  -0.010979  0  -0.082991  -0.127729  0  3.948688  0
C  C87  1  0.64492993  0.90422699  0.59040600  1  -0.011048  0  -0.082927  -0.127692  0  3.948665  0
C  C88  1  0.41333160  0.55842239  0.98303988  1  0.020616  0  -0.076496  -0.145962  0  3.92792  0
C  C89  1  0.08666297  0.44157707  0.48304097  1  0.020923  0  -0.076574  -0.14619  0  3.928064  0
C  C90  1  0.91333778  0.94157816  0.01695786  1  0.020542  0  -0.07658  -0.146146  0  3.928009  0
C  C91  1  0.58666880  0.05842320  0.51696039  1  0.020608  0  -0.076502  -0.146005  0  3.92788  0
C  C92  1  0.65510757  0.71787471  0.06018148  1  0.005458  0  -0.088736  -0.122791  0  3.969024  0
C  C93  1  0.84489172  0.28212588  0.56018054  1  0.005156  0  -0.088749  -0.122741  0  3.968982  0
C  C94  1  0.15510935  0.78212533  0.93981851  1  0.005149  0  -0.088799  -0.122906  0  3.969062  0
C  C95  1  0.34489368  0.21787492  0.43981856  1  0.005461  0  -0.088749  -0.12282  0  3.969073  0
C  C96  1  0.58102291  0.69310951  0.91775412  1  0.604488  0  0.138857  0.112245  0  3.920023  0
C  C97  1  0.91897619  0.30688948  0.41775462  1  0.604741  0  0.13881  0.112131  0  3.920071  0
C  C98  1  0.08102487  0.80688983  0.08224838  1  0.604849  0  0.13889  0.11228  0  3.920069  0
C  C99  1  0.41897720  0.19310970  0.58224554  1  0.604472  0  0.138869  0.112213  0  3.920028  0
C  C100  1  0.52951474  0.85717397  0.98951237  1  -0.022513  0  -0.084542  -0.109473  0  3.957551  0
C  C101  1  0.97047803  0.14282425  0.48951872  1  -0.022166  0  -0.084504  -0.109495  0  3.957557  0
C  C102  1  0.02952456  0.64282388  0.01048133  1  -0.022063  0  -0.084488  -0.109444  0  3.957635  0
C  C103  1  0.47048616  0.35717335  0.51048787  1  -0.022524  0  -0.084471  -0.109435  0  3.957527  0
C  C104  1  0.34352452  0.46186822  0.97917135  1  -0.097141  0  -0.065065  -0.017471  0  3.939404  0
C  C105  1  0.15647009  0.53813125  0.47917290  1  -0.09726  0  -0.064981  -0.01734  0  3.939406  0
C  C106  1  0.84352924  0.03813180  0.02082775  1  -0.097154  0  -0.064994  -0.017368  0  3.939336  0
C  C107  1  0.65647615  0.96186955  0.52082888  1  -0.097099  0  -0.065058  -0.017447  0  3.939321  0
C  C108  1  0.17199942  0.93617313  0.70214250  1  0.468799  0  0.047614  0.084679  0  3.950895  0
C  C109  1  0.32800063  0.06382638  0.20214258  1  0.468797  0  0.047645  0.084663  0  3.950945  0
C  C110  1  0.67199980  0.56382535  0.29785747  1  0.468803  0  0.047621  0.084626  0  3.951011  0
C  C111  1  0.82800014  0.43617289  0.79785774  1  0.468786  0  0.047655  0.084706  0  3.950851  0
C  C112  1  0.66288768  0.77865879  0.12831402  1  -0.085525  0  -0.095433  -0.076769  0  4.006535  0
C  C113  1  0.83710531  0.22134716  0.62831726  1  -0.076596  0  -0.095475  -0.076754  0  4.006594  0
C  C114  1  0.16289706  0.72134661  0.87168240  1  -0.076612  0  -0.09544  -0.076652  0  4.00649  0
C  C115  1  0.33711343  0.27865901  0.37168601  1  -0.085534  0  -0.09545  -0.076765  0  4.006484  0
C  C116  1  0.58870053  0.75672642  0.99024113  1  -0.030155  0  -0.00718  0.048198  0  3.995961  0
C  C117  1  0.91129223  0.24327410  0.49024283  1  -0.030577  0  -0.007157  0.048191  0  3.996081  0
C  C118  1  0.08870780  0.74327445  0.00975661  1  -0.030573  0  -0.007147  0.048221  0  3.995891  0
C  C119  1  0.41130059  0.25672586  0.50975912  1  -0.030174  0  -0.007221  0.048227  0  3.995978  0
C  C120  1  0.59870086  0.87700533  0.12799451  1  0.003098  0  -0.094596  -0.071793  0  3.986175  0
C  C121  1  0.90128631  0.12299985  0.62800002  1  -0.004772  0  -0.094675  -0.071961  0  3.986394  0
C  C122  1  0.09871511  0.62299936  0.87199965  1  -0.005232  0  -0.094703  -0.072018  0  3.986415  0
C  C123  1  0.40130004  0.37700550  0.37200551  1  0.00309  0  -0.094564  -0.071771  0  3.986174  0
C  C124  1  0.53161385  0.91589475  0.05861288  1  -0.110457  0  -0.095563  -0.083124  0  4.018067  0
C  C125  1  0.96837497  0.08410814  0.55862065  1  -0.110757  0  -0.095552  -0.082948  0  4.018248  0
C  C126  1  0.03162654  0.58410848  0.94137962  1  -0.11069  0  -0.095567  -0.083024  0  4.018378  0
C  C127  1  0.46838696  0.41589484  0.44138714  1  -0.110458  0  -0.09557  -0.083097  0  4.018014  0
Br  Br128  1  0.44705214  0.62004045  0.64771047  1  -0.629142  0  -0.337483  -0.505172  0  1.083998  0
Br  Br129  1  0.05295062  0.37995907  0.14771103  1  -0.629145  0  -0.33747  -0.505153  0  1.083985  0
Br  Br130  1  0.94705143  0.87995777  0.35228959  1  -0.629144  0  -0.337465  -0.505154  0  1.084001  0
Br  Br131  1  0.55294929  0.12004047  0.85228920  1  -0.629149  0  -0.337482  -0.505177  0  1.083996  0
N  N132  1  0.74248132  0.80051962  0.84530794  1  -0.669912  0  -0.241337  -0.316866  0  3.217563  0
N  N133  1  0.75751596  0.19947862  0.34530755  1  -0.670004  0  -0.241325  -0.316823  0  3.217541  0
N  N134  1  0.24248300  0.69947880  0.15469130  1  -0.669993  0  -0.241335  -0.316841  0  3.217572  0
N  N135  1  0.25751738  0.30051919  0.65469231  1  -0.669905  0  -0.24134  -0.316859  0  3.217596  0
N  N136  1  0.64870299  0.71762047  0.85077384  1  -0.821152  0  -0.222068  -0.11571  0  3.668166  0
N  N137  1  0.85129658  0.28237700  0.35077505  1  -0.821097  0  -0.222065  -0.115662  0  3.667987  0
N  N138  1  0.14870453  0.78237803  0.14922439  1  -0.821179  0  -0.222127  -0.115764  0  3.668324  0
N  N139  1  0.35129706  0.21761995  0.64922641  1  -0.821146  0  -0.222051  -0.115678  0  3.66815  0
N  N140  1  0.18771131  0.01521987  0.75322367  1  -1.235582  0  -0.327174  -0.206089  0  3.559093  0
N  N141  1  0.31228605  0.98477963  0.25322311  1  -1.235625  0  -0.327093  -0.205909  0  3.559089  0
N  N142  1  0.68771228  0.48478031  0.24677691  1  -1.235628  0  -0.327086  -0.205897  0  3.559201  0
N  N143  1  0.81228686  0.51521948  0.74677660  1  -1.235593  0  -0.327136  -0.205988  0  3.558987  0
N  N144  1  0.50439049  0.53884597  0.84917914  1  -1.25732  0  -0.326062  -0.274362  0  3.544935  0
N  N145  1  0.99560792  0.46114996  0.34917948  1  -1.257322  0  -0.326105  -0.274419  0  3.545116  0
N  N146  1  0.00439162  0.96115113  0.15081935  1  -1.257238  0  -0.326075  -0.274373  0  3.545136  0
N  N147  1  0.49560996  0.03884608  0.65082113  1  -1.257263  0  -0.326051  -0.274365  0  3.544945  0
O  O148  1  0.78639313  0.74067391  0.71555699  1  -1.170609  0  -0.306456  -0.499919  0  2.303479  0
O  O149  1  0.71360740  0.25932512  0.21555787  1  -1.170629  0  -0.306427  -0.499867  0  2.303508  0
O  O150  1  0.28639143  0.75932446  0.28444276  1  -1.170624  0  -0.30643  -0.499834  0  2.303468  0
O  O151  1  0.21360687  0.24067427  0.78444266  1  -1.170635  0  -0.306449  -0.499885  0  2.303485  0
