# generated using pymatgen
data_CuH28C20S4(NO)4
_symmetry_space_group_name_H-M   'P 1'
_cell_length_a   7.35917317
_cell_length_b   10.42181026
_cell_length_c   10.73838358
_cell_angle_alpha   96.18210710
_cell_angle_beta   92.37519616
_cell_angle_gamma   104.37222736
_symmetry_Int_Tables_number   1
_chemical_formula_structural   CuH28C20S4(NO)4
_chemical_formula_sum   'Cu1 H28 C20 S4 N4 O4'
_cell_volume   791.18531036
_cell_formula_units_Z   1
loop_
 _symmetry_equiv_pos_site_id
 _symmetry_equiv_pos_as_xyz
  1  'x, y, z'
loop_
 _atom_site_type_symbol
 _atom_site_label
 _atom_site_symmetry_multiplicity
 _atom_site_fract_x
 _atom_site_fract_y
 _atom_site_fract_z
 _atom_site_occupancy
 _atom_site_hle17_ddec_charge
 _atom_site_hle17_ddec_spin_density
 _atom_site_hle17_ddec_sum_bond_order
 _atom_site_hle17_magmom
 _atom_site_hse06_10hf_ddec_charge
 _atom_site_hse06_10hf_ddec_spin_density
 _atom_site_hse06_10hf_ddec_sum_bond_order
 _atom_site_hse06_10hf_magmom
 _atom_site_hse06_ddec_charge
 _atom_site_hse06_ddec_spin_density
 _atom_site_hse06_ddec_sum_bond_order
 _atom_site_hse06_magmom
 _atom_site_pbe_cm5_charge
 _atom_site_pbe_ddec_charge
 _atom_site_pbe_ddec_spin_density
 _atom_site_pbe_ddec_sum_bond_order
 _atom_site_pbe_magmom
Cu  Cu0  1  0.50000354  0.50001167  0.50000231  1  0.880682  0.701134  1.981246  0.515  0.872371  0.794155  2.375183  0.644  0.948594  0.85674  2.314821  0.725  0.809407  0.825091  0.745598  2.415263  0.585
H  H1  1  0.71399513  0.35995828  0.97330760  1  0.359366  2e-06  0.856389  0.0  0.349949  -2e-06  0.907055  0.0  0.357179  4e-06  0.899505  0.0  0.31601  0.344755  4e-06  0.912596  0.0
H  H2  1  0.28600533  0.64002505  0.02669897  1  0.359506  4e-06  0.856346  0.0  0.350149  -2e-06  0.90691  0.0  0.357378  4e-06  0.899359  0.0  0.316074  0.344956  4e-06  0.91245  0.0
H  H3  1  0.55788413  0.46187961  0.76911960  1  0.095015  0.000952  0.955382  0.002  0.096734  0.000939  1.030159  0.001  0.099442  0.000644  1.026644  0.001  0.117752  0.094598  0.001183  1.032927  0.002
H  H4  1  0.44212392  0.53813171  0.23088372  1  0.095111  0.000951  0.955377  0.002  0.096717  0.000939  1.030268  0.001  0.099419  0.000644  1.026765  0.001  0.117765  0.094584  0.001183  1.033038  0.002
H  H5  1  0.35806720  0.42466007  0.95144978  1  0.098996  0.000545  0.97124  0.0  0.109257  0.000556  1.033234  0.001  0.111847  0.0004  1.03301  0.0  0.103914  0.107304  0.000682  1.033775  0.001
H  H6  1  0.64193192  0.57532732  0.04854604  1  0.09896  0.000545  0.971219  0.0  0.109241  0.000557  1.03319  0.001  0.111829  0.0004  1.032971  0.0  0.10393  0.107288  0.000682  1.033732  0.001
H  H7  1  0.89455747  0.47130556  0.71422707  1  0.136091  0.000501  0.956594  0.001  0.141807  0.000538  1.019744  0.001  0.144842  0.000383  1.019119  0.0  0.113494  0.139429  0.000633  1.020625  0.001
H  H8  1  0.10543690  0.52867984  0.28577400  1  0.136006  0.000503  0.95652  0.001  0.141776  0.000538  1.01965  0.001  0.144815  0.000383  1.019017  0.0  0.113459  0.139399  0.000633  1.02053  0.001
H  H9  1  0.11716230  0.50904972  0.54474750  1  0.089646  0.000976  0.965231  0.002  0.096427  0.000984  1.029787  0.001  0.097853  0.000684  1.028187  0.001  0.121453  0.095197  0.001189  1.031117  0.002
H  H10  1  0.88283851  0.49095663  0.45525790  1  0.089774  0.000975  0.96523  0.002  0.096584  0.000984  1.02972  0.001  0.098009  0.000684  1.028118  0.001  0.121488  0.095353  0.001188  1.031052  0.002
H  H11  1  0.91544371  0.29786767  0.10427234  1  0.109717  0.000146  0.969843  0.0  0.127229  1.6e-05  1.037033  0.0  0.128677  -2e-06  1.037478  0.0  0.086857  0.126116  5.5e-05  1.036743  0.0
H  H12  1  0.08456508  0.70211262  0.89572850  1  0.109684  0.000144  0.969998  0.0  0.127189  1.6e-05  1.037184  0.0  0.128636  -3e-06  1.03763  0.0  0.086833  0.126073  5.5e-05  1.036891  0.0
H  H13  1  0.15830755  0.35435180  0.08870642  1  0.125461  -4e-06  0.948939  0.0  0.146248  3.4e-05  1.0087  0.0  0.147811  1.8e-05  1.008412  0.0  0.094632  0.144987  3.3e-05  1.009125  0.0
H  H14  1  0.84170563  0.64562949  0.91128905  1  0.125563  -2e-06  0.949037  0.0  0.146305  3.4e-05  1.008844  0.0  0.147863  1.8e-05  1.008565  0.0  0.094682  0.145046  3.3e-05  1.009266  0.0
H  H15  1  0.01611335  0.23041465  0.97284313  1  0.123309  -8e-06  0.932396  0.0  0.147605  -1.1e-05  0.985634  0.0  0.149201  -1.2e-05  0.985194  0.0  0.094409  0.146615  -9e-06  0.985361  0.0
H  H16  1  0.98388688  0.76956473  0.02715182  1  0.123374  -5e-06  0.93252  0.0  0.147711  -1.1e-05  0.9857  0.0  0.149311  -1.2e-05  0.985255  0.0  0.094468  0.146724  -9e-06  0.985426  0.0
H  H17  1  0.42928053  0.19143509  0.73845080  1  0.141817  -3.4e-05  0.935145  0.0  0.162965  -2.4e-05  0.98655  0.0  0.165494  -2e-05  0.985524  0.0  0.099096  0.161218  -2.8e-05  0.987293  0.0
H  H18  1  0.57071789  0.80857230  0.26155000  1  0.141812  -3.3e-05  0.935144  0.0  0.16296  -2.3e-05  0.986551  0.0  0.165497  -2e-05  0.985515  0.0  0.099103  0.161213  -2.8e-05  0.987295  0.0
H  H19  1  0.34703497  0.03306185  0.64026803  1  0.134289  2e-05  0.978753  0.0  0.1526  2.5e-05  1.04235  0.0  0.15493  6e-06  1.041373  0.0  0.091082  0.150783  4.3e-05  1.043336  0.0
H  H20  1  0.65296270  0.96694355  0.35973161  1  0.134295  1.7e-05  0.978765  0.0  0.152606  2.4e-05  1.042358  0.0  0.154938  6e-06  1.041379  0.0  0.091087  0.150793  4.3e-05  1.043345  0.0
H  H21  1  0.27528196  0.17624808  0.59910810  1  0.149473  -3.4e-05  0.939295  0.0  0.167915  -3.1e-05  0.995719  0.0  0.169629  -4e-05  0.996327  0.0  0.100569  0.166556  -1.4e-05  0.995586  0.0
H  H22  1  0.72471613  0.82375830  0.40089723  1  0.149536  -3.6e-05  0.939276  0.0  0.167931  -3.1e-05  0.995751  0.0  0.169648  -4e-05  0.996354  0.0  0.100592  0.166574  -1.4e-05  0.995616  0.0
H  H23  1  0.88147912  0.14089966  0.59388309  1  0.138444  0.000311  0.964069  0.0  0.152784  0.000107  1.030585  0.0  0.154911  5.3e-05  1.030815  0.0  0.091032  0.151119  0.000157  1.030613  0.0
H  H24  1  0.11850659  0.85910282  0.40611595  1  0.138336  0.00031  0.964038  0.0  0.152724  0.000107  1.03051  0.0  0.154842  5.3e-05  1.030745  0.0  0.091004  0.151051  0.000157  1.030534  0.0
H  H25  1  0.69508094  0.01690943  0.64555486  1  0.131228  -7.5e-05  0.972416  0.0  0.146607  -6.9e-05  1.03735  0.0  0.148552  -5.7e-05  1.037251  0.0  0.092478  0.145518  -7.5e-05  1.036682  0.0
H  H26  1  0.30489778  0.98308913  0.35443613  1  0.131203  -7.5e-05  0.972514  0.0  0.146616  -6.9e-05  1.037423  0.0  0.14856  -5.7e-05  1.037325  0.0  0.092487  0.145528  -7.5e-05  1.036756  0.0
H  H27  1  0.77090883  0.18107311  0.73571120  1  0.150071  3e-06  0.941687  0.0  0.167625  2e-06  0.997988  0.0  0.17068  1e-06  0.996061  0.0  0.098517  0.165345  4e-06  0.999493  0.0
H  H28  1  0.22908489  0.81892531  0.26428850  1  0.150072  2e-06  0.941675  0.0  0.167657  2e-06  0.997938  0.0  0.170712  1e-06  0.99601  0.0  0.09852  0.165377  4e-06  0.999448  0.0
C  C29  1  0.41072472  0.46463651  0.76262903  1  0.12139  -0.009955  3.710262  -0.007  0.094277  -0.002818  3.96601  -0.002  0.102993  -0.004652  3.985313  -0.003  0.043437  0.088633  -0.001406  3.953391  -0.001
C  C30  1  0.58927739  0.53536986  0.23737175  1  0.12122  -0.009931  3.710564  -0.007  0.094219  -0.002817  3.966354  -0.002  0.102934  -0.004649  3.985657  -0.003  0.043425  0.088571  -0.001404  3.953741  -0.001
C  C31  1  0.29811959  0.44465533  0.86339498  1  -0.19212  0.008473  3.749701  0.009  -0.207833  0.003812  3.991765  0.005  -0.216536  0.00346  4.01383  0.004  -0.096688  -0.202312  0.004181  3.977233  0.005
C  C32  1  0.70187699  0.55533606  0.13660494  1  -0.192162  0.008462  3.749519  0.009  -0.207869  0.003813  3.991531  0.005  -0.216578  0.003462  4.013609  0.004  -0.09674  -0.202349  0.004182  3.977013  0.005
C  C33  1  0.10833345  0.44661081  0.84940713  1  0.068033  -0.011141  3.684319  -0.007  0.085412  -0.004828  3.903519  -0.003  0.089305  -0.005427  3.925828  -0.003  0.008509  0.082824  -0.004396  3.888674  -0.003
C  C34  1  0.89167514  0.55337247  0.15059776  1  0.067966  -0.011126  3.684594  -0.007  0.08543  -0.004831  3.903823  -0.003  0.089294  -0.005428  3.926089  -0.003  0.008443  0.082856  -0.004396  3.889005  -0.003
C  C35  1  0.04050702  0.47030624  0.73275589  1  -0.12817  0.00848  3.650755  0.009  -0.143714  0.003923  3.888675  0.005  -0.15178  0.003602  3.910058  0.004  -0.07636  -0.13878  0.004205  3.875093  0.005
C  C36  1  0.95948504  0.52968422  0.26723637  1  -0.127956  0.008464  3.651191  0.009  -0.143598  0.003923  3.889156  0.005  -0.151664  0.003602  3.910539  0.004  -0.076283  -0.138661  0.004204  3.875573  0.005
C  C37  1  0.16158688  0.48908222  0.63675465  1  0.142995  -0.010235  3.667796  -0.007  0.114911  -0.003059  3.918489  -0.002  0.124108  -0.004836  3.937277  -0.003  0.056172  0.108749  -0.001727  3.906557  -0.001
C  C38  1  0.83841587  0.51092213  0.36324778  1  0.142853  -0.010223  3.667673  -0.007  0.114798  -0.003061  3.918413  -0.002  0.124001  -0.004839  3.937197  -0.003  0.056224  0.108638  -0.001729  3.90648  -0.001
C  C39  1  0.98328129  0.42866660  0.95808632  1  0.250029  -0.000147  3.55899  0.0  0.251185  -0.000241  3.803604  0.0  0.256329  -0.000309  3.815406  0.0  0.073962  0.247464  -0.000144  3.795631  0.0
C  C40  1  0.01672074  0.57131374  0.04191623  1  0.250179  -0.000143  3.55904  0.0  0.251089  -0.000241  3.803918  0.0  0.25641  -0.000312  3.815495  0.0  0.074023  0.247275  -0.000144  3.796073  0.0
C  C41  1  0.02124016  0.32193944  0.03536076  1  -0.394087  -9.3e-05  3.711381  0.0  -0.483474  -7.6e-05  3.954805  0.0  -0.486364  -0.000121  3.963107  0.0  -0.252028  -0.481061  -4e-06  3.948658  0.0
C  C42  1  0.97876258  0.67804696  0.96462665  1  -0.394256  -9.9e-05  3.711731  0.0  -0.483611  -7.5e-05  3.955232  0.0  -0.486533  -0.000119  3.963484  0.0  -0.25215  -0.481183  -4e-06  3.949113  0.0
C  C43  1  0.17216751  0.27185638  0.37156727  1  0.286635  -0.01432  4.058113  -0.005  0.289717  0.001576  4.370374  0.008  0.316288  -5.2e-05  4.383321  0.006  0.133502  0.271634  0.002622  4.360557  0.009
C  C44  1  0.82784555  0.72816493  0.62843168  1  0.286603  -0.014323  4.058234  -0.005  0.289698  0.001571  4.370492  0.008  0.316266  -5.5e-05  4.383433  0.006  0.133453  0.271615  0.002616  4.360675  0.009
C  C45  1  0.38949457  0.14198509  0.64230588  1  -0.429359  -0.0  3.57521  0.0  -0.49698  -1.6e-05  3.811786  0.0  -0.500761  -4e-05  3.8167  0.0  -0.24084  -0.494272  2.5e-05  3.808674  0.0
C  C46  1  0.61049969  0.85802931  0.35769932  1  -0.429407  1.1e-05  3.575275  0.0  -0.496982  -2.3e-05  3.811825  0.0  -0.500769  -4.3e-05  3.816736  0.0  -0.240856  -0.494272  2.5e-05  3.808715  0.0
C  C47  1  0.75046061  0.12425710  0.64181335  1  -0.435962  0.00015  3.605473  0.0  -0.501878  9e-06  3.844264  0.0  -0.505807  -5.3e-05  3.848802  0.0  -0.243739  -0.498692  0.000119  3.84045  0.0
C  C48  1  0.24953651  0.87575433  0.35818134  1  -0.43581  0.000155  3.605393  0.0  -0.501819  6e-06  3.844139  0.0  -0.505734  -5.3e-05  3.848686  0.0  -0.243706  -0.498625  0.000119  3.84032  0.0
S  S49  1  0.99973919  0.14147305  0.33328676  1  -0.356294  0.038332  1.959541  0.04  -0.362356  0.004635  2.228811  0.007  -0.380631  0.000315  2.224097  0.003  -0.193993  -0.348627  0.010533  2.23067  0.012
S  S50  1  0.00028269  0.85854618  0.66671868  1  -0.356363  0.038317  1.959382  0.04  -0.362433  0.004627  2.228636  0.007  -0.380706  0.000311  2.223916  0.003  -0.194023  -0.348704  0.010532  2.230488  0.012
S  S51  1  0.58842085  0.18461227  0.54794067  1  0.666492  -0.000419  3.662238  0.0  0.648546  -0.000431  4.112693  0.0  0.66451  -0.00039  4.109819  0.0  0.270712  0.637139  -0.000367  4.114339  0.0
S  S52  1  0.41157324  0.81539816  0.45205944  1  0.666269  -0.000424  3.662233  0.0  0.648295  -0.000426  4.112724  0.0  0.664262  -0.000389  4.109848  0.0  0.270604  0.63689  -0.000367  4.114362  0.0
N  N53  1  0.34200459  0.48505591  0.65083944  1  -0.280986  0.076358  3.33766  0.098  -0.230634  0.058563  3.618383  0.082  -0.261446  0.046628  3.642752  0.07  -0.33682  -0.211787  0.066012  3.60293  0.088
N  N54  1  0.65799163  0.51495649  0.34916373  1  -0.280823  0.076357  3.337666  0.098  -0.230551  0.058568  3.618454  0.082  -0.261364  0.046633  3.642824  0.07  -0.336853  -0.2117  0.066016  3.603003  0.088
N  N55  1  0.29818402  0.36920888  0.39717187  1  -0.552064  0.062182  3.037884  0.076  -0.547633  0.040291  3.355323  0.053  -0.577523  0.03318  3.359196  0.046  -0.435705  -0.528013  0.044755  3.352452  0.056
N  N56  1  0.70183383  0.63082542  0.60282583  1  -0.55199  0.062164  3.038013  0.076  -0.547518  0.040285  3.355341  0.053  -0.577403  0.033174  3.359209  0.046  -0.435643  -0.527906  0.044748  3.352475  0.056
O  O57  1  0.79183790  0.38811157  0.90496018  1  -0.54626  0.000163  2.023649  0.0  -0.507887  0.000167  2.233552  0.0  -0.522428  0.00011  2.224603  0.0  -0.380521  -0.49765  0.000176  2.239902  0.0
O  O58  1  0.20815378  0.61186283  0.09504241  1  -0.546396  0.000162  2.0237  0.0  -0.508028  0.000168  2.233629  0.0  -0.522598  0.000111  2.224622  0.0  -0.380548  -0.497773  0.000177  2.240011  0.0
O  O59  1  0.65868844  0.33500103  0.56708910  1  -0.64361  -0.001692  1.976808  0.0  -0.60363  -0.001642  2.262654  0.0  -0.62567  -0.001841  2.252598  0.0  -0.35562  -0.587347  -0.001235  2.268641  0.0
O  O60  1  0.34130358  0.66500740  0.43291353  1  -0.64343  -0.001694  1.976735  0.0  -0.603439  -0.001639  2.262605  0.0  -0.6255  -0.001841  2.252589  0.0  -0.355546  -0.58716  -0.001235  2.26859  0.0
