# generated using pymatgen
data_ZnH11C14(NO2)2
_symmetry_space_group_name_H-M   'P 1'
_cell_length_a   7.49262107
_cell_length_b   13.25601798
_cell_length_c   16.33356523
_cell_angle_alpha   112.94989490
_cell_angle_beta   90.01814181
_cell_angle_gamma   106.41218504
_symmetry_Int_Tables_number   1
_chemical_formula_structural   ZnH11C14(NO2)2
_chemical_formula_sum   'Zn4 H44 C56 N8 O16'
_cell_volume   1421.75335336
_cell_formula_units_Z   4
loop_
 _symmetry_equiv_pos_site_id
 _symmetry_equiv_pos_as_xyz
  1  'x, y, z'
loop_
 _atom_site_type_symbol
 _atom_site_label
 _atom_site_symmetry_multiplicity
 _atom_site_fract_x
 _atom_site_fract_y
 _atom_site_fract_z
 _atom_site_occupancy
 _atom_site_hle17_bader_spin_density
 _atom_site_hle17_ddec_charge
 _atom_site_hle17_ddec_spin_density
 _atom_site_hle17_ddec_sum_bond_order
 _atom_site_hle17_magmom
 _atom_site_hse06_10hf_bader_spin_density
 _atom_site_hse06_10hf_ddec_charge
 _atom_site_hse06_10hf_ddec_spin_density
 _atom_site_hse06_10hf_ddec_sum_bond_order
 _atom_site_hse06_10hf_magmom
 _atom_site_hse06_bader_spin_density
 _atom_site_hse06_ddec_charge
 _atom_site_hse06_ddec_spin_density
 _atom_site_hse06_ddec_sum_bond_order
 _atom_site_hse06_magmom
 _atom_site_pbe_bader_spin_density
 _atom_site_pbe_cm5_charge
 _atom_site_pbe_ddec_charge
 _atom_site_pbe_ddec_spin_density
 _atom_site_pbe_ddec_sum_bond_order
 _atom_site_pbe_magmom
Zn  Zn0  1  0.05180532  0.67445546  0.82320974  1  0  1.017586  0  1.791979  0  0  0.826852  0  2.258994  0  0  0.874402  0  2.204108  0  0  0.689755  0.793734  0  2.29668  0
Zn  Zn1  1  0.37714270  0.32550851  0.67676326  1  0  1.016865  0  1.793642  0  0  0.82632  0  2.261098  0  0  0.873787  0  2.206249  0  0  0.689651  0.79325  0  2.298751  0
Zn  Zn2  1  0.94819782  0.32554770  0.17679008  1  0  1.017621  0  1.791921  0  0  0.826931  0  2.258921  0  0  0.874482  0  2.204032  0  0  0.68976  0.793805  0  2.296626  0
Zn  Zn3  1  0.62285343  0.67448864  0.32323401  1  0  1.016851  0  1.793671  0  0  0.826302  0  2.261097  0  0  0.873767  0  2.206251  0  0  0.68964  0.793235  0  2.298749  0
H  H4  1  0.79722281  0.47180638  0.77289657  1  0  0.325984  0  0.901467  0  0  0.309238  0  0.964347  0  0  0.316875  0  0.958087  0  0  0.295153  0.303764  0  0.968843  0
H  H5  1  0.32524457  0.52821557  0.72726043  1  0  0.325708  0  0.903373  0  0  0.308689  0  0.966667  0  0  0.316356  0  0.960373  0  0  0.294262  0.303197  0  0.971179  0
H  H6  1  0.20277986  0.52819850  0.22710441  1  0  0.326086  0  0.90139  0  0  0.309346  0  0.964267  0  0  0.316984  0  0.958005  0  0  0.295193  0.303873  0  0.968761  0
H  H7  1  0.67474711  0.47178068  0.27274146  1  0  0.325741  0  0.903434  0  0  0.308756  0  0.966661  0  0  0.316423  0  0.960363  0  0  0.29426  0.303265  0  0.971171  0
H  H8  1  0.96098826  0.48606112  0.84952599  1  0  0.334277  0  0.891165  0  0  0.320121  0  0.948239  0  0  0.327569  0  0.942153  0  0  0.299271  0.314812  0  0.952582  0
H  H9  1  0.47446360  0.51391126  0.65053645  1  0  0.334406  0  0.891847  0  0  0.320737  0  0.948075  0  0  0.328109  0  0.942075  0  0  0.299648  0.31547  0  0.95238  0
H  H10  1  0.03901799  0.51394291  0.15047288  1  0  0.334325  0  0.891125  0  0  0.320196  0  0.948169  0  0  0.327644  0  0.942081  0  0  0.299295  0.314888  0  0.952509  0
H  H11  1  0.52553027  0.48608671  0.34946537  1  0  0.334421  0  0.891805  0  0  0.320732  0  0.948085  0  0  0.328106  0  0.942074  0  0  0.299622  0.315466  0  0.952391  0
H  H12  1  0.45620569  0.69042934  0.08429267  1  0  0.115734  0  0.941162  0  0  0.122526  0  1.005246  0  0  0.127517  0  1.000434  0  0  0.104786  0.118921  0  1.008749  0
H  H13  1  0.76560449  0.30961755  0.41554998  1  0  0.115187  0  0.940726  0  0  0.122313  0  1.004414  0  0  0.127385  0  0.999508  0  0  0.104661  0.118651  0  1.007979  0
H  H14  1  0.54379004  0.30956432  0.91570777  1  0  0.11576  0  0.941105  0  0  0.122575  0  1.00516  0  0  0.127565  0  1.000349  0  0  0.104803  0.118953  0  1.008684  0
H  H15  1  0.23440111  0.69037184  0.58444603  1  0  0.115151  0  0.940727  0  0  0.122304  0  1.004389  0  0  0.127377  0  0.99948  0  0  0.10464  0.118643  0  1.007954  0
H  H16  1  0.91940052  0.55654594  0.00817446  1  0  0.114682  0  0.951053  0  0  0.123481  0  1.015283  0  0  0.127402  0  1.011987  0  0  0.107833  0.120612  0  1.017796  0
H  H17  1  0.36261156  0.44377029  0.49212145  1  0  0.114361  0  0.95098  0  0  0.122971  0  1.015557  0  0  0.126898  0  1.012244  0  0  0.10776  0.120108  0  1.018066  0
H  H18  1  0.08060391  0.44345980  0.99182741  1  0  0.114663  0  0.951029  0  0  0.123423  0  1.015312  0  0  0.127342  0  1.012018  0  0  0.107818  0.120555  0  1.017824  0
H  H19  1  0.63739242  0.55623456  0.50788381  1  0  0.114318  0  0.950921  0  0  0.122932  0  1.015504  0  0  0.126859  0  1.012191  0  0  0.107722  0.120068  0  1.018013  0
H  H20  1  0.58325242  0.58943949  0.81223723  1  0  0.112597  0  0.963674  0  0  0.122239  0  1.029461  0  0  0.125791  0  1.026697  0  0  0.109464  0.1196  0  1.031624  0
H  H21  1  0.99314266  0.41032053  0.68767011  1  0  0.112837  0  0.96392  0  0  0.122248  0  1.029823  0  0  0.125918  0  1.02692  0  0  0.109561  0.119544  0  1.03206  0
H  H22  1  0.41674637  0.41055763  0.18776249  1  0  0.112568  0  0.963681  0  0  0.122212  0  1.029487  0  0  0.125761  0  1.026721  0  0  0.109468  0.119574  0  1.031647  0
H  H23  1  0.00684691  0.58966884  0.31232773  1  0  0.112765  0  0.963943  0  0  0.122217  0  1.029811  0  0  0.125889  0  1.026906  0  0  0.109544  0.119513  0  1.032047  0
H  H24  1  0.83842697  0.80042470  0.77670040  1  0  0.085154  0  0.955807  0  0  0.094876  0  1.014646  0  0  0.097347  0  1.012242  0  0  0.119147  0.093017  0  1.01642  0
H  H25  1  0.03836335  0.19919036  0.72308949  1  0  0.084887  0  0.956916  0  0  0.094419  0  1.015845  0  0  0.096889  0  1.013449  0  0  0.118664  0.092539  0  1.017651  0
H  H26  1  0.16157130  0.19957672  0.22330192  1  0  0.085109  0  0.955829  0  0  0.094827  0  1.014677  0  0  0.097298  0  1.012273  0  0  0.119125  0.092969  0  1.016447  0
H  H27  1  0.96163988  0.80080765  0.27690806  1  0  0.084968  0  0.956786  0  0  0.094401  0  1.015818  0  0  0.096871  0  1.013423  0  0  0.118662  0.092523  0  1.017623  0
H  H28  1  0.63095073  0.91750812  0.84630371  1  0  0.110709  0  0.938982  0  0  0.125371  0  0.988334  0  0  0.128282  0  0.988034  0  0  0.113247  0.123231  0  0.988825  0
H  H29  1  0.71389929  0.08188374  0.65349304  1  0  0.110563  0  0.938295  0  0  0.12531  0  0.987653  0  0  0.128229  0  0.987314  0  0  0.113331  0.123196  0  0.988117  0
H  H30  1  0.36905723  0.08249933  0.15369993  1  0  0.110778  0  0.93887  0  0  0.12541  0  0.988251  0  0  0.128334  0  0.987934  0  0  0.113264  0.123267  0  0.988745  0
H  H31  1  0.28609860  0.91811426  0.34650574  1  0  0.110542  0  0.938293  0  0  0.125297  0  0.987642  0  0  0.128217  0  0.987304  0  0  0.113309  0.123184  0  0.988105  0
H  H32  1  0.82058135  0.92945604  0.10053882  1  0  0.109182  0  0.924736  0  0  0.123752  0  0.974952  0  0  0.12666  0  0.974849  0  0  0.111803  0.121629  0  0.975259  0
H  H33  1  0.89078716  0.07070696  0.39934946  1  0  0.109204  0  0.925625  0  0  0.123733  0  0.975925  0  0  0.12665  0  0.975821  0  0  0.111686  0.121611  0  0.976222  0
H  H34  1  0.17941920  0.07054193  0.89946300  1  0  0.109145  0  0.92477  0  0  0.12376  0  0.974957  0  0  0.126668  0  0.974852  0  0  0.111802  0.121639  0  0.975262  0
H  H35  1  0.10920617  0.92929794  0.60064969  1  0  0.109171  0  0.925572  0  0  0.123696  0  0.975892  0  0  0.126614  0  0.975787  0  0  0.111674  0.121576  0  0.976191  0
H  H36  1  0.02788532  0.81358661  0.01950671  1  0  0.095542  0  0.947666  0  0  0.104877  0  1.007471  0  0  0.107463  0  1.005139  0  0  0.120873  0.102926  0  1.009221  0
H  H37  1  0.21407881  0.18661108  0.48036748  1  0  0.095644  0  0.948032  0  0  0.104887  0  1.007683  0  0  0.107471  0  1.005365  0  0  0.120788  0.10292  0  1.009462  0
H  H38  1  0.97211519  0.18641396  0.98049411  1  0  0.095557  0  0.947656  0  0  0.104901  0  1.007446  0  0  0.107488  0  1.005115  0  0  0.120895  0.102951  0  1.009195  0
H  H39  1  0.78591857  0.81339125  0.51962901  1  0  0.095561  0  0.948166  0  0  0.104824  0  1.007794  0  0  0.107408  0  1.005476  0  0  0.120756  0.102858  0  1.009572  0
H  H40  1  0.54541447  0.98601274  0.08638190  1  0  0.084398  0  0.922686  0  0  0.105009  0  0.975019  0  0  0.106411  0  0.974161  0  0  0.101719  0.103976  0  0.975704  0
H  H41  1  0.55909781  0.01383691  0.41352909  1  0  0.08446  0  0.922156  0  0  0.104534  0  0.975238  0  0  0.105921  0  0.974341  0  0  0.101436  0.103506  0  0.975954  0
H  H42  1  0.45458956  0.01398954  0.91362131  1  0  0.084444  0  0.922698  0  0  0.105062  0  0.974993  0  0  0.106465  0  0.974128  0  0  0.101746  0.104028  0  0.975682  0
H  H43  1  0.44090530  0.98616886  0.58646911  1  0  0.084527  0  0.921976  0  0  0.104569  0  0.975077  0  0  0.105954  0  0.97418  0  0  0.101448  0.103542  0  0.975792  0
H  H44  1  0.67301849  0.09842438  0.05704434  1  0  0.090831  0  0.946774  0  0  0.105182  0  1.016565  0  0  0.10633  0  1.016091  0  0  0.100157  0.104315  0  1.016971  0
H  H45  1  0.57426304  0.90145882  0.44293014  1  0  0.09135  0  0.947498  0  0  0.105944  0  1.016786  0  0  0.107031  0  1.016355  0  0  0.10056  0.105119  0  1.017142  0
H  H46  1  0.32698731  0.90157875  0.94295976  1  0  0.090838  0  0.946901  0  0  0.10519  0  1.016649  0  0  0.106337  0  1.016175  0  0  0.100161  0.104329  0  1.017049  0
H  H47  1  0.42573611  0.09854437  0.55706663  1  0  0.091359  0  0.947512  0  0  0.105972  0  1.016739  0  0  0.107057  0  1.016305  0  0  0.100569  0.105136  0  1.017106  0
C  C48  1  0.50010530  0.64188111  0.94520532  1  0  -0.055324  0  3.784513  0  0  -0.028414  0  4.01881  0  0  -0.036934  0  4.043099  0  0  -0.020773  -0.022945  0  4.002405  0
C  C49  1  0.85776447  0.35805851  0.55465847  1  0  -0.055605  0  3.782796  0  0  -0.030171  0  4.018947  0  0  -0.038821  0  4.043469  0  0  -0.020941  -0.024603  0  4.002374  0
C  C50  1  0.49988467  0.35811171  0.05479363  1  0  -0.055287  0  3.784574  0  0  -0.028358  0  4.018859  0  0  -0.036882  0  4.043149  0  0  -0.020744  -0.022888  0  4.002449  0
C  C51  1  0.14223402  0.64193002  0.44533726  1  0  -0.055427  0  3.782545  0  0  -0.030008  0  4.018707  0  0  -0.038659  0  4.04323  0  0  -0.020883  -0.024441  0  4.002137  0
C  C52  1  0.54170570  0.65588464  0.03330908  1  0  -0.080054  0  3.708171  0  0  -0.12095  0  3.962333  0  0  -0.119087  0  3.981394  0  0  -0.083105  -0.121949  0  3.949434  0
C  C53  1  0.88557910  0.34417379  0.46660073  1  0  -0.079874  0  3.705357  0  0  -0.120364  0  3.959668  0  0  -0.11857  0  3.978743  0  0  -0.082722  -0.121314  0  3.946746  0
C  C54  1  0.45828694  0.34410818  0.96668987  1  0  -0.080107  0  3.708141  0  0  -0.121033  0  3.962314  0  0  -0.11917  0  3.981375  0  0  -0.08308  -0.122019  0  3.949424  0
C  C55  1  0.11442822  0.65581904  0.53339639  1  0  -0.079899  0  3.70522  0  0  -0.1204  0  3.959504  0  0  -0.118604  0  3.978573  0  0  -0.082708  -0.121352  0  3.946585  0
C  C56  1  0.69136580  0.62387630  0.05526514  1  0  -0.062142  0  3.779845  0  0  -0.036269  0  4.013969  0  0  -0.045174  0  4.039337  0  0  -0.02089  -0.030541  0  3.996882  0
C  C57  1  0.06731849  0.37625141  0.44478617  1  0  -0.062015  0  3.78077  0  0  -0.036408  0  4.014776  0  0  -0.045295  0  4.040127  0  0  -0.021523  -0.030693  0  3.997689  0
C  C58  1  0.30863075  0.37612169  0.94473424  1  0  -0.062034  0  3.77993  0  0  -0.036177  0  4.014041  0  0  -0.045081  0  4.039406  0  0  -0.020875  -0.030448  0  3.99695  0
C  C59  1  0.93268425  0.62374828  0.55521560  1  0  -0.062037  0  3.780679  0  0  -0.036431  0  4.014682  0  0  -0.045314  0  4.040021  0  0  -0.021515  -0.030714  0  3.997596  0
C  C60  1  0.80074079  0.57851424  0.98943983  1  0  -0.142418  0  3.668109  0  0  -0.175018  0  3.91851  0  0  -0.175717  0  3.937072  0  0  -0.080081  -0.174266  0  3.905971  0
C  C61  1  0.22190597  0.42164970  0.51072109  1  0  -0.141279  0  3.670145  0  0  -0.173628  0  3.920706  0  0  -0.174362  0  3.93933  0  0  -0.079356  -0.17287  0  3.908168  0
C  C62  1  0.19926325  0.42148805  0.01056154  1  0  -0.142457  0  3.668146  0  0  -0.175049  0  3.918515  0  0  -0.175748  0  3.937099  0  0  -0.080097  -0.174301  0  3.905974  0
C  C63  1  0.77809721  0.57835086  0.48928034  1  0  -0.141186  0  3.670106  0  0  -0.173526  0  3.920675  0  0  -0.17426  0  3.939299  0  0  -0.079329  -0.172769  0  3.908137  0
C  C64  1  0.75897856  0.56418536  0.90168392  1  0  0.266562  0  3.785691  0  0  0.267427  0  4.032924  0  0  0.271451  0  4.056111  0  0  0.080948  0.264404  0  4.017194  0
C  C65  1  0.19435445  0.43589809  0.59843202  1  0  0.266132  0  3.786805  0  0  0.266916  0  4.033979  0  0  0.270901  0  4.057204  0  0  0.080966  0.263905  0  4.018221  0
C  C66  1  0.24102506  0.43581608  0.09831596  1  0  0.266498  0  3.785844  0  0  0.267462  0  4.03296  0  0  0.271467  0  4.056164  0  0  0.080957  0.264453  0  4.017212  0
C  C67  1  0.80564123  0.56409816  0.40156925  1  0  0.266145  0  3.787044  0  0  0.266864  0  4.034277  0  0  0.270846  0  4.057507  0  0  0.080994  0.263852  0  4.018518  0
C  C68  1  0.60896832  0.59600044  0.87992421  1  0  -0.153503  0  3.681145  0  0  -0.18888  0  3.934084  0  0  -0.189175  0  3.953135  0  0  -0.089192  -0.18824  0  3.921069  0
C  C69  1  0.01244702  0.40389003  0.62003506  1  0  -0.153719  0  3.68243  0  0  -0.188026  0  3.934973  0  0  -0.18833  0  3.953965  0  0  -0.089385  -0.187396  0  3.922031  0
C  C70  1  0.39103047  0.40399669  0.12007551  1  0  -0.153333  0  3.681242  0  0  -0.188722  0  3.934089  0  0  -0.189017  0  3.953176  0  0  -0.089145  -0.188082  0  3.921065  0
C  C71  1  0.98754832  0.59610021  0.37996245  1  0  -0.15381  0  3.682407  0  0  -0.188107  0  3.934923  0  0  -0.188416  0  3.953917  0  0  -0.089439  -0.187476  0  3.921981  0
C  C72  1  0.33893790  0.67504672  0.92137997  1  0  0.631936  0  3.915589  0  0  0.581281  0  4.208987  0  0  0.6147  0  4.20347  0  0  0.196951  0.558661  0  4.211915  0
C  C73  1  0.66330831  0.32484159  0.57835493  1  0  0.633727  0  3.913695  0  0  0.583334  0  4.20749  0  0  0.616775  0  4.201928  0  0  0.197705  0.560679  0  4.210443  0
C  C74  1  0.66106080  0.32495558  0.07862079  1  0  0.631822  0  3.915589  0  0  0.581168  0  4.208975  0  0  0.614586  0  4.203456  0  0  0.196867  0.55855  0  4.211902  0
C  C75  1  0.33668425  0.67515642  0.42164201  1  0  0.63368  0  3.913777  0  0  0.583269  0  4.207589  0  0  0.61671  0  4.202029  0  0  0.197712  0.560612  0  4.210543  0
C  C76  1  0.73250907  0.63446183  0.14870576  1  0  0.637031  0  3.932639  0  0  0.58946  0  4.225551  0  0  0.622858  0  4.219335  0  0  0.201386  0.566847  0  4.228966  0
C  C77  1  0.09812420  0.36570494  0.35139703  1  0  0.63695  0  3.930297  0  0  0.589674  0  4.222771  0  0  0.623077  0  4.216531  0  0  0.201483  0.567058  0  4.226213  0
C  C78  1  0.26749054  0.36553960  0.85129473  1  0  0.636919  0  3.932643  0  0  0.589395  0  4.225496  0  0  0.622792  0  4.219282  0  0  0.20141  0.566782  0  4.228911  0
C  C79  1  0.90188122  0.63429478  0.64860229  1  0  0.637003  0  3.93002  0  0  0.589713  0  4.222499  0  0  0.623114  0  4.21626  0  0  0.201464  0.567095  0  4.225943  0
C  C80  1  0.83406188  0.83355972  0.84871179  1  0  0.135957  0  3.715714  0  0  0.102188  0  3.96895  0  0  0.110766  0  3.986222  0  0  0.047112  0.096666  0  3.957235  0
C  C81  1  0.00073926  0.16610365  0.65107766  1  0  0.136209  0  3.718718  0  0  0.102694  0  3.972191  0  0  0.111266  0  3.989475  0  0  0.047539  0.097193  0  3.960453  0
C  C82  1  0.16593906  0.16644171  0.15128992  1  0  0.136078  0  3.715553  0  0  0.10235  0  3.968796  0  0  0.11093  0  3.986068  0  0  0.047176  0.096829  0  3.957077  0
C  C83  1  0.99926221  0.83389351  0.34891778  1  0  0.136095  0  3.718613  0  0  0.102663  0  3.97208  0  0  0.111234  0  3.989365  0  0  0.047496  0.097164  0  3.960346  0
C  C84  1  0.71693872  0.89845722  0.88855460  1  0  -0.162858  0  3.695618  0  0  -0.18091  0  3.942873  0  0  -0.189831  0  3.964449  0  0  -0.081481  -0.175257  0  3.928479  0
C  C85  1  0.81876761  0.10111990  0.61124395  1  0  -0.163431  0  3.697496  0  0  -0.182167  0  3.944714  0  0  -0.19104  0  3.966258  0  0  -0.082432  -0.176557  0  3.930375  0
C  C86  1  0.28306356  0.10154421  0.11144711  1  0  -0.16296  0  3.695544  0  0  -0.181002  0  3.942764  0  0  -0.189929  0  3.964324  0  0  -0.081498  -0.175347  0  3.928371  0
C  C87  1  0.18122895  0.89887811  0.38875361  1  0  -0.163392  0  3.69751  0  0  -0.182147  0  3.944703  0  0  -0.19102  0  3.966248  0  0  -0.082413  -0.17655  0  3.930351  0
C  C88  1  0.70822035  0.93547669  0.98085300  1  0  0.168785  0  3.687577  0  0  0.182085  0  3.930211  0  0  0.188275  0  3.951966  0  0  0.020719  0.178144  0  3.91533  0
C  C89  1  0.77273402  0.06432847  0.51898957  1  0  0.169305  0  3.689882  0  0  0.184141  0  3.930411  0  0  0.190246  0  3.952198  0  0  0.021495  0.180187  0  3.915615  0
C  C90  1  0.29178149  0.06452386  0.01914966  1  0  0.168843  0  3.687799  0  0  0.182192  0  3.93035  0  0  0.18838  0  3.952112  0  0  0.020748  0.178253  0  3.915469  0
C  C91  1  0.22726207  0.93567127  0.48100670  1  0  0.169259  0  3.689901  0  0  0.184116  0  3.930368  0  0  0.19022  0  3.952153  0  0  0.021553  0.180204  0  3.915512  0
C  C92  1  0.82268184  0.90438640  0.02862403  1  0  -0.16466  0  3.709224  0  0  -0.184575  0  3.964246  0  0  -0.193905  0  3.987696  0  0  -0.080357  -0.178611  0  3.948541  0
C  C93  1  0.91811274  0.09556263  0.47122657  1  0  -0.165193  0  3.709349  0  0  -0.18577  0  3.963976  0  0  -0.195073  0  3.987394  0  0  -0.080576  -0.17981  0  3.948296  0
C  C94  1  0.17731917  0.09560985  0.97137786  1  0  -0.164656  0  3.709303  0  0  -0.184671  0  3.964373  0  0  -0.194  0  3.987821  0  0  -0.080405  -0.178711  0  3.948669  0
C  C95  1  0.08188331  0.90443968  0.52877175  1  0  -0.165052  0  3.709292  0  0  -0.185651  0  3.963931  0  0  -0.194955  0  3.987353  0  0  -0.080564  -0.179705  0  3.948236  0
C  C96  1  0.93803407  0.84017402  0.98484146  1  0  0.129851  0  3.719973  0  0  0.095281  0  3.975571  0  0  0.102915  0  3.995188  0  0  0.04773  0.090405  0  3.962215  0
C  C97  1  0.09776008  0.15980552  0.51500843  1  0  0.129896  0  3.717471  0  0  0.095756  0  3.972848  0  0  0.103432  0  3.992405  0  0  0.047765  0.090866  0  3.959509  0
C  C98  1  0.06196691  0.15982482  0.01515942  1  0  0.129874  0  3.719699  0  0  0.095346  0  3.975328  0  0  0.102982  0  3.994939  0  0  0.047755  0.090471  0  3.961973  0
C  C99  1  0.90223777  0.84019508  0.48498934  1  0  0.129864  0  3.717535  0  0  0.095707  0  3.972946  0  0  0.103384  0  3.992504  0  0  0.04776  0.09082  0  3.959611  0
C  C100  1  0.58646727  0.00713661  0.02896407  1  0  -0.151647  0  3.688408  0  0  -0.196981  0  3.94037  0  0  -0.198391  0  3.952135  0  0  -0.152971  -0.195784  0  3.931938  0
C  C101  1  0.57919303  0.99278748  0.47097222  1  0  -0.15223  0  3.690231  0  0  -0.197619  0  3.94137  0  0  -0.198931  0  3.953015  0  0  -0.153215  -0.196444  0  3.932975  0
C  C102  1  0.41353190  0.99286395  0.97103797  1  0  -0.151848  0  3.688723  0  0  -0.197125  0  3.94057  0  0  -0.198536  0  3.952343  0  0  -0.153018  -0.195922  0  3.932114  0
C  C103  1  0.42080703  0.00721486  0.52902366  1  0  -0.152478  0  3.690133  0  0  -0.197767  0  3.941195  0  0  -0.199067  0  3.952825  0  0  -0.153297  -0.196597  0  3.932794  0
N  N104  1  0.87619626  0.52723824  0.83416739  1  0  -0.673264  0  3.124578  0  0  -0.605987  0  3.366717  0  0  -0.626815  0  3.360409  0  0  -0.597936  -0.591455  0  3.37109  0
N  N105  1  0.34855635  0.47277158  0.66594363  1  0  -0.67331  0  3.125335  0  0  -0.60637  0  3.367946  0  0  -0.627099  0  3.361568  0  0  -0.597961  -0.591865  0  3.372294  0
N  N106  1  0.12381041  0.47276663  0.16583420  1  0  -0.673429  0  3.124598  0  0  -0.60626  0  3.366787  0  0  -0.627083  0  3.360479  0  0  -0.598013  -0.591731  0  3.371156  0
N  N107  1  0.65143795  0.52722726  0.33405847  1  0  -0.673343  0  3.125466  0  0  -0.606417  0  3.368019  0  0  -0.627141  0  3.361637  0  0  -0.597889  -0.59191  0  3.372363  0
N  N108  1  0.94319074  0.80421328  0.89554870  1  0  -0.362289  0  3.341076  0  0  -0.274652  0  3.619228  0  0  -0.295572  0  3.634494  0  0  -0.337175  -0.260675  0  3.60879  0
N  N109  1  0.13906592  0.19569577  0.60428138  1  0  -0.36177  0  3.34034  0  0  -0.274667  0  3.619009  0  0  -0.295595  0  3.634264  0  0  -0.337021  -0.260689  0  3.608554  0
N  N110  1  0.05681016  0.19579073  0.10445384  1  0  -0.362324  0  3.340794  0  0  -0.274787  0  3.619057  0  0  -0.295707  0  3.634317  0  0  -0.337199  -0.260808  0  3.608619  0
N  N111  1  0.86093332  0.80430224  0.39571556  1  0  -0.361625  0  3.340087  0  0  -0.274506  0  3.618718  0  0  -0.295432  0  3.633974  0  0  -0.336964  -0.260536  0  3.608271  0
O  O112  1  0.30338593  0.65551263  0.83724673  1  0  -0.660247  0  2.038917  0  0  -0.57987  0  2.2993  0  0  -0.609256  0  2.28563  0  0  -0.333755  -0.559267  0  2.307788  0
O  O113  1  0.64732309  0.34413580  0.66245460  1  0  -0.660649  0  2.038286  0  0  -0.58057  0  2.299254  0  0  -0.60998  0  2.285698  0  0  -0.333903  -0.559991  0  2.307814  0
O  O114  1  0.69660972  0.34448622  0.16275293  1  0  -0.6603  0  2.038963  0  0  -0.579848  0  2.299243  0  0  -0.609241  0  2.285597  0  0  -0.333722  -0.55926  0  2.307762  0
O  O115  1  0.35267593  0.65587512  0.33754648  1  0  -0.660673  0  2.038265  0  0  -0.580531  0  2.299152  0  0  -0.609939  0  2.285599  0  0  -0.33395  -0.559958  0  2.307725  0
O  O116  1  0.24327142  0.71892880  0.98007491  1  0  -0.612334  0  1.900624  0  0  -0.563026  0  2.120903  0  0  -0.586048  0  2.111983  0  0  -0.321893  -0.546896  0  2.126497  0
O  O117  1  0.52383348  0.28118786  0.51962658  1  0  -0.612962  0  1.900298  0  0  -0.56361  0  2.120381  0  0  -0.586597  0  2.111471  0  0  -0.322362  -0.547495  0  2.125982  0
O  O118  1  0.75673525  0.28107608  0.01992669  1  0  -0.612286  0  1.900508  0  0  -0.56304  0  2.120835  0  0  -0.58606  0  2.111916  0  0  -0.321918  -0.546906  0  2.126428  0
O  O119  1  0.47616532  0.71880929  0.48037070  1  0  -0.612958  0  1.900365  0  0  -0.563629  0  2.120474  0  0  -0.586618  0  2.111567  0  0  -0.322377  -0.547512  0  2.126076  0
O  O120  1  0.62733771  0.68106933  0.20523369  1  0  -0.656757  0  2.050341  0  0  -0.58186  0  2.319263  0  0  -0.610254  0  2.3033  0  0  -0.34301  -0.561954  0  2.329504  0
O  O121  1  0.94649771  0.31886583  0.29471897  1  0  -0.657482  0  2.050761  0  0  -0.582673  0  2.319819  0  0  -0.611077  0  2.303805  0  0  -0.342955  -0.562761  0  2.330094  0
O  O122  1  0.37264635  0.31893039  0.79476563  1  0  -0.65668  0  2.05038  0  0  -0.581806  0  2.319279  0  0  -0.610197  0  2.303316  0  0  -0.34302  -0.561902  0  2.329517  0
O  O123  1  0.05350987  0.68113820  0.70528112  1  0  -0.657481  0  2.050548  0  0  -0.582656  0  2.319614  0  0  -0.611061  0  2.303599  0  0  -0.342956  -0.562746  0  2.329888  0
O  O124  1  0.85988061  0.60007666  0.16812910  1  0  -0.628703  0  1.937809  0  0  -0.583092  0  2.163676  0  0  -0.606104  0  2.155116  0  0  -0.324771  -0.567041  0  2.169077  0
O  O125  1  0.25994919  0.40036495  0.33214123  1  0  -0.628647  0  1.93601  0  0  -0.583321  0  2.161889  0  0  -0.606301  0  2.153284  0  0  -0.325275  -0.567279  0  2.167308  0
O  O126  1  0.14011882  0.39993507  0.83187775  1  0  -0.628712  0  1.937764  0  0  -0.583093  0  2.163566  0  0  -0.606106  0  2.155003  0  0  -0.324796  -0.567041  0  2.168967  0
O  O127  1  0.74005614  0.59963993  0.66786036  1  0  -0.628703  0  1.935961  0  0  -0.583351  0  2.161799  0  0  -0.606333  0  2.153198  0  0  -0.32525  -0.567309  0  2.167219  0
