# generated using pymatgen
data_KH8C9SNO5
_symmetry_space_group_name_H-M   'P 1'
_cell_length_a   9.96747705
_cell_length_b   9.91405295
_cell_length_c   11.22955896
_cell_angle_alpha   90.00014455
_cell_angle_beta   102.85250680
_cell_angle_gamma   90.00004018
_symmetry_Int_Tables_number   1
_chemical_formula_structural   KH8C9SNO5
_chemical_formula_sum   'K4 H32 C36 S4 N4 O20'
_cell_volume   1081.88151821
_cell_formula_units_Z   4
loop_
 _symmetry_equiv_pos_site_id
 _symmetry_equiv_pos_as_xyz
  1  'x, y, z'
loop_
 _atom_site_type_symbol
 _atom_site_label
 _atom_site_symmetry_multiplicity
 _atom_site_fract_x
 _atom_site_fract_y
 _atom_site_fract_z
 _atom_site_occupancy
 _atom_site_hle17_bader_spin_density
 _atom_site_hle17_ddec_charge
 _atom_site_hle17_ddec_spin_density
 _atom_site_hle17_ddec_sum_bond_order
 _atom_site_hle17_magmom
 _atom_site_hse06_10hf_bader_spin_density
 _atom_site_hse06_10hf_ddec_charge
 _atom_site_hse06_10hf_ddec_spin_density
 _atom_site_hse06_10hf_ddec_sum_bond_order
 _atom_site_hse06_10hf_magmom
 _atom_site_hse06_bader_spin_density
 _atom_site_hse06_ddec_charge
 _atom_site_hse06_ddec_spin_density
 _atom_site_hse06_ddec_sum_bond_order
 _atom_site_hse06_magmom
 _atom_site_pbe_bader_spin_density
 _atom_site_pbe_cm5_charge
 _atom_site_pbe_ddec_charge
 _atom_site_pbe_ddec_spin_density
 _atom_site_pbe_ddec_sum_bond_order
 _atom_site_pbe_magmom
K  K0  1  0.84479362  0.99633975  0.85244227  1  0  0.908726  0  0.489962  0  0  0.854457  0  0.674446  0  0  0.869321  0  0.652094  0  0  0.796351  0.843912  0  0.690139  0
K  K1  1  0.84479540  0.50365355  0.35244246  1  0  0.908749  0  0.489943  0  0  0.854477  0  0.674441  0  0  0.86934  0  0.652089  0  0  0.796354  0.843935  0  0.690127  0
K  K2  1  0.15520747  0.00366274  0.14756738  1  0  0.908712  0  0.489972  0  0  0.854477  0  0.674403  0  0  0.869334  0  0.652056  0  0  0.796349  0.843883  0  0.690183  0
K  K3  1  0.15520341  0.49634188  0.64755519  1  0  0.908742  0  0.489961  0  0  0.854478  0  0.674444  0  0  0.869344  0  0.652092  0  0  0.796357  0.843933  0  0.690139  0
H  H4  1  0.90685945  0.93355781  0.59040177  1  0  0.438827  0  0.850887  0  0  0.406792  0  0.916394  0  0  0.416789  0  0.901723  0  0  0.301105  0.399574  0  0.926991  0
H  H5  1  0.90686130  0.56644387  0.09040122  1  0  0.438795  0  0.850939  0  0  0.406774  0  0.916424  0  0  0.416771  0  0.901754  0  0  0.301114  0.399557  0  0.927022  0
H  H6  1  0.09313838  0.06644367  0.40959838  1  0  0.438833  0  0.850883  0  0  0.406807  0  0.916377  0  0  0.416805  0  0.901706  0  0  0.30112  0.39959  0  0.926974  0
H  H7  1  0.09314061  0.43355761  0.90959789  1  0  0.43882  0  0.850897  0  0  0.4068  0  0.916383  0  0  0.416798  0  0.901711  0  0  0.301106  0.399582  0  0.926981  0
H  H8  1  0.47384587  0.64720681  0.77372960  1  0  0.053469  0  0.986735  0  0  0.05992  0  1.057073  0  0  0.060995  0  1.05807  0  0  0.106924  0.059142  0  1.056466  0
H  H9  1  0.47384604  0.85279710  0.27373029  1  0  0.053436  0  0.986677  0  0  0.059873  0  1.057039  0  0  0.06096  0  1.058025  0  0  0.106909  0.059096  0  1.056432  0
H  H10  1  0.52615507  0.35279165  0.22627201  1  0  0.053467  0  0.986838  0  0  0.059908  0  1.057175  0  0  0.060986  0  1.05817  0  0  0.10692  0.05913  0  1.056571  0
H  H11  1  0.52615490  0.14720540  0.72627221  1  0  0.053431  0  0.986678  0  0  0.059883  0  1.057026  0  0  0.06096  0  1.058021  0  0  0.106891  0.059106  0  1.056418  0
H  H12  1  0.95855774  0.80602384  0.67787533  1  0  0.436332  0  0.858181  0  0  0.406355  0  0.919746  0  0  0.416648  0  0.904652  0  0  0.300643  0.399043  0  0.930455  0
H  H13  1  0.95855977  0.69397813  0.17787600  1  0  0.43632  0  0.858188  0  0  0.40634  0  0.919762  0  0  0.416631  0  0.904669  0  0  0.300651  0.399026  0  0.930473  0
H  H14  1  0.04144315  0.19397866  0.32212360  1  0  0.436342  0  0.858161  0  0  0.406364  0  0.919728  0  0  0.416656  0  0.904636  0  0  0.300658  0.399051  0  0.930438  0
H  H15  1  0.04144216  0.30602234  0.82212401  1  0  0.436335  0  0.858155  0  0  0.406357  0  0.919724  0  0  0.41665  0  0.90463  0  0  0.300648  0.399043  0  0.930436  0
H  H16  1  0.73135700  0.63642529  0.81274726  1  0  0.111859  0  0.943971  0  0  0.123224  0  0.998232  0  0  0.127431  0  0.995942  0  0  0.113601  0.120081  0  1.000078  0
H  H17  1  0.73135720  0.86357891  0.31274797  1  0  0.111798  0  0.943994  0  0  0.123162  0  0.998262  0  0  0.127369  0  0.995973  0  0  0.113563  0.120018  0  1.000112  0
H  H18  1  0.26864390  0.36357216  0.18725257  1  0  0.111807  0  0.943939  0  0  0.123144  0  0.998231  0  0  0.127351  0  0.995944  0  0  0.113564  0.120004  0  1.000073  0
H  H19  1  0.26864377  0.13642459  0.68725542  1  0  0.111771  0  0.944017  0  0  0.123109  0  0.998312  0  0  0.127314  0  0.996024  0  0  0.113536  0.119966  0  1.00016  0
H  H20  1  0.84042431  0.45114275  0.71945915  1  0  0.102923  0  0.953798  0  0  0.112739  0  1.015446  0  0  0.116633  0  1.011865  0  0  0.11717  0.110203  0  1.017662  0
H  H21  1  0.84042201  0.04886055  0.21945692  1  0  0.102969  0  0.953813  0  0  0.112776  0  1.015461  0  0  0.11667  0  1.011879  0  0  0.117181  0.110242  0  1.017672  0
H  H22  1  0.15957556  0.54885470  0.28054048  1  0  0.102921  0  0.953809  0  0  0.112771  0  1.01543  0  0  0.116667  0  1.011846  0  0  0.117171  0.110233  0  1.017651  0
H  H23  1  0.15957685  0.95114295  0.78054342  1  0  0.102921  0  0.953801  0  0  0.112745  0  1.015447  0  0  0.11664  0  1.011865  0  0  0.117166  0.110209  0  1.017663  0
H  H24  1  0.21523464  0.23911686  0.45696201  1  0  0.398949  0  0.892127  0  0  0.375562  0  0.956804  0  0  0.386947  0  0.944976  0  0  0.303418  0.367434  0  0.965308  0
H  H25  1  0.21523564  0.26088565  0.95696179  1  0  0.399008  0  0.892126  0  0  0.375622  0  0.956789  0  0  0.387006  0  0.944962  0  0  0.303441  0.367495  0  0.965291  0
H  H26  1  0.78476519  0.76088362  0.54303584  1  0  0.398974  0  0.892097  0  0  0.375585  0  0.956778  0  0  0.386971  0  0.944947  0  0  0.303416  0.367458  0  0.96528  0
H  H27  1  0.78476323  0.73911583  0.04303944  1  0  0.399005  0  0.892132  0  0  0.37562  0  0.956797  0  0  0.387003  0  0.944972  0  0  0.303442  0.367492  0  0.965302  0
H  H28  1  0.64773502  0.08831490  0.44327990  1  0  0.098506  0  0.980413  0  0  0.10652  0  1.045864  0  0  0.108608  0  1.046026  0  0  0.10315  0.104753  0  1.046446  0
H  H29  1  0.64773827  0.41168688  0.94328044  1  0  0.098494  0  0.980389  0  0  0.106514  0  1.045844  0  0  0.108602  0  1.046005  0  0  0.103145  0.104756  0  1.046414  0
H  H30  1  0.35226377  0.91168457  0.55671687  1  0  0.09849  0  0.980458  0  0  0.106537  0  1.045857  0  0  0.108624  0  1.04602  0  0  0.103157  0.104768  0  1.046437  0
H  H31  1  0.35225950  0.58831157  0.05671703  1  0  0.098471  0  0.980425  0  0  0.106486  0  1.045878  0  0  0.108574  0  1.046038  0  0  0.103122  0.104713  0  1.04646  0
H  H32  1  0.39456682  0.11923652  0.40780562  1  0  0.116314  0  0.952706  0  0  0.126677  0  1.013425  0  0  0.130046  0  1.012783  0  0  0.109271  0.124072  0  1.014821  0
H  H33  1  0.39457007  0.38076901  0.90780787  1  0  0.116358  0  0.952707  0  0  0.126757  0  1.013363  0  0  0.130127  0  1.012719  0  0  0.109297  0.12415  0  1.014762  0
H  H34  1  0.60543195  0.88076597  0.59219025  1  0  0.116318  0  0.952737  0  0  0.126685  0  1.013441  0  0  0.130055  0  1.012805  0  0  0.109289  0.124078  0  1.01484  0
H  H35  1  0.60542879  0.61923247  0.09219247  1  0  0.116366  0  0.952667  0  0  0.126733  0  1.013369  0  0  0.130103  0  1.012725  0  0  0.109287  0.124126  0  1.014767  0
C  C36  1  0.52395847  0.56732723  0.73280684  1  0  0.132127  0  3.761452  0  0  0.106052  0  4.024867  0  0  0.112833  0  4.041498  0  0  0.047218  0.101269  0  4.014029  0
C  C37  1  0.52395773  0.93267660  0.23280754  1  0  0.132156  0  3.761241  0  0  0.106084  0  4.024662  0  0  0.112854  0  4.04129  0  0  0.047187  0.101303  0  4.013818  0
C  C38  1  0.47604243  0.43267022  0.26719298  1  0  0.132108  0  3.761524  0  0  0.10606  0  4.024896  0  0  0.112839  0  4.041527  0  0  0.047197  0.101276  0  4.014058  0
C  C39  1  0.47604221  0.06732489  0.76719567  1  0  0.132158  0  3.761325  0  0  0.106075  0  4.024741  0  0  0.112856  0  4.041371  0  0  0.047249  0.101293  0  4.013904  0
C  C40  1  0.66878503  0.56121881  0.75492976  1  0  -0.108129  0  3.715131  0  0  -0.12072  0  3.968196  0  0  -0.125304  0  3.985244  0  0  -0.080626  -0.116761  0  3.9564  0
C  C41  1  0.66878529  0.93878518  0.25492888  1  0  -0.108016  0  3.715096  0  0  -0.120607  0  3.968154  0  0  -0.125191  0  3.985205  0  0  -0.08053  -0.116649  0  3.956359  0
C  C42  1  0.33121899  0.43878065  0.24507241  1  0  -0.1081  0  3.715229  0  0  -0.120662  0  3.968289  0  0  -0.125248  0  3.985341  0  0  -0.080575  -0.116703  0  3.95649  0
C  C43  1  0.33121564  0.06121832  0.74507273  1  0  -0.107995  0  3.715058  0  0  -0.120551  0  3.968115  0  0  -0.125131  0  3.985161  0  0  -0.080526  -0.116593  0  3.956319  0
C  C44  1  0.72900310  0.45849992  0.70295382  1  0  -0.034175  0  3.66671  0  0  -0.062205  0  3.922003  0  0  -0.059183  0  3.936037  0  0  -0.057951  -0.064562  0  3.912013  0
C  C45  1  0.72900289  0.04150427  0.20295462  1  0  -0.034228  0  3.666872  0  0  -0.062262  0  3.922159  0  0  -0.059238  0  3.93619  0  0  -0.057991  -0.064618  0  3.912167  0
C  C46  1  0.27099878  0.54149854  0.29704351  1  0  -0.034115  0  3.66681  0  0  -0.062194  0  3.922102  0  0  -0.059171  0  3.936135  0  0  -0.057945  -0.064551  0  3.912111  0
C  C47  1  0.27099703  0.95849722  0.79704770  1  0  -0.034223  0  3.666734  0  0  -0.062278  0  3.92203  0  0  -0.059257  0  3.936064  0  0  -0.057991  -0.064635  0  3.912041  0
C  C48  1  0.69666053  0.25360470  0.56668412  1  0  -0.213378  0  3.758643  0  0  -0.198649  0  4.020754  0  0  -0.207606  0  4.042356  0  0  -0.033233  -0.193125  0  4.005891  0
C  C49  1  0.69666258  0.24639907  0.06668224  1  0  -0.213397  0  3.758923  0  0  -0.198672  0  4.021022  0  0  -0.207635  0  4.042632  0  0  -0.033235  -0.193148  0  4.006161  0
C  C50  1  0.30333627  0.74639476  0.43331584  1  0  -0.213313  0  3.758679  0  0  -0.198629  0  4.020853  0  0  -0.207591  0  4.042459  0  0  -0.033215  -0.193104  0  4.005987  0
C  C51  1  0.30333624  0.75360241  0.93331631  1  0  -0.213364  0  3.758793  0  0  -0.198681  0  4.020961  0  0  -0.20764  0  4.042566  0  0  -0.033219  -0.193156  0  4.006093  0
C  C52  1  0.60625083  0.16966412  0.48930699  1  0  -0.035834  0  3.803993  0  0  -0.064116  0  4.064152  0  0  -0.059859  0  4.08375  0  0  -0.082711  -0.066351  0  4.051809  0
C  C53  1  0.60625399  0.33033675  0.98930822  1  0  -0.03572  0  3.804079  0  0  -0.064012  0  4.06424  0  0  -0.059752  0  4.083841  0  0  -0.08268  -0.066256  0  4.051893  0
C  C54  1  0.39374796  0.83033535  0.51068977  1  0  -0.03587  0  3.803929  0  0  -0.064161  0  4.064095  0  0  -0.059902  0  4.083697  0  0  -0.082736  -0.066391  0  4.051747  0
C  C55  1  0.39374381  0.66966271  0.01069014  1  0  -0.035785  0  3.804038  0  0  -0.06405  0  4.064192  0  0  -0.059791  0  4.083791  0  0  -0.082688  -0.066281  0  4.05185  0
C  C56  1  0.46307066  0.18701920  0.46936442  1  0  -0.213945  0  3.746494  0  0  -0.234856  0  4.006995  0  0  -0.243942  0  4.027643  0  0  -0.10898  -0.229445  0  3.995514  0
C  C57  1  0.46307172  0.31298555  0.96936434  1  0  -0.214079  0  3.746446  0  0  -0.235031  0  4.006922  0  0  -0.24412  0  4.027571  0  0  -0.109044  -0.22962  0  3.995444  0
C  C58  1  0.53693021  0.81298127  0.53063361  1  0  -0.213976  0  3.74646  0  0  -0.234895  0  4.006976  0  0  -0.243988  0  4.027629  0  0  -0.109016  -0.229484  0  3.995495  0
C  C59  1  0.53692712  0.68701594  0.03063511  1  0  -0.214064  0  3.746375  0  0  -0.234992  0  4.006826  0  0  -0.244082  0  4.027476  0  0  -0.109033  -0.229582  0  3.995344  0
C  C60  1  0.40779494  0.28852367  0.52909945  1  0  0.290667  0  3.7985  0  0  0.27691  0  4.064034  0  0  0.289841  0  4.078773  0  0  0.09684  0.267487  0  4.054846  0
C  C61  1  0.40779492  0.21147879  0.02909890  1  0  0.290759  0  3.798727  0  0  0.277035  0  4.064184  0  0  0.289966  0  4.078925  0  0  0.096874  0.267611  0  4.054996  0
C  C62  1  0.59220594  0.71147580  0.47089948  1  0  0.290722  0  3.798423  0  0  0.27698  0  4.063932  0  0  0.289912  0  4.078672  0  0  0.096844  0.267557  0  4.054745  0
C  C63  1  0.59220397  0.78852169  0.97090323  1  0  0.29078  0  3.798706  0  0  0.277111  0  4.064126  0  0  0.290043  0  4.078865  0  0  0.096874  0.267687  0  4.054939  0
C  C64  1  0.64521606  0.36284466  0.62649408  1  0  0.035524  0  3.77154  0  0  0.041908  0  4.006529  0  0  0.042289  0  4.030314  0  0  0.003598  0.042753  0  3.989625  0
C  C65  1  0.64521699  0.13715320  0.12649442  1  0  0.035456  0  3.771585  0  0  0.041867  0  4.006508  0  0  0.042248  0  4.030295  0  0  0.003618  0.042713  0  3.989604  0
C  C66  1  0.35478482  0.63715380  0.37350485  1  0  0.035498  0  3.771508  0  0  0.041915  0  4.00649  0  0  0.042296  0  4.030279  0  0  0.003628  0.042761  0  3.989584  0
C  C67  1  0.35478291  0.86284525  0.87350700  1  0  0.035554  0  3.771375  0  0  0.041972  0  4.006372  0  0  0.04235  0  4.030161  0  0  0.003618  0.042816  0  3.98947  0
C  C68  1  0.49904566  0.37946442  0.60846822  1  0  0.088037  0  3.750294  0  0  0.091067  0  3.990037  0  0  0.091536  0  4.011983  0  0  0.10161  0.090493  0  3.975505  0
C  C69  1  0.49904655  0.12053933  0.10846762  1  0  0.088022  0  3.750299  0  0  0.091071  0  3.989957  0  0  0.09154  0  4.011903  0  0  0.101592  0.090497  0  3.975426  0
C  C70  1  0.50095420  0.62053404  0.39153052  1  0  0.088051  0  3.750317  0  0  0.091082  0  3.99003  0  0  0.091549  0  4.011979  0  0  0.101631  0.090509  0  3.975498  0
C  C71  1  0.50095233  0.87946316  0.89153361  1  0  0.087966  0  3.750244  0  0  0.090942  0  3.990005  0  0  0.091412  0  4.011952  0  0  0.101568  0.090369  0  3.975476  0
S  S72  1  0.87657821  0.22176818  0.58963769  1  0  1.325121  0  5.67475  0  0  1.229356  0  6.198498  0  0  1.277041  0  6.174289  0  0  0.503917  1.196274  0  6.214417  0
S  S73  1  0.87657932  0.27822369  0.08963838  1  0  1.325046  0  5.675139  0  0  1.229296  0  6.198879  0  0  1.276983  0  6.174673  0  0  0.503828  1.196212  0  6.214798  0
S  S74  1  0.12342164  0.77823028  0.41036105  1  0  1.324982  0  5.675007  0  0  1.229243  0  6.198755  0  0  1.276928  0  6.174551  0  0  0.503837  1.196161  0  6.214671  0
S  S75  1  0.12341847  0.72177577  0.91035998  1  0  1.325011  0  5.675202  0  0  1.229278  0  6.198939  0  0  1.276965  0  6.174728  0  0  0.503813  1.196195  0  6.214854  0
N  N76  1  0.44131910  0.47956077  0.66357130  1  0  -0.382215  0  3.141857  0  0  -0.347214  0  3.412253  0  0  -0.358091  0  3.428078  0  0  -0.40143  -0.340171  0  3.401653  0
N  N77  1  0.44131883  0.02044208  0.16357026  1  0  -0.382162  0  3.141636  0  0  -0.34717  0  3.412004  0  0  -0.358046  0  3.427833  0  0  -0.401388  -0.340121  0  3.4014  0
N  N78  1  0.55868288  0.52043768  0.33643139  1  0  -0.382231  0  3.141828  0  0  -0.347242  0  3.41222  0  0  -0.358117  0  3.428044  0  0  -0.401469  -0.340199  0  3.401619  0
N  N79  1  0.55868109  0.97955940  0.83643205  1  0  -0.382187  0  3.141765  0  0  -0.347178  0  3.412172  0  0  -0.358053  0  3.427997  0  0  -0.401414  -0.340134  0  3.401573  0
O  O80  1  0.92645737  0.20031802  0.72301350  1  0  -0.736915  0  1.972524  0  0  -0.681557  0  2.218505  0  0  -0.70305  0  2.202634  0  0  -0.412631  -0.666484  0  2.228718  0
O  O81  1  0.92646051  0.29967930  0.22301194  1  0  -0.736904  0  1.972676  0  0  -0.681546  0  2.218664  0  0  -0.703035  0  2.202782  0  0  -0.412601  -0.666474  0  2.22888  0
O  O82  1  0.07354146  0.79968043  0.27698506  1  0  -0.736874  0  1.972667  0  0  -0.681515  0  2.21864  0  0  -0.703007  0  2.202769  0  0  -0.412596  -0.666436  0  2.228851  0
O  O83  1  0.07353934  0.70031915  0.77698680  1  0  -0.736896  0  1.972674  0  0  -0.681534  0  2.218649  0  0  -0.703028  0  2.202775  0  0  -0.412602  -0.666465  0  2.228866  0
O  O84  1  0.87636277  0.85811243  0.63596119  1  0  -0.850067  0  1.840544  0  0  -0.798018  0  2.001525  0  0  -0.817327  0  1.972053  0  0  -0.610742  -0.784048  0  2.022313  0
O  O85  1  0.87636474  0.64188532  0.13596173  1  0  -0.850052  0  1.840593  0  0  -0.798002  0  2.00156  0  0  -0.817309  0  1.972089  0  0  -0.610777  -0.784032  0  2.022351  0
O  O86  1  0.12363710  0.14188804  0.36403845  1  0  -0.850078  0  1.840537  0  0  -0.798033  0  2.001509  0  0  -0.817341  0  1.97203  0  0  -0.610777  -0.784056  0  2.022299  0
O  O87  1  0.12363719  0.35811414  0.86403828  1  0  -0.850085  0  1.840539  0  0  -0.79804  0  2.001505  0  0  -0.817349  0  1.972031  0  0  -0.610763  -0.784069  0  2.022295  0
O  O88  1  0.93773215  0.34344391  0.54820677  1  0  -0.750739  0  1.971303  0  0  -0.701323  0  2.229175  0  0  -0.72224  0  2.213377  0  0  -0.494314  -0.686022  0  2.240028  0
O  O89  1  0.93773098  0.15655697  0.04820320  1  0  -0.750654  0  1.97172  0  0  -0.701249  0  2.229617  0  0  -0.722156  0  2.213791  0  0  -0.49424  -0.685941  0  2.24047  0
O  O90  1  0.06226669  0.65655455  0.45179268  1  0  -0.750698  0  1.971271  0  0  -0.701288  0  2.229145  0  0  -0.722198  0  2.21333  0  0  -0.494299  -0.685987  0  2.239998  0
O  O91  1  0.06226887  0.84344250  0.95179554  1  0  -0.750619  0  1.971747  0  0  -0.701211  0  2.229619  0  0  -0.72212  0  2.213806  0  0  -0.494206  -0.6859  0  2.24047  0
O  O92  1  0.89133853  0.10117663  0.51828719  1  0  -0.65863  0  1.967154  0  0  -0.603762  0  2.207946  0  0  -0.62437  0  2.193822  0  0  -0.328526  -0.588943  0  2.217273  0
O  O93  1  0.89134179  0.39882715  0.01828499  1  0  -0.658652  0  1.966796  0  0  -0.603836  0  2.207608  0  0  -0.624447  0  2.193487  0  0  -0.328562  -0.589016  0  2.216937  0
O  O94  1  0.10866029  0.89882283  0.48171136  1  0  -0.658546  0  1.967118  0  0  -0.603732  0  2.207945  0  0  -0.62434  0  2.193824  0  0  -0.328511  -0.588912  0  2.21727  0
O  O95  1  0.10865702  0.60117332  0.98171267  1  0  -0.65861  0  1.966849  0  0  -0.603802  0  2.207663  0  0  -0.62441  0  2.193539  0  0  -0.328523  -0.588979  0  2.216985  0
O  O96  1  0.27182454  0.30631047  0.51792150  1  0  -0.553376  0  2.174037  0  0  -0.505134  0  2.395202  0  0  -0.526005  0  2.387357  0  0  -0.393671  -0.490592  0  2.401663  0
O  O97  1  0.27182554  0.19369286  0.01792198  1  0  -0.553491  0  2.17425  0  0  -0.505268  0  2.395389  0  0  -0.526137  0  2.387545  0  0  -0.393706  -0.490719  0  2.401847  0
O  O98  1  0.72817531  0.69369000  0.48207724  1  0  -0.553443  0  2.174029  0  0  -0.505199  0  2.395172  0  0  -0.526068  0  2.387327  0  0  -0.393671  -0.490658  0  2.401631  0
O  O99  1  0.72817337  0.80630863  0.98208104  1  0  -0.553479  0  2.174239  0  0  -0.50526  0  2.395361  0  0  -0.526133  0  2.387516  0  0  -0.393682  -0.490717  0  2.401824  0
