# generated using pymatgen
data_PrH19C24S(NO2)4
_symmetry_space_group_name_H-M   'P 1'
_cell_length_a   8.99709485
_cell_length_b   9.01351735
_cell_length_c   14.51523335
_cell_angle_alpha   96.72746500
_cell_angle_beta   91.57369296
_cell_angle_gamma   99.78008194
_symmetry_Int_Tables_number   1
_chemical_formula_structural   PrH19C24S(NO2)4
_chemical_formula_sum   'Pr2 H38 C48 S2 N8 O16'
_cell_volume   1150.67568345
_cell_formula_units_Z   2
loop_
 _symmetry_equiv_pos_site_id
 _symmetry_equiv_pos_as_xyz
  1  'x, y, z'
loop_
 _atom_site_type_symbol
 _atom_site_label
 _atom_site_symmetry_multiplicity
 _atom_site_fract_x
 _atom_site_fract_y
 _atom_site_fract_z
 _atom_site_occupancy
 _atom_site_pbe_bader_spin_density
 _atom_site_pbe_cm5_charge
 _atom_site_pbe_ddec_charge
 _atom_site_pbe_ddec_spin_density
 _atom_site_pbe_ddec_sum_bond_order
 _atom_site_pbe_magmom
Pr  Pr0  1  0.54698480  0.56531366  0.64800443  1  0  1.500191  2.001611  0  2.178941  0
Pr  Pr1  1  0.45301718  0.43468767  0.35199387  1  0  1.500187  2.001602  0  2.17895  0
H  H2  1  0.10975850  0.44766213  0.10308468  1  0  0.310607  0.291504  0  0.998523  0
H  H3  1  0.89023923  0.55234036  0.89691639  1  0  0.310624  0.291519  0  0.998521  0
H  H4  1  0.40011312  0.83617974  0.78516302  1  0  0.125247  0.092644  0  1.008175  0
H  H5  1  0.59988998  0.16382163  0.21483806  1  0  0.12525  0.092659  0  1.008181  0
H  H6  1  0.25139934  0.88973135  0.92517816  1  0  0.106798  0.112016  0  1.031427  0
H  H7  1  0.74860004  0.11026773  0.07482201  1  0  0.106802  0.111995  0  1.031418  0
H  H8  1  0.18094641  0.68492836  0.02625731  1  0  0.111939  0.114218  0  0.976068  0
H  H9  1  0.81905205  0.31507185  0.97374223  1  0  0.111933  0.114212  0  0.976081  0
H  H10  1  0.48856547  0.03884813  0.92676412  1  0  0.10776  0.105885  0  1.02564  0
H  H11  1  0.51143410  0.96115209  0.07323682  1  0  0.107769  0.105894  0  1.025672  0
H  H12  1  0.64981438  0.02787993  0.78819982  1  0  0.110578  0.132027  0  1.035671  0
H  H13  1  0.35018407  0.97212029  0.21180041  1  0  0.110569  0.132018  0  1.035678  0
H  H14  1  0.67654170  0.24266289  0.69271861  1  0  0.118858  0.075072  0  1.04203  0
H  H15  1  0.32345433  0.75733618  0.30728150  1  0  0.118854  0.075067  0  1.041932  0
H  H16  1  0.10674430  0.94306272  0.07703111  1  0  0.103278  0.10236  0  1.026478  0
H  H17  1  0.89325657  0.05693863  0.92296924  1  0  0.103262  0.102331  0  1.026443  0
H  H18  1  0.93129697  0.78167968  0.17000623  1  0  0.102576  0.110888  0  1.005824  0
H  H19  1  0.06870391  0.21832167  0.82999412  1  0  0.102586  0.110864  0  1.005829  0
H  H20  1  0.79160760  0.90567525  0.29480026  1  0  0.104255  0.105897  0  0.996465  0
H  H21  1  0.20839288  0.09432383  0.70519924  1  0  0.10427  0.105899  0  0.996438  0
H  H22  1  0.83902034  0.18755055  0.32920818  1  0  0.106289  0.112523  0  1.075768  0
H  H23  1  0.16097904  0.81244853  0.67079199  1  0  0.106297  0.11253  0  1.075741  0
H  H24  1  0.92291799  0.97658424  0.55170250  1  0  0.097984  0.112322  0  0.995879  0
H  H25  1  0.07708381  0.02341599  0.44829779  1  0  0.097981  0.112307  0  0.995902  0
H  H26  1  0.85986236  0.06650578  0.65535696  1  0  0.098597  0.114903  0  0.999843  0
H  H27  1  0.14013924  0.93349332  0.34464394  1  0  0.098575  0.114903  0  0.999757  0
H  H28  1  0.60853896  0.06419864  0.56763169  1  0  0.094665  0.080427  0  0.996091  0
H  H29  1  0.39146283  0.93580159  0.43236860  1  0  0.094645  0.080425  0  0.996106  0
H  H30  1  0.68753594  0.99712246  0.46448243  1  0  0.09692  0.091775  0  0.977181  0
H  H31  1  0.31246585  0.00287776  0.53551786  1  0  0.096917  0.091778  0  0.977145  0
H  H32  1  0.81941479  0.29819963  0.58573311  1  0  0.103173  0.11747  0  1.010585  0
H  H33  1  0.18058608  0.70180172  0.41426655  1  0  0.103172  0.117492  0  1.010574  0
H  H34  1  0.88299237  0.23221626  0.47671803  1  0  0.107058  0.133523  0  0.975552  0
H  H35  1  0.11700850  0.76778508  0.52328163  1  0  0.107063  0.133524  0  0.97557  0
H  H36  1  0.20165520  0.44725408  0.64005490  1  0  0.300655  0.407724  0  0.916765  0
H  H37  1  0.79834529  0.55274501  0.35994529  1  0  0.300635  0.407707  0  0.916791  0
H  H38  1  0.26840741  0.34033932  0.56262323  1  0  0.300786  0.409632  0  0.917993  0
H  H39  1  0.73159085  0.65965974  0.43737555  1  0  0.3008  0.409679  0  0.917932  0
C  C40  1  0.37183841  0.75114741  0.83229847  1  0  0.062859  0.12033  0  3.945718  0
C  C41  1  0.62816339  0.24885282  0.16770250  1  0  0.062854  0.120285  0  3.94572  0
C  C42  1  0.28684969  0.78001862  0.91013199  1  0  -0.083094  -0.131345  0  3.979579  0
C  C43  1  0.71315117  0.21998270  0.08986560  1  0  -0.083069  -0.131243  0  3.979475  0
C  C44  1  0.24856618  0.66697670  0.96602196  1  0  -0.064509  -0.054719  0  3.926708  0
C  C45  1  0.75143227  0.33302350  0.03397759  1  0  -0.064508  -0.054767  0  3.926793  0
C  C46  1  0.29921460  0.52791330  0.94504499  1  0  0.001454  -0.012162  0  4.014117  0
C  C47  1  0.70078497  0.47208691  0.05495457  1  0  0.001447  -0.012128  0  4.014135  0
C  C48  1  0.26772458  0.40171078  0.99623025  1  0  0.094231  0.088775  0  4.036984  0
C  C49  1  0.73227388  0.59828943  0.00376999  1  0  0.094231  0.088746  0  4.036926  0
C  C50  1  0.32805135  0.26838109  0.97673946  1  0  0.086873  0.08797  0  4.104629  0
C  C51  1  0.67194580  0.73161798  0.02326067  1  0  0.086846  0.087952  0  4.104624  0
C  C52  1  0.42708273  0.25309403  0.90215900  1  0  0.001702  -0.014007  0  4.005098  0
C  C53  1  0.57291757  0.74690393  0.09784111  1  0  0.001706  -0.013992  0  4.005106  0
C  C54  1  0.50127399  0.12859330  0.88209853  1  0  -0.062375  -0.062225  0  3.941477  0
C  C55  1  0.49872538  0.87140576  0.11790026  1  0  -0.062383  -0.06224  0  3.941443  0
C  C56  1  0.59171891  0.12302658  0.80679677  1  0  -0.083825  -0.13192  0  3.948946  0
C  C57  1  0.40827954  0.87697363  0.19320346  1  0  -0.083824  -0.131923  0  3.948956  0
C  C58  1  0.60542470  0.24271120  0.75219828  1  0  0.05637  0.113466  0  3.96582  0
C  C59  1  0.39457467  0.75728788  0.24780120  1  0  0.056385  0.113467  0  3.965723  0
C  C60  1  0.45133692  0.37179601  0.84466101  1  0  0.121538  0.128123  0  3.97987  0
C  C61  1  0.54866134  0.62820308  0.15533983  1  0  0.121572  0.128177  0  3.979882  0
C  C62  1  0.38863543  0.50947585  0.86633004  1  0  0.125278  0.141371  0  3.968218  0
C  C63  1  0.61136413  0.49052437  0.13367021  1  0  0.125261  0.141306  0  3.968316  0
C  C64  1  0.17858205  0.23191113  0.08857182  1  0  0.223639  0.294107  0  3.997684  0
C  C65  1  0.82141660  0.76809022  0.91142918  1  0  0.223716  0.294211  0  3.997634  0
C  C66  1  0.07757361  0.15408017  0.15193978  1  0  0.005235  0.014239  0  3.974792  0
C  C67  1  0.92242725  0.84592116  0.84805850  1  0  0.005178  0.014072  0  3.974869  0
C  C68  1  0.04866406  0.99448570  0.13390910  1  0  -0.080184  -0.099704  0  3.944868  0
C  C69  1  0.95133531  0.00551337  0.86609038  1  0  -0.080211  -0.099684  0  3.944873  0
C  C70  1  0.94902595  0.90504455  0.18499333  1  0  -0.085664  -0.076038  0  3.995122  0
C  C71  1  0.05097362  0.09495567  0.81500692  1  0  -0.08566  -0.076008  0  3.99508  0
C  C72  1  0.87193381  0.97445071  0.25521196  1  0  -0.084427  -0.066213  0  3.971145  0
C  C73  1  0.12806557  0.02554837  0.74478821  1  0  -0.084441  -0.066239  0  3.971166  0
C  C74  1  0.89990398  0.13214736  0.27546495  1  0  -0.087739  -0.103872  0  3.999096  0
C  C75  1  0.10009559  0.86785287  0.72453600  1  0  -0.087809  -0.103974  0  3.998933  0
C  C76  1  0.00263312  0.22244661  0.22588362  1  0  -0.012914  -0.129549  0  3.901776  0
C  C77  1  0.99736533  0.77755361  0.77411730  1  0  -0.012805  -0.12924  0  3.901428  0
C  C78  1  0.74163921  0.84165800  0.61288312  1  0  0.199199  0.64157  0  4.144786  0
C  C79  1  0.25836147  0.15834222  0.38711715  1  0  0.199174  0.641518  0  4.144864  0
C  C80  1  0.82248596  0.99289939  0.59033658  1  0  -0.163252  -0.290968  0  3.910885  0
C  C81  1  0.17751603  0.00710197  0.40966379  1  0  -0.163205  -0.290913  0  3.910764  0
C  C82  1  0.71572808  0.06533127  0.53256987  1  0  -0.153538  -0.098052  0  3.920653  0
C  C83  1  0.28427463  0.93466781  0.46742967  1  0  -0.153522  -0.098062  0  3.920641  0
C  C84  1  0.78326122  0.22911946  0.51897038  1  0  -0.159217  -0.305525  0  3.881037  0
C  C85  1  0.21674057  0.77088076  0.48102922  1  0  -0.159204  -0.305529  0  3.881047  0
C  C86  1  0.66510575  0.29700852  0.47085596  1  0  0.226633  0.692621  0  4.092622  0
C  C87  1  0.33489473  0.70299056  0.52914354  1  0  0.226644  0.692606  0  4.092619  0
S  S88  1  0.03716988  0.42283855  0.26626041  1  0  0.534129  1.210348  0  6.120369  0
S  S89  1  0.96282969  0.57716167  0.73374053  1  0  0.534089  1.210199  0  6.120263  0
N  N90  1  0.42091757  0.62051630  0.81050785  1  0  -0.373974  -0.366647  0  3.460165  0
N  N91  1  0.57908515  0.37948281  0.18949376  1  0  -0.37399  -0.366631  0  3.460309  0
N  N92  1  0.53765229  0.36284088  0.76965242  1  0  -0.376211  -0.361986  0  3.509033  0
N  N93  1  0.46234839  0.63715934  0.23034785  1  0  -0.376238  -0.361999  0  3.509077  0
N  N94  1  0.17465683  0.37651171  0.06782749  1  0  -0.373853  -0.298158  0  3.587467  0
N  N95  1  0.82534293  0.62348965  0.93217353  1  0  -0.373877  -0.298166  0  3.587453  0
N  N96  1  0.27251858  0.16424803  0.03449159  1  0  -0.331806  -0.394867  0  3.198313  0
N  N97  1  0.72748118  0.83575332  0.96550874  1  0  -0.331823  -0.394905  0  3.198319  0
O  O98  1  0.20083923  0.45893495  0.29157255  1  0  -0.416569  -0.720646  0  2.414143  0
O  O99  1  0.79916034  0.54106527  0.70842839  1  0  -0.416564  -0.720621  0  2.414051  0
O  O100  1  0.94489296  0.44544103  0.34606953  1  0  -0.313127  -0.564554  0  2.20682  0
O  O101  1  0.05510530  0.55455805  0.65393062  1  0  -0.313132  -0.564532  0  2.206822  0
O  O102  1  0.99921870  0.50441147  0.18889837  1  0  -0.342916  -0.603014  0  2.183021  0
O  O103  1  0.00078087  0.49558876  0.81110257  1  0  -0.342872  -0.602972  0  2.182989  0
O  O104  1  0.67835340  0.83315926  0.69006648  1  0  -0.381894  -0.627825  0  2.221413  0
O  O105  1  0.32164636  0.16684210  0.30993385  1  0  -0.381885  -0.627814  0  2.221444  0
O  O106  1  0.73059347  0.72413002  0.55230077  1  0  -0.371053  -0.637583  0  2.228214  0
O  O107  1  0.26940720  0.27587019  0.44769881  1  0  -0.371049  -0.637562  0  2.22821  0
O  O108  1  0.59139777  0.38714190  0.51875892  1  0  -0.438397  -0.737682  0  2.324917  0
O  O109  1  0.40860402  0.61285832  0.48124137  1  0  -0.438414  -0.737694  0  2.324908  0
O  O110  1  0.63395182  0.25983964  0.38477946  1  0  -0.366936  -0.614396  0  2.222098  0
O  O111  1  0.36604644  0.74015944  0.61522070  1  0  -0.36694  -0.614383  0  2.222106  0
O  O112  1  0.28898217  0.39557260  0.62653896  1  0  -0.639873  -0.853687  0  1.98488  0
O  O113  1  0.71101832  0.60442647  0.37345985  1  0  -0.639872  -0.853718  0  1.984871  0
