# generated using pymatgen
data_Zn4C24S4N4Cl4O21
_symmetry_space_group_name_H-M   'P 1'
_cell_length_a   19.50027035
_cell_length_b   19.46560013
_cell_length_c   33.05879066
_cell_angle_alpha   79.44827836
_cell_angle_beta   79.34598787
_cell_angle_gamma   64.04012820
_symmetry_Int_Tables_number   1
_chemical_formula_structural   Zn4C24S4N4Cl4O21
_chemical_formula_sum   'Zn16 C96 S16 N16 Cl16 O84'
_cell_volume   11013.55886228
_cell_formula_units_Z   4
loop_
 _symmetry_equiv_pos_site_id
 _symmetry_equiv_pos_as_xyz
  1  'x, y, z'
loop_
 _atom_site_type_symbol
 _atom_site_label
 _atom_site_symmetry_multiplicity
 _atom_site_fract_x
 _atom_site_fract_y
 _atom_site_fract_z
 _atom_site_occupancy
 _atom_site_pbe_bader_charge
 _atom_site_pbe_bader_spin_density
 _atom_site_pbe_cm5_charge
 _atom_site_pbe_ddec_charge
 _atom_site_pbe_ddec_spin_density
 _atom_site_pbe_ddec_sum_bond_order
 _atom_site_pbe_magmom
Zn  Zn0  1  0.05893032  0.40240506  0.47497483  1  1.316098  0  0.677325  0.979937  0  2.317421  0
Zn  Zn1  1  0.98221963  0.48768997  0.55979625  1  1.331918  0  0.693754  1.001449  0  2.305504  0
Zn  Zn2  1  0.06309393  0.55830408  0.48234361  1  1.321711  0  0.684909  0.988814  0  2.314388  0
Zn  Zn3  1  0.89926123  0.54985110  0.47979053  1  1.328086  0  0.685668  0.991297  0  2.314363  0
Zn  Zn4  1  0.69729469  0.35156338  0.26883075  1  1.318626  0  0.677182  0.980427  0  2.318635  0
Zn  Zn5  1  0.69617511  0.18362038  0.26444574  1  1.329834  0  0.686282  0.993127  0  2.310862  0
Zn  Zn6  1  0.76513813  0.26971798  0.18865542  1  1.312924  0  0.684601  0.988611  0  2.316114  0
Zn  Zn7  1  0.84730578  0.19464422  0.27386574  1  1.332555  0  0.693175  1.000647  0  2.307174  0
Zn  Zn8  1  0.26287330  0.76860061  0.68843532  1  1.320321  0  0.693146  0.999508  0  2.306687  0
Zn  Zn9  1  0.34840397  0.69374333  0.77249785  1  1.324251  0  0.684893  0.98922  0  2.31707  0
Zn  Zn10  1  0.19792922  0.85106892  0.76897265  1  1.319351  0  0.677193  0.981943  0  2.31568  0
Zn  Zn11  1  0.19580113  0.68343267  0.76453052  1  1.329386  0  0.685874  0.991626  0  2.308583  0
Zn  Zn12  1  0.56372541  0.05816404  0.98261290  1  1.319844  0  0.684374  0.987345  0  2.31647  0
Zn  Zn13  1  0.39996654  0.05154654  0.97851605  1  1.33489  0  0.69327  1.001418  0  2.305478  0
Zn  Zn14  1  0.55830556  0.90293457  0.97521445  1  1.318768  0  0.677665  0.981609  0  2.314314  0
Zn  Zn15  1  0.47942033  0.99134650  0.05974946  1  1.324653  0  0.685459  0.990262  0  2.314417  0
C  C16  1  0.06328047  0.32172426  0.55853970  1  1.618585  0  0.226338  0.627344  0  4.188642  0
C  C17  1  0.06821835  0.57025718  0.56604160  1  1.582849  0  0.225131  0.624333  0  4.132865  0
C  C18  1  0.18584512  0.43998305  0.43665227  1  1.618559  0  0.224873  0.621233  0  4.198057  0
C  C19  1  0.93774627  0.67807680  0.44013527  1  1.619388  0  0.227302  0.625951  0  4.190205  0
C  C20  1  0.93397885  0.42832578  0.43170184  1  1.602281  0  0.225477  0.628303  0  4.138174  0
C  C21  1  0.81671656  0.55853121  0.56194077  1  1.630303  0  0.22652  0.619848  0  4.1975  0
C  C22  1  0.57286619  0.30795937  0.30777599  1  1.60693  0  0.227596  0.62894  0  4.188809  0
C  C23  1  0.68444980  0.18291997  0.17975456  1  1.598978  0  0.225994  0.627834  0  4.136206  0
C  C24  1  0.69004751  0.43587171  0.18712730  1  1.609597  0  0.225571  0.623188  0  4.196774  0
C  C25  1  0.92977671  0.19115067  0.19070107  1  1.625961  0  0.227153  0.62856  0  4.18916  0
C  C26  1  0.81585596  0.31896382  0.31834630  1  1.601805  0  0.224467  0.624731  0  4.136967  0
C  C27  1  0.81354995  0.06441989  0.31065154  1  1.62428  0  0.226509  0.620225  0  4.196978  0
C  C28  1  0.42870593  0.68990281  0.68940061  1  1.613486  0  0.226591  0.625339  0  4.190182  0
C  C29  1  0.31789982  0.81682729  0.81829292  1  1.590548  0  0.225421  0.62687  0  4.133564  0
C  C30  1  0.19089400  0.93448820  0.68695157  1  1.621064  0  0.225629  0.621089  0  4.200011  0
C  C31  1  0.07277134  0.80844275  0.80773326  1  1.626382  0  0.227164  0.627742  0  4.188892  0
C  C32  1  0.18166651  0.68206411  0.68048304  1  1.605963  0  0.225344  0.627296  0  4.137428  0
C  C33  1  0.31350877  0.56433983  0.81053383  1  1.627581  0  0.225317  0.619865  0  4.199574  0
C  C34  1  0.43987497  0.17813878  0.93972634  1  1.603745  0  0.22696  0.627532  0  4.19077  0
C  C35  1  0.43247463  0.92880624  0.93241873  1  1.589383  0  0.226123  0.628191  0  4.135257  0
C  C36  1  0.68580774  0.93934234  0.93682016  1  1.616506  0  0.224493  0.620534  0  4.198665  0
C  C37  1  0.56004551  0.82415845  0.05953057  1  1.621913  0  0.226404  0.62672  0  4.191174  0
C  C38  1  0.56928191  0.07061896  0.06631504  1  1.602313  0  0.224305  0.624217  0  4.137644  0
C  C39  1  0.31511909  0.06370705  0.06064121  1  1.610553  0  0.225293  0.618494  0  4.200292  0
C  C40  1  0.90406583  0.40047000  0.40217677  1  0.035035  0  -0.01539  -0.118752  0  3.902758  0
C  C41  1  0.84638947  0.34723699  0.34731109  1  0.078864  0  -0.016385  -0.120308  0  3.894382  0
C  C42  1  0.83313944  0.44815137  0.38687087  1  0.165802  0  0.015387  0.07352  0  4.010018  0
C  C43  1  0.91935263  0.30117846  0.36081896  1  0.125265  0  0.01853  0.07418  0  4.009147  0
C  C44  1  0.80283890  0.42020174  0.36142521  1  0.108289  0  0.018064  0.079699  0  4.003741  0
C  C45  1  0.94598895  0.32618905  0.38965016  1  0.115157  0  0.016644  0.077191  0  4.010172  0
C  C46  1  0.09756922  0.59884217  0.59543994  1  0.098753  0  -0.016191  -0.121336  0  3.891377  0
C  C47  1  0.15220172  0.65367302  0.65106079  1  0.076135  0  -0.015166  -0.115964  0  3.90121  0
C  C48  1  0.14263227  0.64069272  0.58025467  1  0.095103  0  0.017672  0.075821  0  4.006228  0
C  C49  1  0.10430128  0.61507068  0.66617876  1  0.142497  0  0.015259  0.072614  0  4.01076  0
C  C50  1  0.17254850  0.66480993  0.60791357  1  0.130446  0  0.017138  0.073415  0  4.010399  0
C  C51  1  0.08023279  0.58458870  0.63880932  1  0.109448  0  0.018031  0.075076  0  4.008146  0
C  C52  1  0.31197357  0.45259269  0.40037900  1  0.338474  0  0.08054  0.033317  0  3.927289  0
C  C53  1  0.45234526  0.29060164  0.34942871  1  0.349089  0  0.080053  0.035262  0  3.92833  0
C  C54  1  0.26401024  0.41479260  0.41361266  1  -0.111824  0  -0.000762  -0.143276  0  3.87791  0
C  C55  1  0.49935007  0.32922441  0.33543094  1  -0.128442  0  -0.003561  -0.150985  0  3.886095  0
C  C56  1  0.38243642  0.33667767  0.37163421  1  -0.084855  0  -0.013385  -0.062683  0  4.080423  0
C  C57  1  0.37916110  0.40866582  0.37550002  1  -0.154036  0  -0.013051  -0.06336  0  4.084395  0
C  C58  1  0.72344510  0.57910689  0.63111969  1  0.337088  0  0.081274  0.036289  0  3.922984  0
C  C59  1  0.52162572  0.67865442  0.62040961  1  0.35612  0  0.080644  0.034614  0  3.924775  0
C  C60  1  0.74189406  0.58681105  0.58826123  1  -0.085243  0  -0.001812  -0.146299  0  3.87975  0
C  C61  1  0.50360640  0.66966973  0.66324144  1  -0.11273  0  -0.003569  -0.148861  0  3.887963  0
C  C62  1  0.60175091  0.64269583  0.60838535  1  -0.161474  0  -0.012459  -0.063054  0  4.078753  0
C  C63  1  0.64312709  0.60953476  0.64271533  1  -0.15581  0  -0.014457  -0.066636  0  4.089633  0
C  C64  1  0.07267457  0.22940115  0.62762024  1  0.331232  0  0.080156  0.034716  0  3.927258  0
C  C65  1  0.17150088  0.02691678  0.61757986  1  0.352385  0  0.081166  0.036152  0  3.923818  0
C  C66  1  0.08270672  0.24690359  0.58478436  1  -0.149381  0  -0.003042  -0.148085  0  3.886455  0
C  C67  1  0.16311178  0.00915043  0.66046113  1  -0.120802  0  -0.001869  -0.146221  0  3.880624  0
C  C68  1  0.14163491  0.10722942  0.60572039  1  -0.149852  0  -0.013491  -0.063666  0  4.085721  0
C  C69  1  0.10805193  0.14927346  0.63985926  1  -0.095906  0  -0.013095  -0.062949  0  4.080576  0
C  C70  1  0.83998889  0.80022192  0.39983773  1  0.288604  0  0.079531  0.034993  0  3.927899  0
C  C71  1  0.90631672  0.94689789  0.35578926  1  0.354182  0  0.080528  0.034392  0  3.923572  0
C  C72  1  0.90861949  0.75600637  0.41681731  1  -0.095193  0  -0.003352  -0.149478  0  3.88385  0
C  C73  1  0.83832489  0.99073681  0.33810608  1  -0.166825  0  -0.001173  -0.14506  0  3.876525  0
C  C74  1  0.90829643  0.87592376  0.37668222  1  -0.080067  0  -0.013435  -0.064645  0  4.086475  0
C  C75  1  0.84018560  0.86840730  0.37593802  1  -0.115946  0  -0.012971  -0.064708  0  4.079044  0
C  C76  1  0.65437285  0.15469251  0.15052373  1  0.03199  0  -0.015454  -0.11938  0  3.89766  0
C  C77  1  0.59930757  0.09918420  0.09542875  1  0.02156  0  -0.0153  -0.119519  0  3.896757  0
C  C78  1  0.67144204  0.16850679  0.10720345  1  0.126407  0  0.017891  0.075888  0  4.008738  0
C  C79  1  0.58545042  0.08222088  0.13877148  1  0.155727  0  0.016622  0.075722  0  4.008673  0
C  C80  1  0.64109236  0.14407536  0.07991064  1  0.1527  0  0.017756  0.075932  0  4.007963  0
C  C81  1  0.60927818  0.11309309  0.16602162  1  0.149654  0  0.016288  0.07535  0  4.008264  0
C  C82  1  0.66980004  0.52902098  0.11791709  1  0.352707  0  0.080754  0.03467  0  3.926135  0
C  C83  1  0.56990723  0.73123362  0.12863425  1  0.365229  0  0.080709  0.034429  0  3.927583  0
C  C84  1  0.66149309  0.51071054  0.16076907  1  -0.10664  0  -0.001345  -0.145261  0  3.878632  0
C  C85  1  0.57970522  0.74926683  0.08582456  1  -0.109524  0  -0.003367  -0.148831  0  3.884431  0
C  C86  1  0.60557164  0.65100929  0.14059621  1  -0.128745  0  -0.013157  -0.06281  0  4.079433  0
C  C87  1  0.63931896  0.60944247  0.10629395  1  -0.173489  0  -0.013866  -0.064414  0  4.087722  0
C  C88  1  0.07970322  0.12123818  0.17891289  1  0.332943  0  0.079855  0.035927  0  3.928862  0
C  C89  1  0.16486678  0.12407495  0.07265421  1  0.340888  0  0.081238  0.036023  0  3.92283  0
C  C90  1  0.00654073  0.16067985  0.16643271  1  -0.113231  0  -0.003778  -0.151398  0  3.891744  0
C  C91  1  0.23829736  0.08578978  0.08493559  1  -0.128443  0  -0.001393  -0.146029  0  3.879383  0
C  C92  1  0.10724001  0.14001279  0.10698315  1  -0.195412  0  -0.013782  -0.065143  0  4.08741  0
C  C93  1  0.13789872  0.11073609  0.14489638  1  -0.133324  0  -0.012697  -0.065074  0  4.079776  0
C  C94  1  0.34696686  0.84515679  0.84806281  1  0.049765  0  -0.015798  -0.12183  0  3.89089  0
C  C95  1  0.40260026  0.89973023  0.90346770  1  0.13209  0  -0.01573  -0.117516  0  3.897596  0
C  C96  1  0.30273801  0.91826676  0.86198268  1  0.122217  0  0.017751  0.07912  0  4.002548  0
C  C97  1  0.44466855  0.82495122  0.89161851  1  0.100283  0  0.0166  0.076425  0  4.00866  0
C  C98  1  0.33206827  0.94697776  0.88761795  1  0.094086  0  0.017  0.072232  0  4.012477  0
C  C99  1  0.41927057  0.79934976  0.86248347  1  0.138195  0  0.017222  0.075424  0  4.008042  0
C  C100  1  0.40659446  0.44770643  0.85598932  1  0.293322  0  0.08103  0.0344  0  3.925722  0
C  C101  1  0.34146781  0.30028200  0.90020581  1  0.373903  0  0.080493  0.034436  0  3.929794  0
C  C102  1  0.33839877  0.49114799  0.83841049  1  -0.092163  0  -0.001224  -0.145312  0  3.877199  0
C  C103  1  0.41038079  0.25632286  0.91689136  1  -0.12285  0  -0.003976  -0.149433  0  3.889275  0
C  C104  1  0.34104250  0.36876846  0.87645002  1  -0.167926  0  -0.012903  -0.065099  0  4.080651  0
C  C105  1  0.40899532  0.37669294  0.87704052  1  -0.117082  0  -0.013454  -0.063777  0  4.087585  0
C  C106  1  0.95234175  0.79069394  0.84935787  1  0.351648  0  0.0799  0.033947  0  3.925738  0
C  C107  1  0.81169230  0.95225388  0.90054356  1  0.347168  0  0.080961  0.034531  0  3.924978  0
C  C108  1  0.99914865  0.82957224  0.83536253  1  -0.150141  0  -0.002506  -0.148024  0  3.880498  0
C  C109  1  0.76394236  0.91419492  0.91377711  1  -0.12353  0  -0.002032  -0.145654  0  3.878816  0
C  C110  1  0.87887331  0.90861837  0.87556606  1  -0.151439  0  -0.013663  -0.064603  0  4.084859  0
C  C111  1  0.88241409  0.83655454  0.87164651  1  -0.086406  0  -0.013293  -0.062209  0  4.081198  0
S  S112  1  0.30232512  0.32471332  0.39648632  1  0.384648  0  0.150761  0.228594  0  2.79863  0
S  S113  1  0.45890557  0.42107110  0.35047172  1  0.406719  0  0.147813  0.227441  0  2.814921  0
S  S114  1  0.66080383  0.63310728  0.56235084  1  0.396807  0  0.154571  0.235395  0  2.791616  0
S  S115  1  0.58456042  0.61906632  0.68885548  1  0.393454  0  0.149421  0.229338  0  2.813257  0
S  S116  1  0.13337669  0.16526504  0.55945689  1  0.394376  0  0.147663  0.225936  0  2.81335  0
S  S117  1  0.11675920  0.09092153  0.68604901  1  0.389466  0  0.148863  0.226613  0  2.797889  0
S  S118  1  0.97257086  0.79874848  0.40444192  1  0.397198  0  0.150779  0.23138  0  2.812013  0
S  S119  1  0.77618703  0.94580250  0.34809246  1  0.391471  0  0.154467  0.235308  0  2.788831  0
S  S120  1  0.61463941  0.59208103  0.18661099  1  0.387368  0  0.150751  0.229326  0  2.79615  0
S  S121  1  0.63074792  0.66800628  0.06021783  1  0.404367  0  0.148329  0.228057  0  2.818499  0
S  S122  1  0.00877964  0.18306729  0.11310187  1  0.439744  0  0.150038  0.230727  0  2.814437  0
S  S123  1  0.23645346  0.06761219  0.13846306  1  0.446079  0  0.154853  0.236231  0  2.788639  0
S  S124  1  0.27659652  0.44590141  0.84870936  1  0.403516  0  0.158086  0.239999  0  2.790556  0
S  S125  1  0.47379254  0.29966940  0.90456018  1  0.406005  0  0.14931  0.229113  0  2.813554  0
S  S126  1  0.95843828  0.92136359  0.85048380  1  0.410565  0  0.149238  0.228742  0  2.812047  0
S  S127  1  0.80251815  0.82419778  0.89650714  1  0.379323  0  0.150582  0.228786  0  2.80072  0
N  N128  1  0.30285146  0.52578096  0.41104236  1  0.363082  0  0.060454  0.527493  0  4.216484  0
N  N129  1  0.46932197  0.21114743  0.34571764  1  0.355032  0  0.060703  0.527304  0  4.220888  0
N  N130  1  0.77483569  0.55000688  0.66325359  1  0.37098  0  0.062019  0.527467  0  4.214553  0
N  N131  1  0.46940284  0.72290424  0.58941473  1  0.386254  0  0.060005  0.527106  0  4.219491  0
N  N132  1  0.02780674  0.28183522  0.65858968  1  0.373876  0  0.060363  0.524893  0  4.219576  0
N  N133  1  0.20075439  0.97488378  0.58562991  1  0.386691  0  0.062422  0.528761  0  4.212787  0
N  N134  1  0.77135186  0.78568080  0.40610525  1  0.367837  0  0.058773  0.524976  0  4.22132  0
N  N135  1  0.96908747  0.96765852  0.35743978  1  0.395105  0  0.06228  0.528259  0  4.213315  0
N  N136  1  0.70023944  0.47719117  0.08592344  1  0.386803  0  0.060409  0.527848  0  4.217164  0
N  N137  1  0.52552130  0.78322402  0.15984583  1  0.371455  0  0.06026  0.527397  0  4.219952  0
N  N138  1  0.09989375  0.08785906  0.22058731  1  0.364952  0  0.060592  0.525681  0  4.222073  0
N  N139  1  0.14252163  0.14303707  0.03086140  1  0.377203  0  0.061141  0.526855  0  4.213633  0
N  N140  1  0.46928167  0.46871211  0.85717311  1  0.362358  0  0.060537  0.52835  0  4.213843  0
N  N141  1  0.27302395  0.28529801  0.90674676  1  0.389699  0  0.061313  0.527184  0  4.218453  0
N  N142  1  0.96932645  0.71122015  0.84566528  1  0.359514  0  0.060558  0.527666  0  4.220908  0
N  N143  1  0.80240131  0.02546615  0.91128062  1  0.381945  0  0.060109  0.526693  0  4.21427  0
Cl  Cl144  1  0.78286598  0.54194186  0.39717609  1  -0.139015  0  0.017096  -0.025296  0  1.594912  0
Cl  Cl145  1  0.97917819  0.21535202  0.34216870  1  -0.121727  0  0.028934  -0.007131  0  1.622862  0
Cl  Cl146  1  0.71075041  0.47635606  0.34986399  1  -0.135599  0  0.011792  -0.033277  0  1.589958  0
Cl  Cl147  1  0.02901865  0.26261225  0.40993749  1  -0.14025  0  0.013624  -0.032325  0  1.587366  0
Cl  Cl148  1  0.16100675  0.66613861  0.52830073  1  -0.124476  0  0.02184  -0.01785  0  1.618785  0
Cl  Cl149  1  0.07127979  0.60643744  0.71790069  1  -0.148947  0  0.014473  -0.02933  0  1.590297  0
Cl  Cl150  1  0.23574733  0.70532680  0.58767621  1  -0.129981  0  0.024525  -0.014803  0  1.609836  0
Cl  Cl151  1  0.03222746  0.52836062  0.66006977  1  -0.133864  0  0.026141  -0.0104  0  1.623248  0
Cl  Cl152  1  0.73104038  0.21281415  0.08605049  1  -0.12646  0  0.02215  -0.018291  0  1.612304  0
Cl  Cl153  1  0.54239461  0.02136964  0.15992623  1  -0.147226  0  0.016476  -0.025848  0  1.594999  0
Cl  Cl154  1  0.65466022  0.17265465  0.02796467  1  -0.124959  0  0.02212  -0.018439  0  1.612222  0
Cl  Cl155  1  0.57905973  0.10118383  0.21794851  1  -0.146295  0  0.016389  -0.026194  0  1.594968  0
Cl  Cl156  1  0.21086214  0.97399020  0.84999276  1  -0.141139  0  0.01374  -0.031408  0  1.593715  0
Cl  Cl157  1  0.52641816  0.76153468  0.91318956  1  -0.146225  0  0.011001  -0.035462  0  1.588614  0
Cl  Cl158  1  0.28100960  0.04071194  0.89763799  1  -0.134829  0  0.0264  -0.010879  0  1.612286  0
Cl  Cl159  1  0.47996145  0.71292687  0.84468388  1  -0.126943  0  0.023026  -0.015018  0  1.624092  0
O  O160  1  0.00086748  0.49929454  0.49901237  1  -1.230405  0  -0.580576  -1.051411  0  2.540469  0
O  O161  1  0.06407049  0.31877492  0.52003721  1  -1.147612  0  -0.311724  -0.538249  0  2.301751  0
O  O162  1  0.00296437  0.56784413  0.57700407  1  -1.152367  0  -0.312521  -0.545553  0  2.352391  0
O  O163  1  0.14566314  0.51147072  0.43803611  1  -1.148971  0  -0.304345  -0.523391  0  2.334937  0
O  O164  1  0.05063384  0.37985025  0.57587812  1  -1.155243  0  -0.307086  -0.531451  0  2.343385  0
O  O165  1  0.16555413  0.38541237  0.45215109  1  -1.151428  0  -0.309994  -0.532956  0  2.293703  0
O  O166  1  0.11013720  0.55040516  0.53200023  1  -1.155408  0  -0.311797  -0.54185  0  2.351591  0
O  O167  1  0.99594598  0.66183657  0.45882091  1  -1.156257  0  -0.311116  -0.536179  0  2.306085  0
O  O168  1  0.88484174  0.46871837  0.45886431  1  -1.163464  0  -0.313815  -0.547453  0  2.34591  0
O  O169  1  0.90526287  0.63484797  0.43846083  1  -1.146459  0  -0.306397  -0.529937  0  2.347013  0
O  O170  1  0.00599325  0.40951009  0.42758978  1  -1.152311  0  -0.312541  -0.542731  0  2.343208  0
O  O171  1  0.87442907  0.50601858  0.57803498  1  -1.151905  0  -0.301032  -0.519074  0  2.340463  0
O  O172  1  0.81487723  0.58950572  0.52421373  1  -1.151051  0  -0.307544  -0.528371  0  2.300327  0
O  O173  1  0.75062119  0.25024379  0.24916623  1  -1.226891  0  -0.580811  -1.052283  0  2.541148  0
O  O174  1  0.60851705  0.34963045  0.30819098  1  -1.146282  0  -0.312581  -0.538776  0  2.304525  0
O  O175  1  0.70484138  0.13973544  0.21332472  1  -1.161383  0  -0.314912  -0.549677  0  2.349058  0
O  O176  1  0.74469635  0.37887392  0.17139273  1  -1.154429  0  -0.305015  -0.525169  0  2.335245  0
O  O177  1  0.59185441  0.25388173  0.28586889  1  -1.161315  0  -0.307407  -0.530986  0  2.346432  0
O  O178  1  0.65731684  0.43701398  0.22450573  1  -1.156843  0  -0.310935  -0.53411  0  2.29131  0
O  O179  1  0.68788127  0.24774249  0.16895784  1  -1.148857  0  -0.310236  -0.539642  0  2.344554  0
O  O180  1  0.87380615  0.20813559  0.17005649  1  -1.158666  0  -0.311274  -0.536874  0  2.303677  0
O  O181  1  0.83301704  0.24707971  0.32249728  1  -1.15647  0  -0.311408  -0.54298  0  2.34931  0
O  O182  1  0.92611697  0.20001949  0.22824541  1  -1.156433  0  -0.307066  -0.532598  0  2.344914  0
O  O183  1  0.77503031  0.36858337  0.29157046  1  -1.160427  0  -0.312746  -0.54446  0  2.351597  0
O  O184  1  0.74155322  0.09742504  0.30702568  1  -1.143344  0  -0.306255  -0.527783  0  2.298227  0
O  O185  1  0.86448479  0.08716707  0.29248290  1  -1.15601  0  -0.301912  -0.520055  0  2.341494  0
O  O186  1  0.25062757  0.74983517  0.74923281  1  -1.224843  0  -0.580249  -1.051794  0  2.538433  0
O  O187  1  0.37096303  0.70095011  0.67235437  1  -1.152795  0  -0.306817  -0.530831  0  2.345183  0
O  O188  1  0.33692297  0.74469834  0.82138440  1  -1.140238  0  -0.311941  -0.542422  0  2.353967  0
O  O189  1  0.15896785  0.93631753  0.72452147  1  -1.152908  0  -0.311139  -0.535075  0  2.295288  0
O  O190  1  0.43116676  0.69134146  0.72770652  1  -1.14519  0  -0.310744  -0.53583  0  2.302005  0
O  O191  1  0.24418396  0.87682367  0.67104457  1  -1.151244  0  -0.301172  -0.518355  0  2.340653  0
O  O192  1  0.27645594  0.86678036  0.79184193  1  -1.168062  0  -0.314584  -0.54781  0  2.354717  0
O  O193  1  0.10850060  0.84999880  0.80825648  1  -1.148063  0  -0.312057  -0.538619  0  2.301222  0
O  O194  1  0.20186418  0.63902619  0.71411404  1  -1.158422  0  -0.312739  -0.5465  0  2.34406  0
O  O195  1  0.09169581  0.75449215  0.78577617  1  -1.15959  0  -0.306797  -0.53004  0  2.348062  0
O  O196  1  0.18470095  0.74707943  0.66972625  1  -1.152597  0  -0.309442  -0.540232  0  2.341737  0
O  O197  1  0.36458696  0.58620436  0.79156301  1  -1.161188  0  -0.305788  -0.525347  0  2.339556  0
O  O198  1  0.24136957  0.59764566  0.80736877  1  -1.142911  0  -0.305772  -0.526156  0  2.294453  0
O  O199  1  0.50068440  0.99992914  0.99922772  1  -1.228487  0  -0.580167  -1.050936  0  2.538428  0
O  O200  1  0.49703714  0.16202077  0.95924164  1  -1.149542  0  -0.311319  -0.537205  0  2.304376  0
O  O201  1  0.38341225  0.97073995  0.95904413  1  -1.154951  0  -0.310104  -0.54165  0  2.344163  0
O  O202  1  0.66512656  0.88498758  0.95221262  1  -1.15236  0  -0.31005  -0.532719  0  2.291241  0
O  O203  1  0.40863411  0.13443684  0.93678912  1  -1.150987  0  -0.306464  -0.531493  0  2.345666  0
O  O204  1  0.64587147  0.01085893  0.93833180  1  -1.147684  0  -0.304942  -0.52368  0  2.337991  0
O  O205  1  0.50459063  0.90969454  0.92824763  1  -1.135321  0  -0.31312  -0.545952  0  2.345754  0
O  O206  1  0.56277634  0.82042635  0.02091665  1  -1.160645  0  -0.312461  -0.539271  0  2.30552  0
O  O207  1  0.50390594  0.06877883  0.07763954  1  -1.158145  0  -0.313903  -0.547422  0  2.349381  0
O  O208  1  0.54537626  0.88274463  0.07694296  1  -1.157646  0  -0.306064  -0.528643  0  2.347079  0
O  O209  1  0.61087144  0.05053879  0.03224487  1  -1.154245  0  -0.310381  -0.53902  0  2.344014  0
O  O210  1  0.31951550  0.09570797  0.02379009  1  -1.149168  0  -0.301598  -0.519759  0  2.343593  0
O  O211  1  0.37104903  0.01480584  0.08025341  1  -1.150783  0  -0.30679  -0.527406  0  2.297964  0
O  O212  1  0.34012611  0.55725434  0.38628731  1  -0.447066  0  -0.13873  -0.333564  0  1.864787  0
O  O213  1  0.26323266  0.54991139  0.44336417  1  -0.408592  0  -0.118655  -0.303113  0  1.914566  0
O  O214  1  0.41178418  0.19774264  0.34748600  1  -0.442368  0  -0.138414  -0.333017  0  1.860688  0
O  O215  1  0.53669236  0.16298581  0.34291433  1  -0.419235  0  -0.122497  -0.306628  0  1.898687  0
O  O216  1  0.74774268  0.52694813  0.69742590  1  -0.444281  0  -0.136869  -0.330942  0  1.863695  0
O  O217  1  0.83773706  0.55319029  0.65577045  1  -0.411576  0  -0.115138  -0.299368  0  1.92017  0
O  O218  1  0.49325731  0.70298515  0.55384439  1  -0.449875  0  -0.137169  -0.331577  0  1.858238  0
O  O219  1  0.40848461  0.77727981  0.59935975  1  -0.419504  0  -0.11972  -0.303106  0  1.902253  0
O  O220  1  0.04721161  0.25812024  0.69423223  1  -0.450734  0  -0.138058  -0.331963  0  1.858973  0
O  O221  1  0.97339166  0.34255657  0.64860109  1  -0.40967  0  -0.118208  -0.299902  0  1.902734  0
O  O222  1  0.22411156  0.00150643  0.55139179  1  -0.441411  0  -0.137104  -0.331822  0  1.864762  0
O  O223  1  0.19737852  0.91199841  0.59331982  1  -0.413109  0  -0.11413  -0.298305  0  1.912856  0
O  O224  1  0.72877831  0.81658121  0.37801934  1  -0.444021  0  -0.138335  -0.332468  0  1.856843  0
O  O225  1  0.75821889  0.74769213  0.43831366  1  -0.420737  0  -0.12283  -0.307136  0  1.898563  0
O  O226  1  0.03185225  0.91187662  0.36298822  1  -0.445009  0  -0.135898  -0.329782  0  1.864111  0
O  O227  1  0.95621191  0.03601492  0.35539701  1  -0.430673  0  -0.116274  -0.300877  0  1.916907  0
O  O228  1  0.72261383  0.50462054  0.05164151  1  -0.443463  0  -0.13831  -0.333511  0  1.864837  0
O  O229  1  0.69926314  0.41317926  0.09360157  1  -0.4316  0  -0.119694  -0.304553  0  1.914547  0
O  O230  1  0.54571805  0.75925047  0.19531409  1  -0.449493  0  -0.138676  -0.333494  0  1.859462  0
O  O231  1  0.47074858  0.84395196  0.15023945  1  -0.409184  0  -0.121786  -0.305779  0  1.897792  0
O  O232  1  0.16480519  0.07864465  0.22663669  1  -0.434794  0  -0.137244  -0.331305  0  1.856238  0
O  O233  1  0.05471846  0.06851903  0.24592751  1  -0.417777  0  -0.12004  -0.302301  0  1.902616  0
O  O234  1  0.07767284  0.19665386  0.02720909  1  -0.446516  0  -0.136182  -0.330066  0  1.864266  0
O  O235  1  0.18536296  0.10427394  0.00325568  1  -0.41142  0  -0.115266  -0.299861  0  1.914016  0
O  O236  1  0.53198264  0.41316030  0.86328739  1  -0.441918  0  -0.138414  -0.333408  0  1.864414  0
O  O237  1  0.45674964  0.53720143  0.85406851  1  -0.414368  0  -0.121531  -0.307445  0  1.91745  0
O  O238  1  0.22985641  0.31653235  0.87895068  1  -0.441708  0  -0.137208  -0.331063  0  1.855287  0
O  O239  1  0.26068996  0.24674299  0.93888654  1  -0.424764  0  -0.119329  -0.301824  0  1.90075  0
O  O240  1  0.91171467  0.69762669  0.84809368  1  -0.443808  0  -0.13778  -0.333131  0  1.864043  0
O  O241  1  0.03670493  0.66319187  0.84227050  1  -0.421839  0  -0.122017  -0.305946  0  1.899295  0
O  O242  1  0.83900593  0.05744845  0.88637533  1  -0.438466  0  -0.13795  -0.332328  0  1.862788  0
O  O243  1  0.76332541  0.04911340  0.94381895  1  -0.432622  0  -0.120186  -0.304895  0  1.912655  0
