# generated using pymatgen
data_CuH8C6S2(Cl2O5)2
_symmetry_space_group_name_H-M   'P 1'
_cell_length_a   7.22261359
_cell_length_b   9.63784141
_cell_length_c   21.47810000
_cell_angle_alpha   90.00000000
_cell_angle_beta   90.00000000
_cell_angle_gamma   90.00000000
_symmetry_Int_Tables_number   1
_chemical_formula_structural   CuH8C6S2(Cl2O5)2
_chemical_formula_sum   'Cu4 H32 C24 S8 Cl16 O40'
_cell_volume   1495.09922569
_cell_formula_units_Z   4
loop_
 _symmetry_equiv_pos_site_id
 _symmetry_equiv_pos_as_xyz
  1  'x, y, z'
loop_
 _atom_site_type_symbol
 _atom_site_label
 _atom_site_symmetry_multiplicity
 _atom_site_fract_x
 _atom_site_fract_y
 _atom_site_fract_z
 _atom_site_occupancy
 _atom_site_hle17_ddec_charge
 _atom_site_hle17_ddec_spin_density
 _atom_site_hle17_ddec_sum_bond_order
 _atom_site_hle17_magmom
 _atom_site_hse06_10hf_ddec_charge
 _atom_site_hse06_10hf_ddec_spin_density
 _atom_site_hse06_10hf_ddec_sum_bond_order
 _atom_site_hse06_10hf_magmom
 _atom_site_hse06_ddec_charge
 _atom_site_hse06_ddec_spin_density
 _atom_site_hse06_ddec_sum_bond_order
 _atom_site_hse06_magmom
 _atom_site_pbe_bader_charge
 _atom_site_pbe_bader_spin_density
 _atom_site_pbe_cm5_charge
 _atom_site_pbe_ddec_charge
 _atom_site_pbe_ddec_spin_density
 _atom_site_pbe_ddec_sum_bond_order
 _atom_site_pbe_magmom
Cu  Cu0  1  0.00000000  0.00000000  0.50000000  1  1.144049  0.793622  1.583485  0.599  1.149143  0.867036  1.958293  0.715  1.2193  0.918717  1.903883  0.783  1.207712  0.665607  0.733083  1.100736  0.825024  1.996682  0.665
Cu  Cu1  1  0.50000183  0.49999993  0.50000000  1  1.143904  0.793615  1.583566  0.599  1.149039  0.867034  1.95834  0.715  1.219204  0.918728  1.903996  0.783  1.207704  0.665609  0.733004  1.100631  0.825027  1.996723  0.665
Cu  Cu2  1  0.50000183  0.49999993  0.00000000  1  1.143886  -0.793621  1.583676  -0.599  1.149017  -0.867033  1.958415  -0.715  1.219158  -0.918722  1.904047  -0.783  1.20772  -0.665599  0.733041  1.100622  -0.825004  1.996801  -0.665
Cu  Cu3  1  0.00000000  0.00000000  0.00000000  1  1.143916  -0.793618  1.583629  -0.599  1.149063  -0.867034  1.958372  -0.715  1.219196  -0.918725  1.903995  -0.783  1.207696  -0.665623  0.733067  1.100644  -0.825037  1.996791  -0.665
H  H4  1  0.73400992  0.14218848  0.45423943  1  0.438689  8.1e-05  0.860673  -0.001  0.409471  0.000532  0.921643  0.001  0.420459  0.000357  0.906081  0.0  0.664171  0.000207  0.299724  0.40146  0.000658  0.933007  0.001
H  H5  1  0.76599141  0.64219048  0.54575963  1  0.438598  8.1e-05  0.860794  -0.001  0.409395  0.000532  0.921722  0.001  0.420383  0.000358  0.906161  0.0  0.664259  0.000207  0.299727  0.401385  0.000658  0.933085  0.001
H  H6  1  0.23401501  0.35781041  0.04576103  1  0.438509  -8.2e-05  0.860929  0.001  0.409331  -0.000532  0.921816  -0.001  0.420317  -0.000357  0.906258  0.0  0.664185  -0.000208  0.299678  0.401317  -0.000657  0.933185  -0.001
H  H7  1  0.26598543  0.85780930  0.95423990  1  0.438499  -8.2e-05  0.860946  0.001  0.409328  -0.000533  0.921822  -0.001  0.420314  -0.000357  0.906265  0.0  0.66428  -0.000207  0.29968  0.401316  -0.000658  0.933187  -0.001
H  H8  1  0.26599097  0.85781138  0.54576010  1  0.438676  8.2e-05  0.860682  -0.001  0.409449  0.000532  0.921663  0.001  0.420436  0.000357  0.906102  0.0  0.664173  0.000207  0.299733  0.40144  0.000658  0.933024  0.001
H  H9  1  0.23401363  0.35780937  0.45424083  1  0.438529  8.2e-05  0.86091  -0.001  0.409332  0.000532  0.92183  0.001  0.420321  0.000357  0.906268  0.0  0.664215  0.000207  0.299669  0.401322  0.000658  0.933189  0.001
H  H10  1  0.76598726  0.64218944  0.95423804  1  0.438535  -8.2e-05  0.860887  0.001  0.40937  -0.000532  0.921764  -0.001  0.420356  -0.000357  0.906206  0.0  0.664186  -0.000208  0.299701  0.40136  -0.000657  0.933129  -0.001
H  H11  1  0.73401545  0.14219055  0.04576057  1  0.438516  -8.2e-05  0.860926  0.001  0.409324  -0.000533  0.921827  -0.001  0.420311  -0.000358  0.90627  0.0  0.664204  -0.000208  0.299688  0.401313  -0.000658  0.93319  -0.001
H  H12  1  0.91941925  0.23196065  0.45331291  1  0.435573  -0.000103  0.865234  -0.001  0.406827  0.000372  0.925666  0.0  0.417961  0.000222  0.909834  0.0  0.660578  2.3e-05  0.299544  0.398606  0.000521  0.937313  0.0
H  H13  1  0.58057654  0.73196266  0.54668662  1  0.435619  -0.000104  0.865172  -0.001  0.40688  0.000372  0.925588  0.0  0.418013  0.000222  0.909756  0.0  0.660556  2.3e-05  0.299584  0.39866  0.000521  0.937233  0.0
H  H14  1  0.41942573  0.26803823  0.04668849  1  0.435582  0.000103  0.865214  0.001  0.406812  -0.000372  0.925686  0.0  0.417944  -0.000222  0.909855  0.0  0.660538  -2.3e-05  0.299558  0.398592  -0.00052  0.937332  0.0
H  H15  1  0.08057194  0.76803816  0.95331291  1  0.435639  0.000103  0.865125  0.001  0.406836  -0.000371  0.92564  0.0  0.417967  -0.000222  0.909809  0.0  0.660585  -2.3e-05  0.299562  0.398618  -0.00052  0.937283  0.0
H  H16  1  0.08058302  0.76803920  0.54668662  1  0.435572  -0.000103  0.865222  -0.001  0.406834  0.000372  0.925642  0.0  0.417967  0.000222  0.909811  0.0  0.660575  2.3e-05  0.299545  0.398616  0.000521  0.937285  0.0
H  H17  1  0.41942573  0.26803720  0.45331338  1  0.435577  -0.000104  0.865225  -0.001  0.406857  0.000371  0.925619  0.0  0.41799  0.000222  0.909787  0.0  0.660587  2.3e-05  0.299557  0.398634  0.00052  0.937269  0.0
H  H18  1  0.58057654  0.73196162  0.95331198  1  0.435588  0.000103  0.865211  0.001  0.406843  -0.000372  0.925646  0.0  0.417975  -0.000222  0.909815  0.0  0.660552  -2.3e-05  0.299559  0.398623  -0.00052  0.937292  0.0
H  H19  1  0.91942756  0.23196273  0.04668709  1  0.435621  0.000103  0.86515  0.001  0.406838  -0.000372  0.925635  0.0  0.41797  -0.000222  0.909804  0.0  0.660577  -2.3e-05  0.299547  0.398617  -0.00052  0.937283  0.0
H  H20  1  0.72330465  0.88063806  0.44089747  1  0.432997  0.000398  0.865176  0.0  0.404032  0.000812  0.926703  0.001  0.415179  0.000601  0.910625  0.001  0.633516  0.000745  0.296247  0.39592  0.000962  0.938396  0.001
H  H21  1  0.77669530  0.38064021  0.55910346  1  0.433022  0.0004  0.865144  0.0  0.404068  0.000812  0.926656  0.001  0.415217  0.000601  0.910575  0.001  0.633514  0.000745  0.296241  0.395955  0.000962  0.938352  0.001
H  H22  1  0.22330559  0.61936275  0.05910253  1  0.43298  -0.000398  0.865174  0.0  0.404009  -0.000813  0.926713  -0.001  0.415157  -0.000601  0.910636  -0.001  0.633523  -0.000745  0.296236  0.395899  -0.000962  0.938405  -0.001
H  H23  1  0.27669485  0.11936075  0.94089701  1  0.433028  -0.000398  0.865136  0.0  0.404073  -0.000812  0.926648  -0.001  0.415221  -0.000601  0.910569  -0.001  0.633516  -0.000745  0.296249  0.39596  -0.000962  0.938345  -0.001
H  H24  1  0.27669485  0.11936179  0.55910299  1  0.433006  0.000398  0.865163  0.0  0.404053  0.000812  0.92667  0.001  0.415202  0.000601  0.910591  0.001  0.633517  0.000745  0.296259  0.395941  0.000962  0.938365  0.001
H  H25  1  0.22330559  0.61935964  0.44089654  1  0.433022  0.0004  0.865145  0.0  0.404049  0.000812  0.926684  0.001  0.415198  0.000601  0.910605  0.001  0.633519  0.000745  0.296241  0.395939  0.000962  0.938377  0.001
H  H26  1  0.77669391  0.38063814  0.94089701  1  0.43299  -0.000398  0.865187  0.0  0.404018  -0.000812  0.926724  -0.001  0.415165  -0.000601  0.910647  -0.001  0.633518  -0.000744  0.296254  0.395908  -0.000961  0.938416  -0.001
H  H27  1  0.72330604  0.88064014  0.05910299  1  0.432993  -0.000399  0.865157  0.0  0.404025  -0.000812  0.92669  -0.001  0.41517  -0.000601  0.910615  -0.001  0.63352  -0.000745  0.29624  0.395915  -0.000962  0.938381  -0.001
H  H28  1  0.89817348  0.78005434  0.44029919  1  0.447249  0.000257  0.839949  0.0  0.420179  0.000675  0.898482  0.001  0.430701  0.000469  0.883396  0.001  0.686447  0.000485  0.301674  0.41234  0.000864  0.909709  0.001
H  H29  1  0.60182370  0.28005649  0.55970128  1  0.447265  0.000259  0.839935  0.0  0.420203  0.000675  0.898453  0.001  0.430727  0.000469  0.883365  0.001  0.686468  0.000485  0.30166  0.412362  0.000864  0.909683  0.001
H  H30  1  0.39817719  0.71994544  0.05970035  1  0.447224  -0.000258  0.839982  0.0  0.42015  -0.000675  0.898526  -0.001  0.430672  -0.000469  0.88344  -0.001  0.686456  -0.000485  0.301655  0.41231  -0.000863  0.909755  -0.001
H  H31  1  0.10182048  0.21994344  0.94029872  1  0.447253  -0.000259  0.839942  0.0  0.420175  -0.000675  0.898495  -0.001  0.430697  -0.000469  0.883409  -0.001  0.686607  -0.000485  0.301658  0.412335  -0.000863  0.909722  -0.001
H  H32  1  0.10182741  0.21994552  0.55970035  1  0.447239  0.000257  0.839961  0.0  0.420189  0.000675  0.898464  0.001  0.430712  0.000469  0.883376  0.001  0.686446  0.000485  0.301676  0.412349  0.000864  0.909693  0.001
H  H33  1  0.39817858  0.71994337  0.44029872  1  0.447284  0.00026  0.839882  0.0  0.420217  0.000675  0.898425  0.001  0.43074  0.000469  0.883338  0.001  0.686627  0.000485  0.301674  0.412376  0.000864  0.909655  0.001
H  H34  1  0.60182508  0.28005441  0.94029965  1  0.447227  -0.000258  0.83997  0.0  0.420171  -0.000675  0.898488  -0.001  0.430694  -0.000469  0.883402  -0.001  0.686444  -0.000484  0.301672  0.412331  -0.000863  0.909716  -0.001
H  H35  1  0.89817902  0.78005745  0.05970128  1  0.447262  -0.000259  0.839924  0.0  0.420189  -0.000675  0.898469  -0.001  0.430711  -0.000469  0.883383  -0.001  0.686686  -0.000485  0.301677  0.412349  -0.000863  0.909697  -0.001
C  C36  1  0.55910232  0.99583398  0.68409682  1  -0.196224  0.00021  3.65507  0.0  -0.192308  1.1e-05  3.923454  0.0  -0.195898  -6e-06  3.940045  0.0  -0.032522  8.8e-05  -0.028474  -0.190409  3.7e-05  3.913041  0.0
C  C37  1  0.94089624  0.49583198  0.31590457  1  -0.196334  0.00021  3.655284  0.0  -0.192366  1.2e-05  3.923616  0.0  -0.196065  -9e-06  3.940347  0.0  -0.03256  8.7e-05  -0.028516  -0.190372  3.6e-05  3.913092  0.0
C  C38  1  0.05910049  0.50416684  0.81590457  1  -0.196325  -0.000222  3.655203  0.0  -0.192331  -1.1e-05  3.923494  0.0  -0.196019  8e-06  3.94021  0.0  -0.032498  -8.8e-05  -0.028548  -0.190326  -3.7e-05  3.912944  0.0
C  C39  1  0.44089857  0.00416380  0.18409636  1  -0.196277  -0.000206  3.655195  0.0  -0.192244  -1e-05  3.923393  0.0  -0.195922  1.4e-05  3.940103  0.0  -0.032536  -8.8e-05  -0.028487  -0.190334  -3.6e-05  3.912975  0.0
C  C40  1  0.44089442  0.00416587  0.31590550  1  -0.196226  0.000156  3.65515  0.0  -0.192343  1.6e-05  3.923634  0.0  -0.196048  -1e-06  3.940376  0.0  -0.032543  8.8e-05  -0.028496  -0.190326  3.6e-05  3.913075  0.0
C  C41  1  0.05910326  0.50416787  0.68409543  1  -0.196374  0.000188  3.655244  0.0  -0.192466  1.1e-05  3.92367  0.0  -0.196165  -9e-06  3.940399  0.0  -0.032478  8.7e-05  -0.028545  -0.190469  3.6e-05  3.913136  0.0
C  C42  1  0.94089624  0.49583406  0.18409543  1  -0.196315  -0.000179  3.655221  0.0  -0.192333  -1.3e-05  3.923578  0.0  -0.196033  7e-06  3.940315  0.0  -0.032474  -8.8e-05  -0.02848  -0.190318  -3.7e-05  3.913027  0.0
C  C43  1  0.55910232  0.99583398  0.81590504  1  -0.196342  -0.000245  3.655273  0.0  -0.192395  -1.1e-05  3.923582  0.0  -0.19609  1.1e-05  3.940303  0.0  -0.032526  -8.7e-05  -0.028553  -0.190432  -3.6e-05  3.91309  0.0
C  C44  1  0.69486342  0.07042863  0.71722312  1  0.082111  -0.000247  3.780037  0.0  0.073408  -7.4e-05  4.062909  0.0  0.077351  -5.7e-05  4.081929  0.0  0.037038  -0.000194  0.008719  0.070643  -0.000119  4.050199  0.0
C  C45  1  0.80513791  0.57042752  0.28277781  1  0.082149  -0.000229  3.779952  0.0  0.073407  -7.5e-05  4.062863  0.0  0.07738  -5.7e-05  4.081912  0.0  0.22672  -0.000195  0.008719  0.070606  -0.000119  4.050156  0.0
C  C46  1  0.19485883  0.42957233  0.78277688  1  0.08213  0.00023  3.780027  0.0  0.073409  7.3e-05  4.062889  0.0  0.077381  5.5e-05  4.081933  0.0  0.037005  0.000196  0.008765  0.070611  0.00012  4.050162  0.0
C  C47  1  0.30513608  0.92956915  0.21722126  1  0.082097  0.00023  3.78014  0.0  0.073359  7.5e-05  4.063026  0.0  0.077334  5.4e-05  4.082046  0.0  0.226664  0.000195  0.008693  0.070581  0.000119  4.050333  0.0
C  C48  1  0.30513885  0.92957226  0.28277594  1  0.082176  -0.000219  3.779953  0.0  0.073429  -7.7e-05  4.062876  0.0  0.077406  -5.7e-05  4.081922  0.0  0.037039  -0.000195  0.00873  0.070628  -0.000119  4.05015  0.0
C  C49  1  0.19486159  0.42957233  0.71722266  1  0.082186  -0.000219  3.780029  0.0  0.073435  -7.3e-05  4.062935  0.0  0.07741  -5.6e-05  4.081977  0.0  0.226631  -0.000194  0.008721  0.070634  -0.000119  4.050216  0.0
C  C50  1  0.80513652  0.57042856  0.21722312  1  0.082159  0.000229  3.779909  0.0  0.07341  7.5e-05  4.062835  0.0  0.077389  5.5e-05  4.081867  0.0  0.036993  0.000195  0.008716  0.070606  0.000119  4.05012  0.0
C  C51  1  0.69486204  0.07042760  0.78277734  1  0.08217  0.000256  3.779919  0.0  0.073421  7.4e-05  4.062831  0.0  0.077393  5.5e-05  4.081882  0.0  0.226646  0.000196  0.008723  0.070631  0.00012  4.05011  0.0
C  C52  1  0.40845464  0.93907231  0.71702711  1  0.083607  -0.000354  3.76647  0.0  0.07322  -0.000101  4.055951  0.0  0.077456  -7.2e-05  4.07446  0.0  0.017643  -0.00026  0.009583  0.070232  -0.000159  4.04372  0.0
C  C53  1  0.09154304  0.43907135  0.28297289  1  0.083611  -0.000343  3.766417  0.0  0.073269  -0.000101  4.05588  0.0  0.077539  -7.3e-05  4.074407  0.0  0.017678  -0.000261  0.009599  0.070251  -0.000159  4.043641  0.0
C  C54  1  0.90845508  0.56092747  0.78297242  1  0.083637  0.000352  3.766399  0.0  0.073231  0.0001  4.055881  0.0  0.077499  7.1e-05  4.074411  0.0  0.017674  0.000263  0.009601  0.07021  0.00016  4.04363  0.0
C  C55  1  0.59154625  0.06092754  0.21702665  1  0.083604  0.000332  3.766492  0.0  0.073209  0.000101  4.055949  0.0  0.077473  7e-05  4.074474  0.0  0.206821  0.000261  0.009579  0.070215  0.000159  4.043726  0.0
C  C56  1  0.59154071  0.06092547  0.28297289  1  0.083492  -0.000315  3.766534  0.0  0.073151  -0.000102  4.055972  0.0  0.077423  -7.2e-05  4.074504  0.0  0.017719  -0.000262  0.009564  0.070125  -0.000159  4.043724  0.0
C  C57  1  0.90845369  0.56092955  0.71702571  1  0.083596  -0.000334  3.76659  0.0  0.073273  -0.0001  4.056002  0.0  0.077542  -7.3e-05  4.074529  0.0  0.20683  -0.000261  0.00962  0.070253  -0.000159  4.043757  0.0
C  C58  1  0.09154304  0.43907238  0.21702665  1  0.083641  0.000334  3.766385  0.0  0.073207  0.000101  4.055923  0.0  0.077478  7e-05  4.074451  0.0  0.206836  0.000262  0.009583  0.070182  0.000159  4.04368  0.0
C  C59  1  0.40845602  0.93907335  0.78297335  1  0.083537  0.000362  3.766507  0.0  0.073225  0.0001  4.055897  0.0  0.077493  7.1e-05  4.074434  0.0  0.206852  0.000262  0.009589  0.070217  0.00016  4.043649  0.0
S  S60  1  0.58524244  0.98001820  0.60031241  1  1.339019  -0.000373  5.572623  0.0  1.233954  -7.8e-05  6.094384  0.0  1.281968  -7e-05  6.070691  0.0  3.211249  -0.000225  0.524853  1.200752  -3.3e-05  6.109698  0.0
S  S61  1  0.91476166  0.48001931  0.39968805  1  1.338933  -0.000378  5.572922  0.0  1.233792  -7.8e-05  6.094741  0.0  1.281841  -7.4e-05  6.071056  0.0  3.211211  -0.000226  0.524826  1.200563  -3.4e-05  6.110044  0.0
S  S62  1  0.08523923  0.51998158  0.89968712  1  1.338921  0.000375  5.572876  0.0  1.233786  7.8e-05  6.094672  0.0  1.281827  7e-05  6.070994  0.0  3.211187  0.000225  0.524816  1.200555  3.4e-05  6.109965  0.0
S  S63  1  0.41476260  0.01997958  0.10031241  1  1.338838  0.00037  5.572887  0.0  1.233696  7.9e-05  6.094683  0.0  1.281735  7e-05  6.071011  0.0  3.211222  0.000225  0.524826  1.200494  3.3e-05  6.109991  0.0
S  S64  1  0.41475845  0.01997958  0.39968805  1  1.338987  -0.000374  5.572719  0.0  1.233915  -8e-05  6.09449  0.0  1.281963  -7.4e-05  6.070807  0.0  3.211259  -0.000226  0.524845  1.200677  -3.4e-05  6.109795  0.0
S  S65  1  0.08524200  0.51998158  0.60031195  1  1.339088  -0.000371  5.57266  0.0  1.234037  -7.9e-05  6.094417  0.0  1.282087  -7e-05  6.070729  0.0  3.211237  -0.000225  0.524894  1.200808  -3.3e-05  6.109719  0.0
S  S66  1  0.91476166  0.48002139  0.10031195  1  1.338988  0.000377  5.572835  0.0  1.233911  7.9e-05  6.094606  0.0  1.28196  7.4e-05  6.070925  0.0  3.211215  0.000226  0.524947  1.200675  3.4e-05  6.109911  0.0
S  S67  1  0.58523967  0.98001924  0.89968852  1  1.338803  0.000375  5.573083  0.0  1.233773  7.8e-05  6.094839  0.0  1.281818  7e-05  6.071159  0.0  3.211254  0.000226  0.524878  1.200551  3.4e-05  6.110145  0.0
Cl  Cl68  1  0.85618314  0.16977142  0.67954381  1  -0.00636  0.00051  1.538424  0.0  0.002738  0.000369  1.804121  0.0  0.00037  0.000245  1.799186  0.0  -0.125549  0.000724  0.035399  0.004443  0.000565  1.807484  0.0
Cl  Cl69  1  0.64381542  0.66977238  0.32045665  1  -0.006374  0.000511  1.53841  0.0  0.002734  0.000369  1.804126  0.0  0.000366  0.000245  1.799183  0.0  -0.12556  0.000722  0.035409  0.00445  0.000564  1.807502  0.0
Cl  Cl70  1  0.35617854  0.33022643  0.82045665  1  -0.00638  -0.00051  1.538443  0.0  0.002718  -0.000369  1.804138  0.0  0.00035  -0.000245  1.799196  0.0  -0.125539  -0.000722  0.035384  0.004422  -0.000564  1.807509  0.0
Cl  Cl71  1  0.14381913  0.83022532  0.17954335  1  -0.006325  -0.000513  1.538531  0.0  0.002768  -0.000369  1.80425  0.0  0.000399  -0.000245  1.799308  0.0  -0.125582  -0.000723  0.035429  0.004483  -0.000565  1.807618  0.0
Cl  Cl72  1  0.14381498  0.83022532  0.32045619  1  -0.006413  0.000514  1.538401  0.0  0.002693  0.000369  1.804126  0.0  0.000325  0.000244  1.799182  0.0  -0.125567  0.000722  0.035379  0.004402  0.000564  1.807502  0.0
Cl  Cl73  1  0.35618131  0.33022747  0.67954381  1  -0.006361  0.00051  1.538443  0.0  0.002752  0.000369  1.804146  0.0  0.000386  0.000244  1.799201  0.0  -0.125538  0.000724  0.035403  0.004456  0.000565  1.807517  0.0
Cl  Cl74  1  0.64381819  0.66977342  0.17954381  1  -0.006378  -0.000511  1.538445  0.0  0.00273  -0.000369  1.804159  0.0  0.000361  -0.000244  1.799215  0.0  -0.125549  -0.000723  0.035405  0.004443  -0.000564  1.807534  0.0
Cl  Cl75  1  0.85618176  0.16977453  0.82045665  1  -0.006383  -0.00051  1.538401  0.0  0.002724  -0.000368  1.804113  0.0  0.000355  -0.000245  1.799171  0.0  -0.12557  -0.000722  0.035388  0.004429  -0.000564  1.807482  0.0
Cl  Cl76  1  0.21422024  0.87722859  0.68052016  1  -0.000919  6.4e-05  1.498329  0.0  0.006086  -4.8e-05  1.755845  0.0  0.004383  -6.2e-05  1.750059  0.0  -0.126597  4.6e-05  0.034569  0.007486  -1e-05  1.759643  0.0
Cl  Cl77  1  0.28578021  0.37722658  0.31948077  1  -0.000949  6.6e-05  1.498296  0.0  0.006055  -4.8e-05  1.755784  0.0  0.004353  -6.2e-05  1.749987  0.0  -0.126601  4.3e-05  0.034568  0.007466  -1.1e-05  1.759592  0.0
Cl  Cl78  1  0.71421653  0.62277119  0.81947938  1  -0.000958  -6.5e-05  1.498262  0.0  0.006045  4.8e-05  1.755785  0.0  0.004343  6.2e-05  1.749988  0.0  -0.126609  -4.3e-05  0.034546  0.007445  1.1e-05  1.759591  0.0
Cl  Cl79  1  0.78577927  0.12277127  0.18052016  1  -0.00092  -6.6e-05  1.498365  0.0  0.006082  4.8e-05  1.755871  0.0  0.004378  6.1e-05  1.750079  0.0  -0.126589  -4.5e-05  0.034582  0.007491  1e-05  1.759672  0.0
Cl  Cl80  1  0.78578065  0.12277230  0.31948124  1  -0.000937  6.4e-05  1.49827  0.0  0.00608  -4.8e-05  1.755751  0.0  0.004376  -6.2e-05  1.749956  0.0  -0.126595  4.3e-05  0.034556  0.007484  -1.1e-05  1.759563  0.0
Cl  Cl81  1  0.71422068  0.62277327  0.68051830  1  -0.000937  6.3e-05  1.498435  0.0  0.006061  -4.8e-05  1.755915  0.0  0.004359  -6.3e-05  1.750119  0.0  -0.126646  4.6e-05  0.034547  0.007457  -1e-05  1.759721  0.0
Cl  Cl82  1  0.28578021  0.37722866  0.18051969  1  -0.00098  -6.5e-05  1.498274  0.0  0.006043  4.8e-05  1.755804  0.0  0.004341  6.2e-05  1.750008  0.0  -0.126583  -4.4e-05  0.034542  0.007449  1.1e-05  1.759615  0.0
Cl  Cl83  1  0.21421747  0.87722859  0.81948124  1  -0.000955  -6.3e-05  1.498314  0.0  0.006042  4.8e-05  1.755784  0.0  0.004338  6.2e-05  1.749989  0.0  -0.126631  -4.3e-05  0.034536  0.007438  1.1e-05  1.759587  0.0
O  O84  1  0.84982395  0.16119170  0.47804648  1  -0.807357  0.068871  1.953715  0.094  -0.778408  0.043771  2.180006  0.064  -0.810142  0.03361  2.145754  0.051  -1.224365  0.081638  -0.584815  -0.756371  0.05104  2.20486  0.072
O  O85  1  0.65017600  0.66119474  0.52195306  1  -0.807253  0.068872  1.953725  0.094  -0.778342  0.04377  2.18008  0.064  -0.81008  0.03361  2.145844  0.051  -1.224435  0.081639  -0.584829  -0.756307  0.05104  2.204927  0.072
O  O86  1  0.34983181  0.33880616  0.02195492  1  -0.807183  -0.068869  1.953917  -0.094  -0.778232  -0.043771  2.180224  -0.064  -0.809959  -0.03361  2.145985  -0.051  -1.224351  -0.081637  -0.584775  -0.756197  -0.05104  2.205073  -0.072
O  O87  1  0.15017002  0.83880505  0.97804601  1  -0.807213  -0.06887  1.953819  -0.094  -0.778257  -0.043771  2.180185  -0.064  -0.809981  -0.03361  2.145945  -0.051  -1.224475  -0.081633  -0.584796  -0.756221  -0.051036  2.205035  -0.072
O  O88  1  0.15017694  0.83880816  0.52195306  1  -0.80736  0.068868  1.953763  0.094  -0.778413  0.04377  2.180061  0.064  -0.810145  0.03361  2.145811  0.051  -1.22437  0.081639  -0.584832  -0.75638  0.05104  2.204909  0.072
O  O89  1  0.34983043  0.33880408  0.47804694  1  -0.807207  0.068871  1.953888  0.094  -0.778291  0.043771  2.180145  0.064  -0.81003  0.033611  2.145912  0.051  -1.22441  0.081637  -0.584773  -0.75625  0.051039  2.204997  0.072
O  O90  1  0.65017184  0.66119266  0.97804508  1  -0.807217  -0.06887  1.953884  -0.094  -0.778309  -0.043772  2.180128  -0.064  -0.810036  -0.033611  2.145891  -0.051  -1.224356  -0.081641  -0.584805  -0.756279  -0.051042  2.204973  -0.072
O  O91  1  0.84983226  0.16119585  0.02195399  1  -0.807235  -0.068868  1.953859  -0.094  -0.778279  -0.043771  2.180242  -0.064  -0.810005  -0.033609  2.146  -0.051  -1.224386  -0.081629  -0.58479  -0.756238  -0.051035  2.205097  -0.072
O  O92  1  0.86082689  0.87880467  0.44181236  1  -0.825957  0.06293  1.968099  0.086  -0.807551  0.041835  2.197916  0.061  -0.837634  0.032019  2.163127  0.049  -1.225669  0.077872  -0.587411  -0.786287  0.049035  2.222978  0.069
O  O93  1  0.63917306  0.37880578  0.55818857  1  -0.825956  0.062927  1.968072  0.086  -0.807543  0.041835  2.197824  0.061  -0.83763  0.032019  2.163046  0.049  -1.225693  0.077876  -0.587367  -0.786285  0.049038  2.222905  0.069
O  O94  1  0.36082922  0.62119615  0.05818718  1  -0.825899  -0.06293  1.968115  -0.086  -0.807496  -0.041835  2.197925  -0.061  -0.837576  -0.032018  2.163145  -0.049  -1.225679  -0.077875  -0.587376  -0.786239  -0.049036  2.22299  -0.069
O  O95  1  0.13917261  0.12119415  0.94181143  1  -0.825962  -0.062932  1.968066  -0.086  -0.80756  -0.041837  2.197854  -0.061  -0.837641  -0.032018  2.163069  -0.049  -1.225832  -0.077873  -0.58738  -0.786303  -0.049036  2.222938  -0.069
O  O96  1  0.13917261  0.12119623  0.55818764  1  -0.825957  0.062932  1.968101  0.086  -0.80755  0.041834  2.197877  0.061  -0.837632  0.032018  2.163084  0.049  -1.225672  0.077876  -0.587431  -0.786286  0.049038  2.222939  0.069
O  O97  1  0.36082783  0.62119408  0.44181143  1  -0.825974  0.062924  1.967994  0.086  -0.80757  0.041834  2.197809  0.061  -0.837657  0.032017  2.163034  0.049  -1.225835  0.07787  -0.587388  -0.786316  0.049034  2.222892  0.069
O  O98  1  0.63917306  0.37880370  0.94181236  1  -0.825908  -0.062931  1.968166  -0.086  -0.807501  -0.041836  2.197963  -0.061  -0.837581  -0.032018  2.163181  -0.049  -1.225675  -0.077879  -0.587411  -0.786245  -0.049039  2.223039  -0.069
O  O99  1  0.86082828  0.87880570  0.05818811  1  -0.825955  -0.062929  1.968077  -0.086  -0.807559  -0.041835  2.197898  -0.061  -0.837637  -0.032017  2.163113  -0.049  -1.225845  -0.077865  -0.587408  -0.786298  -0.049031  2.22297  -0.069
O  O100  1  0.77993927  0.95475113  0.58873364  1  -0.646951  -0.000168  2.042405  0.001  -0.616483  -0.0006  2.323623  0.0  -0.637043  -0.000857  2.306803  0.0  -1.31084  0.000141  -0.327357  -0.601925  9e-06  2.335043  0.001
O  O101  1  0.72006206  0.45475121  0.41126729  1  -0.646936  -0.000175  2.042472  0.001  -0.616473  -0.000599  2.323721  0.0  -0.637035  -0.00085  2.306899  0.0  -1.310771  0.00014  -0.32736  -0.601911  9e-06  2.33515  0.001
O  O102  1  0.27993606  0.54525072  0.91126496  1  -0.646893  0.000193  2.042513  -0.001  -0.616445  0.000599  2.323757  0.0  -0.637005  0.000852  2.306933  0.0  -1.310754  -0.000139  -0.327338  -0.601888  -9e-06  2.335183  -0.001
O  O103  1  0.22006023  0.04524872  0.08873317  1  -0.64694  0.000179  2.042452  -0.001  -0.616487  0.000599  2.323705  0.0  -0.637047  0.000852  2.306882  0.0  -1.310757  -0.000138  -0.327376  -0.601923  -8e-06  2.335128  -0.001
O  O104  1  0.22006023  0.04524872  0.41126589  1  -0.64695  -0.000176  2.042412  0.001  -0.616475  -0.000598  2.323634  0.0  -0.637035  -0.000851  2.306805  0.0  -1.310826  0.000141  -0.327364  -0.601913  1e-05  2.335066  0.001
O  O105  1  0.27994160  0.54524865  0.58873317  1  -0.64699  -0.000184  2.042406  0.001  -0.61653  -0.000599  2.323624  0.0  -0.637091  -0.000851  2.3068  0.0  -1.31085  0.000141  -0.327392  -0.601971  9e-06  2.335049  0.001
O  O106  1  0.72006067  0.45475432  0.08873364  1  -0.64695  0.00018  2.042409  -0.001  -0.616491  0.000598  2.323639  0.0  -0.637052  0.00085  2.30681  0.0  -1.310768  -0.000141  -0.327408  -0.60193  -1e-05  2.335072  -0.001
O  O107  1  0.77993650  0.95475321  0.91126683  1  -0.646894  0.000172  2.042492  -0.001  -0.616415  0.0006  2.323681  0.0  -0.636973  0.000854  2.306852  0.0  -1.310784  -0.000138  -0.327387  -0.601857  -8e-06  2.335108  -0.001
O  O108  1  0.51164720  0.11061294  0.57400934  1  -0.667214  0.002376  2.020882  0.004  -0.598568  0.001177  2.256273  0.002  -0.620795  0.000619  2.242069  0.001  -1.32623  0.00302  -0.322987  -0.582551  0.001761  2.265798  0.003
O  O109  1  0.98835275  0.61061391  0.42599066  1  -0.667169  0.002378  2.020985  0.004  -0.59843  0.001176  2.25634  0.002  -0.620648  0.000619  2.242116  0.001  -1.32626  0.003019  -0.322951  -0.582407  0.001761  2.265869  0.003
O  O110  1  0.01164675  0.38938698  0.92599113  1  -0.66721  -0.002379  2.02086  -0.004  -0.59847  -0.001175  2.256214  -0.002  -0.620685  -0.000617  2.241991  -0.001  -1.326245  -0.00302  -0.322999  -0.582453  -0.001761  2.265745  -0.003
O  O111  1  0.48835507  0.88938484  0.07400887  1  -0.667141  -0.002368  2.021048  -0.004  -0.598389  -0.001176  2.256388  -0.002  -0.620605  -0.000619  2.242168  -0.001  -1.326274  -0.00302  -0.322956  -0.582366  -0.001761  2.26591  -0.003
O  O112  1  0.48834815  0.88938691  0.42599159  1  -0.667194  0.002385  2.020946  0.004  -0.59846  0.001175  2.256281  0.002  -0.620679  0.000617  2.24206  0.001  -1.326285  0.003019  -0.322962  -0.582439  0.001761  2.265813  0.003
O  O113  1  0.01164814  0.38938698  0.57400887  1  -0.667223  0.002379  2.020894  0.004  -0.59859  0.001176  2.256293  0.002  -0.620816  0.000617  2.242079  0.001  -1.32624  0.003021  -0.322995  -0.582576  0.001761  2.265827  0.003
O  O114  1  0.98835413  0.61061598  0.07400934  1  -0.667158  -0.002383  2.021004  -0.004  -0.598416  -0.001175  2.256335  -0.002  -0.620637  -0.000618  2.242117  -0.001  -1.326363  -0.00302  -0.322971  -0.582397  -0.001761  2.265868  -0.003
O  O115  1  0.51164581  0.11061398  0.92599113  1  -0.667101  -0.002361  2.021034  -0.003  -0.598443  -0.001176  2.256404  -0.002  -0.620668  -0.000621  2.242194  -0.001  -1.326267  -0.00302  -0.322947  -0.582427  -0.001761  2.265934  -0.003
O  O116  1  0.47022037  0.86046757  0.58125719  1  -0.680223  0.002073  2.113049  0.003  -0.61114  0.001071  2.351056  0.002  -0.633935  0.000547  2.337571  0.001  -1.332131  0.002324  -0.325774  -0.594689  0.001362  2.359919  0.002
O  O117  1  0.02978285  0.36046765  0.41874421  1  -0.680135  0.002066  2.113073  0.003  -0.611043  0.001071  2.351069  0.002  -0.63384  0.000547  2.337579  0.001  -1.332127  0.002323  -0.325754  -0.594588  0.001362  2.359937  0.002
O  O118  1  0.97021389  0.63953117  0.91874281  1  -0.68011  -0.002086  2.113061  -0.003  -0.611035  -0.001071  2.351093  -0.002  -0.63383  -0.000544  2.337608  -0.001  -1.332126  -0.002325  -0.32573  -0.594586  -0.001363  2.359961  -0.002
O  O119  1  0.52978468  0.13953228  0.08125672  1  -0.680064  -0.002075  2.11304  -0.003  -0.611009  -0.001071  2.35109  -0.002  -0.633804  -0.000544  2.337608  -0.001  -1.332135  -0.002324  -0.325748  -0.594552  -0.001362  2.35995  -0.002
O  O120  1  0.52978052  0.13953021  0.41874328  1  -0.680182  0.002081  2.112969  0.003  -0.611201  0.001071  2.351054  0.002  -0.633995  0.000545  2.337561  0.001  -1.332104  0.002323  -0.325768  -0.594745  0.001362  2.359926  0.002
O  O121  1  0.97022219  0.63953428  0.58125626  1  -0.680183  0.002081  2.112978  0.003  -0.611121  0.001071  2.350965  0.002  -0.633917  0.000545  2.337472  0.001  -1.332128  0.002324  -0.325773  -0.594672  0.001362  2.359834  0.002
O  O122  1  0.02978285  0.36047076  0.08125626  1  -0.68017  -0.002085  2.113008  -0.003  -0.611178  -0.00107  2.351081  -0.002  -0.633972  -0.000543  2.33759  -0.001  -1.332105  -0.002324  -0.325818  -0.59472  -0.001362  2.359951  -0.002
O  O123  1  0.47021760  0.86046965  0.91874374  1  -0.680075  -0.002074  2.113106  -0.003  -0.611125  -0.001071  2.351182  -0.002  -0.633919  -0.000545  2.337696  -0.001  -1.33214  -0.002325  -0.325793  -0.594671  -0.001363  2.360048  -0.002
