# generated using pymatgen
data_CoH24C26N4O7
_symmetry_space_group_name_H-M   'P 1'
_cell_length_a   9.69920879
_cell_length_b   11.04376458
_cell_length_c   11.45532731
_cell_angle_alpha   92.12355641
_cell_angle_beta   93.18760876
_cell_angle_gamma   97.48240114
_symmetry_Int_Tables_number   1
_chemical_formula_structural   CoH24C26N4O7
_chemical_formula_sum   'Co2 H48 C52 N8 O14'
_cell_volume   1213.49896074
_cell_formula_units_Z   2
loop_
 _symmetry_equiv_pos_site_id
 _symmetry_equiv_pos_as_xyz
  1  'x, y, z'
loop_
 _atom_site_type_symbol
 _atom_site_label
 _atom_site_symmetry_multiplicity
 _atom_site_fract_x
 _atom_site_fract_y
 _atom_site_fract_z
 _atom_site_occupancy
 _atom_site_pbe_cm5_charge
 _atom_site_pbe_ddec_charge
 _atom_site_pbe_ddec_spin_density
 _atom_site_pbe_ddec_sum_bond_order
 _atom_site_pbe_magmom
Co  Co0  1  0.29377480  0.10923158  0.29508365  1  0.683661  0.830398  2.783608  2.505284  2.51
Co  Co1  1  0.70622240  0.89076758  0.70491588  1  0.68367  0.830409  2.783632  2.505261  2.51
H  H2  1  0.43457450  0.20568450  0.62633866  1  0.299967  0.366789  3.5e-05  0.987625  0.0
H  H3  1  0.56542512  0.79432472  0.37366051  1  0.299959  0.366845  3.5e-05  0.987557  0.0
H  H4  1  0.08314763  0.04868953  0.07539915  1  0.118624  0.117438  0.000331  1.044652  0.001
H  H5  1  0.91684980  0.95131056  0.92459258  1  0.118632  0.117459  0.000332  1.044639  0.001
H  H6  1  0.07801839  0.17753344  0.77980656  1  0.11144  0.095234  -7.5e-05  0.986963  0.0
H  H7  1  0.92198713  0.82246582  0.22018994  1  0.111457  0.095277  -6e-05  0.986874  0.0
H  H8  1  0.04338133  0.29157396  0.88214611  1  0.110762  0.09051  -2.3e-05  0.970509  0.0
H  H9  1  0.95662301  0.70842437  0.11785204  1  0.110748  0.090489  -2.5e-05  0.970482  0.0
H  H10  1  0.74476265  0.08426543  0.31933637  1  0.105466  0.113398  0.000128  1.021922  0.0
H  H11  1  0.25523571  0.91573465  0.68066326  1  0.105479  0.113401  0.000126  1.021909  0.0
H  H12  1  0.50992441  0.81916905  0.96544779  1  0.11149  0.095231  2e-06  1.013413  0.0
H  H13  1  0.49007844  0.18083381  0.03455481  1  0.111481  0.095235  5e-06  1.013448  0.0
H  H14  1  0.41280363  0.85523737  0.83804703  1  0.111196  0.096924  0.000136  1.008515  0.0
H  H15  1  0.58719811  0.14475728  0.16195346  1  0.111187  0.096884  0.000134  1.008582  0.0
H  H16  1  0.12806483  0.62629554  0.58082375  1  0.098533  0.09686  -2.4e-05  1.039238  0.0
H  H17  1  0.87192547  0.37370627  0.41917812  1  0.098551  0.096898  -2.2e-05  1.039315  0.0
H  H18  1  0.38153383  0.63470519  0.84636520  1  0.093465  0.095957  -2e-06  0.99155  0.0
H  H19  1  0.61847339  0.36529225  0.15364181  1  0.093481  0.095925  -1e-06  0.991579  0.0
H  H20  1  0.22263383  0.68517606  0.87915833  1  0.095018  0.092233  7e-06  0.979238  0.0
H  H21  1  0.77737223  0.31482045  0.12084771  1  0.09497  0.092165  4e-06  0.979219  0.0
H  H22  1  0.65301549  0.22953301  0.65731172  1  0.106367  0.115013  -9e-06  1.050632  0.0
H  H23  1  0.34698560  0.77046437  0.34268796  1  0.106331  0.114956  -7e-06  1.050671  0.0
H  H24  1  0.97771826  0.47369266  0.68513514  1  0.096049  0.092929  2e-06  1.055576  0.0
H  H25  1  0.02227724  0.52630191  0.31486762  1  0.096023  0.092885  4e-06  1.055694  0.0
H  H26  1  0.07557806  0.18683360  0.58162389  1  0.108129  0.126751  0.000151  1.029893  0.0
H  H27  1  0.92441864  0.81316190  0.41837549  1  0.108171  0.126766  0.000154  1.029851  0.0
H  H28  1  0.37847075  0.60205828  0.55908960  1  0.099243  0.101654  -6.8e-05  1.032129  0.0
H  H29  1  0.62152003  0.39794629  0.44090454  1  0.09926  0.101665  -6.9e-05  1.032103  0.0
H  H30  1  0.15187276  0.91339160  0.88074487  1  0.119129  0.138024  0.000296  1.067722  0.0
H  H31  1  0.84812967  0.08660762  0.11925059  1  0.119149  0.138043  0.000296  1.067619  0.0
H  H32  1  0.46558839  0.91878768  0.15611282  1  0.135176  0.112471  -2.5e-05  1.03777  0.0
H  H33  1  0.53440892  0.08121239  0.84388850  1  0.135166  0.112468  -2.5e-05  1.037818  0.0
H  H34  1  0.47404172  0.42494046  0.64424977  1  0.100196  0.092834  -3e-05  1.040913  0.0
H  H35  1  0.52595644  0.57506511  0.35574307  1  0.100173  0.092837  -2.8e-05  1.04094  0.0
H  H36  1  0.44389279  0.60676428  0.05336281  1  0.092878  0.092986  -8e-06  0.986145  0.0
H  H37  1  0.55611134  0.39323312  0.94664228  1  0.092912  0.093047  -8e-06  0.986145  0.0
H  H38  1  0.30408129  0.68125457  0.09904195  1  0.093573  0.088604  -8e-06  1.010326  0.0
H  H39  1  0.69592512  0.31874468  0.90096596  1  0.09355  0.088547  -7e-06  1.010331  0.0
H  H40  1  0.13209232  0.51442069  0.01022997  1  0.1043  0.078546  3.8e-05  0.974858  0.0
H  H41  1  0.86790986  0.48558490  0.98977357  1  0.104284  0.078528  3.4e-05  0.974933  0.0
H  H42  1  0.26561137  0.43999296  0.95063535  1  0.111048  0.088629  1.1e-05  1.019874  0.0
H  H43  1  0.73438926  0.56000897  0.04936884  1  0.111004  0.088576  2e-06  1.019865  0.0
H  H44  1  0.27678073  0.25503582  0.05300307  1  0.137248  0.114846  9e-06  1.05865  0.0
H  H45  1  0.72322071  0.74496429  0.94699936  1  0.137239  0.114836  8e-06  1.058598  0.0
H  H46  1  0.28888238  0.37708388  0.40815596  1  0.11932  0.119336  0.000252  1.022489  0.001
H  H47  1  0.71111337  0.62291252  0.59184689  1  0.11935  0.119376  0.000256  1.022453  0.001
H  H48  1  0.24896995  0.57130794  0.26547252  1  0.122005  0.121048  0.000353  1.050319  0.0
H  H49  1  0.75102669  0.42868755  0.73453209  1  0.121997  0.121057  0.000356  1.050316  0.0
C  C50  1  0.91973518  0.13359855  0.44409333  1  -0.013773  0.001005  0.001967  3.979388  0.003
C  C51  1  0.08026385  0.86639880  0.55590537  1  -0.013826  0.001158  0.001959  3.979319  0.003
C  C52  1  0.13972849  0.36381451  0.72784146  1  -0.00792  0.055694  -2.7e-05  3.95715  0.0
C  C53  1  0.86027402  0.63618563  0.27215753  1  -0.007933  0.055736  -3.3e-05  3.95703  0.0
C  C54  1  0.17228786  0.00153120  0.06180981  1  -0.007815  -0.036507  0.000436  4.001456  0.001
C  C55  1  0.82770728  0.99846794  0.93818874  1  -0.007896  -0.036618  0.000443  4.001585  0.001
C  C56  1  0.68166151  0.15549156  0.48380891  1  -0.017639  -0.021501  0.002527  4.001572  0.004
C  C57  1  0.31833545  0.84450577  0.51619055  1  -0.017521  -0.021421  0.002526  4.001612  0.004
C  C58  1  0.28099156  0.35097241  0.71532296  1  -0.023696  -0.116311  1.1e-05  3.992133  0.0
C  C59  1  0.71901045  0.64903138  0.28467264  1  -0.023665  -0.116224  1.3e-05  3.992044  0.0
C  C60  1  0.86786815  0.21341041  0.63371183  1  0.082492  0.250635  0.000609  4.06923  0.001
C  C61  1  0.13213061  0.78658511  0.36628853  1  0.082414  0.250577  0.000633  4.069328  0.001
C  C62  1  0.04439572  0.26873756  0.78801462  1  -0.060229  -0.02711  -3.2e-05  3.903935  0.0
C  C63  1  0.95560862  0.73126077  0.21198354  1  -0.060225  -0.027171  -4.9e-05  3.903739  0.0
C  C64  1  0.53151882  0.15212805  0.44384984  1  0.218814  0.57968  0.000544  4.154779  0.0
C  C65  1  0.46847939  0.84787112  0.55615149  1  0.218773  0.579583  0.000533  4.154912  0.0
C  C66  1  0.77862477  0.12034128  0.40734715  1  -0.082485  -0.122142  0.000973  3.925606  0.001
C  C67  1  0.22137413  0.87965516  0.59265238  1  -0.082498  -0.12217  0.000979  3.925583  0.001
C  C68  1  0.40448895  0.81612317  0.92449878  1  -0.053473  -0.07779  0.000711  3.879577  0.001
C  C69  1  0.59551237  0.18387603  0.07550273  1  -0.053423  -0.077759  0.000705  3.879636  0.001
C  C70  1  0.34394800  0.25111769  0.77422210  1  0.228842  0.583832  3.6e-05  4.148713  0.0
C  C71  1  0.65605732  0.74888795  0.22577725  1  0.228811  0.583667  3.4e-05  4.148811  0.0
C  C72  1  0.17174904  0.54912482  0.61802457  1  -0.085189  -0.059509  -6.3e-05  3.979933  0.0
C  C73  1  0.82824337  0.45087702  0.38197480  1  -0.08526  -0.059632  -6.5e-05  3.980118  0.0
C  C74  1  0.33113740  0.68481964  0.91316178  1  -0.162324  -0.15873  0.000147  3.927182  0.0
C  C75  1  0.66886880  0.31517779  0.08684343  1  -0.162309  -0.158656  0.000149  3.927205  0.0
C  C76  1  0.72692146  0.20233167  0.59666582  1  -0.096276  -0.221245  0.001893  3.960965  0.001
C  C77  1  0.27307743  0.79766477  0.40333459  1  -0.096273  -0.221209  0.001883  3.961049  0.001
C  C78  1  0.08714036  0.46346451  0.67803408  1  -0.096095  -0.13513  1.9e-05  3.974305  0.0
C  C79  1  0.91285569  0.53653372  0.32196535  1  -0.096055  -0.135055  1.2e-05  3.974415  0.0
C  C80  1  0.96477321  0.17890070  0.55745795  1  -0.094843  -0.212618  0.000164  3.936972  0.0
C  C81  1  0.03522774  0.82109576  0.44254256  1  -0.094869  -0.212735  0.000156  3.937058  0.0
C  C82  1  0.31144211  0.53564202  0.60562891  1  -0.091784  -0.087822  -1.1e-05  3.996434  0.0
C  C83  1  0.68855096  0.46436440  0.39436717  1  -0.091742  -0.087736  -8e-06  3.996491  0.0
C  C84  1  0.20501530  0.93403351  0.96678250  1  -0.00393  -0.108391  0.002854  3.887657  0.004
C  C85  1  0.79498740  0.06596755  0.03321129  1  -0.003922  -0.108355  0.002848  3.887732  0.004
C  C86  1  0.37111170  0.93735509  0.10877853  1  0.141203  0.089572  0.003777  3.894679  0.005
C  C87  1  0.62888578  0.06264590  0.89121935  1  0.141216  0.089588  0.003777  3.894619  0.005
C  C88  1  0.02652568  0.10573419  0.36060763  1  0.202041  0.559683  0.002392  4.213806  0.001
C  C89  1  0.97347476  0.89426592  0.63939125  1  0.20198  0.559504  0.0024  4.213717  0.001
C  C90  1  0.36517773  0.43612518  0.65348537  1  -0.087743  -0.094372  -6e-06  3.994729  0.0
C  C91  1  0.63482144  0.56388040  0.34651014  1  -0.087754  -0.094458  -1.2e-05  3.994854  0.0
C  C92  1  0.33604894  0.62149333  0.02926375  1  -0.16549  -0.167316  6.7e-05  3.939501  0.0
C  C93  1  0.66395543  0.37850590  0.97074229  1  -0.165476  -0.16728  6.4e-05  3.939476  0.0
C  C94  1  0.24195656  0.49955727  0.02377218  1  -0.048942  -0.057063  0.000558  3.893087  0.001
C  C95  1  0.75804279  0.50044282  0.97623187  1  -0.048926  -0.05704  0.000581  3.893155  0.001
C  C96  1  0.27585381  0.31219956  0.13199500  1  0.141244  0.08488  0.001362  3.892523  0.002
C  C97  1  0.72414634  0.68779871  0.86800728  1  0.141253  0.084889  0.001375  3.89242  0.002
C  C98  1  0.28068766  0.38079382  0.31366772  1  0.001586  -0.019453  4.2e-05  3.971544  0.001
C  C99  1  0.71931119  0.61920261  0.68633530  1  0.001582  -0.019454  4.9e-05  3.971454  0.001
C  C100  1  0.26137348  0.47705685  0.24456057  1  -0.00324  -0.116745  0.002771  3.919987  0.004
C  C101  1  0.73862550  0.52294050  0.75544249  1  -0.003205  -0.116757  0.002759  3.919949  0.004
N  N102  1  0.33103168  0.89457164  0.99786510  1  -0.246247  0.043234  0.002  3.773087  0.003
N  N103  1  0.66896874  0.10542847  0.00213552  1  -0.246232  0.043248  0.002003  3.773057  0.003
N  N104  1  0.27655424  0.00334873  0.14981046  1  -0.374156  -0.326634  0.036149  3.678492  0.044
N  N105  1  0.72344210  0.99665134  0.85018470  1  -0.374121  -0.326598  0.036143  3.678289  0.044
N  N106  1  0.25878536  0.43208360  0.12994274  1  -0.244309  0.045465  0.001298  3.765897  0.002
N  N107  1  0.74121398  0.56791648  0.87006131  1  -0.244371  0.045435  0.001292  3.765949  0.002
N  N108  1  0.28985560  0.27869430  0.24232481  1  -0.362915  -0.303535  0.036612  3.659994  0.05
N  N109  1  0.71014352  0.72130397  0.75767654  1  -0.362865  -0.303487  0.036598  3.659946  0.05
O  O110  1  0.90113459  0.26179113  0.74570843  1  -0.186273  -0.211926  2.8e-05  2.541949  0.0
O  O111  1  0.09886857  0.73820627  0.25429137  1  -0.186241  -0.211869  2.3e-05  2.541948  0.0
O  O112  1  0.45177346  0.21185645  0.50105887  1  -0.316211  -0.562685  0.006031  2.258409  0.01
O  O113  1  0.54822891  0.78815008  0.49893860  1  -0.316212  -0.562659  0.006032  2.258445  0.01
O  O114  1  0.15132260  0.10297838  0.40698233  1  -0.326703  -0.543011  0.054355  2.385551  0.081
O  O115  1  0.84867436  0.89701895  0.59301625  1  -0.326637  -0.542924  0.054361  2.385443  0.081
O  O116  1  0.99417817  0.09006422  0.25311428  1  -0.316762  -0.557678  0.009186  2.180844  0.014
O  O117  1  0.00582278  0.90993955  0.74688388  1  -0.316778  -0.557656  0.009189  2.180804  0.014
O  O118  1  0.48806682  0.09201427  0.34778780  1  -0.310589  -0.528855  0.045414  2.354613  0.068
O  O119  1  0.51192894  0.90798213  0.65221418  1  -0.310599  -0.52885  0.045414  2.354577  0.068
O  O120  1  0.32145037  0.22812906  0.87691438  1  -0.292045  -0.515429  4.4e-05  2.183377  0.0
O  O121  1  0.67855841  0.77187846  0.12307737  1  -0.29206  -0.515425  4.3e-05  2.183311  0.0
O  O122  1  0.42831414  0.18970686  0.71575280  1  -0.321404  -0.478807  6.8e-05  2.354082  0.0
O  O123  1  0.57169303  0.81029698  0.28424484  1  -0.321361  -0.478771  7.1e-05  2.354204  0.0
