# generated using pymatgen
data_CuP2H18C20(NO2)4
_symmetry_space_group_name_H-M   'P 1'
_cell_length_a   7.79964524
_cell_length_b   10.98473408
_cell_length_c   14.31800000
_cell_angle_alpha   90.00000000
_cell_angle_beta   90.00000000
_cell_angle_gamma   90.66100240
_symmetry_Int_Tables_number   1
_chemical_formula_structural   CuP2H18C20(NO2)4
_chemical_formula_sum   'Cu2 P4 H36 C40 N8 O16'
_cell_volume   1226.64206598
_cell_formula_units_Z   2
loop_
 _symmetry_equiv_pos_site_id
 _symmetry_equiv_pos_as_xyz
  1  'x, y, z'
loop_
 _atom_site_type_symbol
 _atom_site_label
 _atom_site_symmetry_multiplicity
 _atom_site_fract_x
 _atom_site_fract_y
 _atom_site_fract_z
 _atom_site_occupancy
 _atom_site_pbe_bader_charge
 _atom_site_pbe_bader_spin_density
 _atom_site_pbe_cm5_charge
 _atom_site_pbe_ddec_charge
 _atom_site_pbe_ddec_spin_density
 _atom_site_pbe_ddec_sum_bond_order
 _atom_site_pbe_magmom
Cu  Cu0  1  0.99999193  0.50000077  0.00000140  1  1.133728  0.604853  0.779988  0.85422  0.758589  2.28453  0.602
Cu  Cu1  1  0.49999507  0.99999790  0.49999930  1  1.133764  0.604846  0.779942  0.85414  0.758591  2.284536  0.602
P  P2  1  0.81678613  0.54426787  0.19065582  1  3.397086  0.002469  0.343061  1.208298  0.004075  5.458764  0.002
P  P3  1  0.68319832  0.95573171  0.69064744  1  3.39696  0.002467  0.343132  1.20818  0.004073  5.458647  0.002
P  P4  1  0.18320354  0.45573367  0.80935186  1  3.397078  0.002467  0.343072  1.208142  0.004073  5.458904  0.002
P  P5  1  0.31680294  0.04427348  0.30934767  1  3.396848  0.002468  0.342932  1.207931  0.004073  5.459088  0.002
H  H6  1  0.98087550  0.67446267  0.26574382  1  0.618273  -0.000132  0.344054  0.403462  -0.000133  0.855184  0.0
H  H7  1  0.51911915  0.82553327  0.76574591  1  0.618215  -0.000132  0.344062  0.40347  -0.000133  0.855305  0.0
H  H8  1  0.01911684  0.32554525  0.73425269  1  0.618281  -0.000132  0.344045  0.403459  -0.000133  0.855188  0.0
H  H9  1  0.48088985  0.17447464  0.23425828  1  0.618094  -0.000132  0.344049  0.403449  -0.000133  0.855342  0.0
H  H10  1  0.69702528  0.79921409  0.22379522  1  0.076318  3.8e-05  0.112656  0.120341  4.4e-05  1.002511  0.0
H  H11  1  0.80296826  0.70079277  0.72379173  1  0.076432  3.8e-05  0.112673  0.120363  4.4e-05  1.002466  0.0
H  H12  1  0.30296576  0.20079383  0.77620268  1  0.076453  3.8e-05  0.112686  0.120359  4.4e-05  1.002537  0.0
H  H13  1  0.19703431  0.29921423  0.27620827  1  0.076342  3.8e-05  0.112692  0.120394  4.4e-05  1.002508  0.0
H  H14  1  0.51730666  0.93808604  0.12688434  1  0.110266  1.3e-05  0.105678  0.109949  -1e-06  1.015479  0.0
H  H15  1  0.98269194  0.56191627  0.62688644  1  0.110296  1.3e-05  0.105669  0.109945  -1e-06  1.015502  0.0
H  H16  1  0.48269444  0.06190912  0.87310169  1  0.11006  1.3e-05  0.105641  0.10995  -1e-06  1.015367  0.0
H  H17  1  0.01730932  0.43808892  0.37311217  1  0.110199  1.3e-05  0.10571  0.110035  -1e-06  1.015381  0.0
H  H18  1  0.42255043  0.86489597  0.96741514  1  0.079854  -1.7e-05  0.109748  0.113369  -2.6e-05  0.997545  0.0
H  H19  1  0.07744872  0.63509906  0.46741305  1  0.07979  -1.7e-05  0.109796  0.113452  -2.6e-05  0.997457  0.0
H  H20  1  0.57745313  0.13509282  0.03257927  1  0.079792  -1.7e-05  0.109782  0.113316  -2.6e-05  0.997566  0.0
H  H21  1  0.92255118  0.36490157  0.53258695  1  0.079747  -1.7e-05  0.109781  0.113422  -2.6e-05  0.99749  0.0
H  H22  1  0.50691463  0.65413037  0.91484425  1  0.158128  5e-06  0.132603  0.132162  1.8e-05  0.980206  0.0
H  H23  1  0.99308251  0.84586102  0.41484076  1  0.158052  5e-06  0.13259  0.132173  1.8e-05  0.98024  0.0
H  H24  1  0.49308243  0.34585296  0.08515714  1  0.158329  5e-06  0.13262  0.132198  1.8e-05  0.980212  0.0
H  H25  1  0.00691740  0.15413961  0.58515924  1  0.158175  5e-06  0.132622  0.132224  1.8e-05  0.980162  0.0
H  H26  1  0.09540650  0.31554161  0.13410393  1  0.109367  0.002187  0.120991  0.100112  0.000945  1.010767  0.002
H  H27  1  0.40459604  0.18446007  0.63410742  1  0.109216  0.002188  0.120972  0.100056  0.000946  1.010857  0.002
H  H28  1  0.90458962  0.68446266  0.86589677  1  0.109294  0.002187  0.120982  0.100105  0.000945  1.010828  0.002
H  H29  1  0.59540258  0.81554056  0.36589398  1  0.109245  0.002187  0.120983  0.100098  0.000945  1.010791  0.002
H  H30  1  0.11814342  0.09009102  0.13663850  1  0.136525  0.001004  0.111471  0.127587  0.000526  1.041287  0.001
H  H31  1  0.38187704  0.40990884  0.63664269  1  0.13653  0.001005  0.111448  0.127557  0.000526  1.041321  0.001
H  H32  1  0.88187960  0.90991143  0.86335801  1  0.136789  0.001004  0.111447  0.127559  0.000525  1.041333  0.001
H  H33  1  0.61813179  0.59008905  0.36335661  1  0.136488  0.001005  0.111485  0.127609  0.000526  1.0413  0.001
H  H34  1  0.85203865  0.08797976  0.86941263  1  0.164229  0.001008  0.108814  0.137263  0.000523  1.049548  0.001
H  H35  1  0.64797076  0.41201281  0.36941542  1  0.164524  0.001008  0.108866  0.137343  0.000523  1.049418  0.001
H  H36  1  0.14797788  0.91201813  0.13058737  1  0.164559  0.001008  0.108861  0.137311  0.000523  1.049427  0.001
H  H37  1  0.35204055  0.58797962  0.63058598  1  0.164236  0.001008  0.108819  0.137251  0.000523  1.04951  0.001
H  H38  1  0.83427602  0.31080836  0.88357732  1  0.129972  0.002122  0.12492  0.105898  0.000938  0.978417  0.002
H  H39  1  0.66572315  0.18918513  0.38357941  1  0.129805  0.002124  0.124918  0.105871  0.000938  0.978384  0.002
H  H40  1  0.16571480  0.68918590  0.11642897  1  0.130457  0.002122  0.124932  0.105858  0.000938  0.978383  0.002
H  H41  1  0.33428304  0.81080731  0.61642408  1  0.130506  0.002122  0.124939  0.105893  0.000938  0.978427  0.002
C  C42  1  0.69670382  0.65616879  0.12299134  1  -0.174863  -0.00102  0.083141  -0.172791  -0.001335  3.870587  -0.001
C  C43  1  0.80328452  0.84383352  0.62297877  1  -0.174774  -0.001021  0.082986  -0.173047  -0.001336  3.870793  -0.001
C  C44  1  0.30327560  0.34383366  0.87701844  1  -0.174903  -0.00102  0.082992  -0.173021  -0.001335  3.870813  -0.001
C  C45  1  0.19672312  0.15616984  0.37701564  1  -0.174885  -0.00102  0.083005  -0.173011  -0.001335  3.870914  -0.001
C  C46  1  0.65217856  0.77129075  0.15503283  1  0.068083  0.000122  -0.078052  -0.088391  5.9e-05  4.012993  0.0
C  C47  1  0.84781755  0.72871611  0.65502794  1  0.068174  0.000121  -0.077996  -0.088325  5.8e-05  4.012983  0.0
C  C48  1  0.34781255  0.22872080  0.84496578  1  0.067998  0.000122  -0.077991  -0.088294  5.9e-05  4.013022  0.0
C  C49  1  0.15219011  0.27128816  0.34497067  1  0.068131  0.000121  -0.078046  -0.088407  5.8e-05  4.013246  0.0
C  C50  1  0.55388641  0.84906659  0.10050286  1  0.008114  -0.000603  -0.086645  -0.073863  -0.000646  3.981157  0.0
C  C51  1  0.94610706  0.65093572  0.60050007  1  0.008228  -0.000603  -0.086641  -0.073907  -0.000646  3.98117  0.0
C  C52  1  0.44610326  0.15093495  0.89949225  1  0.008369  -0.000603  -0.086605  -0.07394  -0.000646  3.981051  0.0
C  C53  1  0.05389801  0.34906764  0.39949574  1  0.00821  -0.000602  -0.086689  -0.073984  -0.000646  3.98114  0.0
C  C54  1  0.50043100  0.80832279  0.01266797  1  -0.039493  -0.000158  -0.080707  -0.097577  -0.000239  4.022686  0.0
C  C55  1  0.99956630  0.69167861  0.51266168  1  -0.039399  -0.000159  -0.080765  -0.097624  -0.00024  4.022605  0.0
C  C56  1  0.49956499  0.19167329  0.98732993  1  -0.039401  -0.000158  -0.080766  -0.097476  -0.000239  4.022493  0.0
C  C57  1  0.00043883  0.30832839  0.48733552  1  -0.039351  -0.000159  -0.080738  -0.097563  -0.00024  4.022452  0.0
C  C58  1  0.54556845  0.69410760  0.98125646  1  0.360403  -0.000338  0.037666  -0.028105  -0.00033  3.822755  0.0
C  C59  1  0.95442883  0.80589289  0.48125087  1  0.360369  -0.000338  0.037727  -0.028171  -0.00033  3.822787  0.0
C  C60  1  0.45442749  0.30588575  0.01874284  1  0.360331  -0.000338  0.037682  -0.028222  -0.00033  3.822756  0.0
C  C61  1  0.04557754  0.19411138  0.51874494  1  0.360452  -0.000338  0.037669  -0.028249  -0.00033  3.822785  0.0
C  C62  1  0.04317129  0.25954563  0.07800531  1  0.467693  -0.000698  0.047874  0.095202  -0.001189  3.936  0.0
C  C63  1  0.45683502  0.24045150  0.57800810  1  0.467809  -0.000699  0.047851  0.095307  -0.00119  3.935999  0.0
C  C64  1  0.95683247  0.74045591  0.92199330  1  0.467792  -0.000699  0.047917  0.095263  -0.00119  3.936011  0.0
C  C65  1  0.54316480  0.75954367  0.42199330  1  0.467846  -0.000698  0.047899  0.095339  -0.001189  3.935873  0.0
C  C66  1  0.05472675  0.13374905  0.07817782  1  -0.029436  0.005497  -0.079004  -0.161944  0.003687  3.912604  0.005
C  C67  1  0.44528211  0.36624717  0.57818131  1  -0.029503  0.005498  -0.079062  -0.162073  0.003688  3.912675  0.005
C  C68  1  0.94528730  0.86625431  0.92182148  1  -0.029987  0.005498  -0.079051  -0.161994  0.003688  3.912704  0.005
C  C69  1  0.55471641  0.63374709  0.42181939  1  -0.029666  0.005498  -0.079111  -0.16211  0.003688  3.912645  0.005
C  C70  1  0.99017739  0.06669882  0.00227266  1  -0.029952  -0.00301  0.012118  0.102099  -0.00336  3.972418  -0.002
C  C71  1  0.50983208  0.43329740  0.50227965  1  0.019379  -0.003009  0.012241  0.10233  -0.00336  3.972216  -0.002
C  C72  1  0.00984051  0.93330454  0.99772175  1  0.019657  -0.00301  0.012189  0.102205  -0.003361  3.972405  -0.002
C  C73  1  0.49016771  0.56669594  0.49772664  1  -0.029548  -0.003009  0.012181  0.102177  -0.00336  3.972097  -0.002
C  C74  1  0.90704400  0.13155677  0.93118732  1  -0.050099  0.00574  -0.081611  -0.176165  0.003775  3.917043  0.005
C  C75  1  0.59295910  0.36844218  0.43119221  1  -0.050242  0.005742  -0.081698  -0.176392  0.003776  3.917004  0.005
C  C76  1  0.09296485  0.86844204  0.06880919  1  -0.050391  0.005741  -0.081725  -0.176401  0.003776  3.917002  0.005
C  C77  1  0.40703691  0.63155572  0.56881268  1  -0.05017  0.00574  -0.081652  -0.176235  0.003775  3.916861  0.005
C  C78  1  0.89785834  0.25730237  0.93704498  1  0.475033  -0.000527  0.046764  0.092201  -0.000909  3.949823  0.0
C  C79  1  0.60214218  0.24269476  0.43704707  1  0.475004  -0.000529  0.04679  0.092364  -0.000911  3.949725  0.0
C  C80  1  0.10213769  0.74269644  0.06295642  1  0.474311  -0.000528  0.046771  0.092392  -0.00091  3.949665  0.0
C  C81  1  0.39786152  0.75730223  0.56295851  1  0.474444  -0.000527  0.046789  0.092345  -0.000911  3.949853  0.0
N  N82  1  0.64489805  0.62029116  0.03514248  1  -0.598732  -0.000807  -0.102553  0.34069  -0.000978  3.996616  -0.001
N  N83  1  0.85509406  0.87970660  0.53513060  1  -0.598914  -0.000808  -0.102557  0.340823  -0.000979  3.996595  -0.001
N  N84  1  0.35508887  0.37969946  0.96486590  1  -0.59896  -0.000807  -0.102549  0.340816  -0.000978  3.996546  -0.001
N  N85  1  0.14490714  0.12029494  0.46486311  1  -0.598896  -0.000808  -0.10245  0.340931  -0.00098  3.996564  -0.001
N  N86  1  0.96890587  0.32079106  0.00779438  1  -1.225826  0.089934  -0.349486  -0.224642  0.058358  3.618899  0.077
N  N87  1  0.53108575  0.17921153  0.50779369  1  -1.225672  0.089942  -0.349419  -0.224695  0.058362  3.618958  0.077
N  N88  1  0.03108250  0.67920957  0.99220841  1  -1.225593  0.089935  -0.349467  -0.224675  0.058357  3.618827  0.077
N  N89  1  0.46890260  0.82078819  0.49220701  1  -1.225799  0.089938  -0.349441  -0.224729  0.058361  3.618833  0.077
O  O90  1  0.87851042  0.62623799  0.28044699  1  -1.359707  0.00844  -0.38852  -0.645034  0.005167  2.223338  0.007
O  O91  1  0.62148929  0.87375431  0.78044350  1  -1.359613  0.00844  -0.388561  -0.645029  0.005167  2.223305  0.007
O  O92  1  0.12148951  0.37376446  0.71955720  1  -1.359653  0.008441  -0.388497  -0.644959  0.005167  2.223227  0.007
O  O93  1  0.37852476  0.12624905  0.21955650  1  -1.359429  0.008438  -0.388487  -0.644914  0.005167  2.223442  0.007
O  O94  1  0.98278355  0.51271107  0.13996438  1  -1.402996  0.079628  -0.378911  -0.7486  0.048294  2.378942  0.068
O  O95  1  0.51719060  0.98728578  0.63996298  1  -1.403186  0.079632  -0.378831  -0.748457  0.048295  2.378749  0.068
O  O96  1  0.01719708  0.48728683  0.86003422  1  -1.403203  0.079631  -0.378864  -0.748487  0.048295  2.378762  0.068
O  O97  1  0.48280283  0.01271121  0.36003352  1  -1.403142  0.079627  -0.378894  -0.748465  0.048292  2.378792  0.068
O  O98  1  0.69761236  0.44765556  0.22592820  1  -1.44553  0.003191  -0.381778  -0.710944  0.001656  2.053718  0.003
O  O99  1  0.80236772  0.05234613  0.72592122  1  -1.445164  0.00319  -0.381818  -0.710827  0.001655  2.053599  0.003
O  O100  1  0.30237607  0.55234872  0.77408646  1  -1.44535  0.003189  -0.381811  -0.710853  0.001655  2.053653  0.003
O  O101  1  0.19763109  0.94766543  0.27406831  1  -1.445191  0.00319  -0.38166  -0.710702  0.001656  2.053809  0.003
O  O102  1  0.69490838  0.51599221  0.00219025  1  -0.594436  0.003431  -0.224331  -0.487746  0.001736  2.031826  0.004
O  O103  1  0.80508746  0.98399827  0.50217419  1  -0.594546  0.00343  -0.224285  -0.487695  0.001735  2.031933  0.004
O  O104  1  0.30508101  0.48399203  0.99782302  1  -0.594236  0.003431  -0.224328  -0.487764  0.001735  2.031931  0.004
O  O105  1  0.19491757  0.01600236  0.49782162  1  -0.594303  0.003432  -0.22433  -0.487765  0.001737  2.031873  0.004
