# generated using pymatgen
data_Zn4H34C39O16
_symmetry_space_group_name_H-M   'P 1'
_cell_length_a   18.23583111
_cell_length_b   18.55273488
_cell_length_c   18.16714319
_cell_angle_alpha   59.74792766
_cell_angle_beta   60.94780404
_cell_angle_gamma   90.33405203
_symmetry_Int_Tables_number   1
_chemical_formula_structural   Zn4H34C39O16
_chemical_formula_sum   'Zn8 H68 C78 O32'
_cell_volume   4378.54359445
_cell_formula_units_Z   2
loop_
 _symmetry_equiv_pos_site_id
 _symmetry_equiv_pos_as_xyz
  1  'x, y, z'
loop_
 _atom_site_type_symbol
 _atom_site_label
 _atom_site_symmetry_multiplicity
 _atom_site_fract_x
 _atom_site_fract_y
 _atom_site_fract_z
 _atom_site_occupancy
 _atom_site_pbe_bader_charge
 _atom_site_pbe_bader_spin_density
 _atom_site_pbe_cm5_charge
 _atom_site_pbe_ddec_charge
 _atom_site_pbe_ddec_spin_density
 _atom_site_pbe_ddec_sum_bond_order
 _atom_site_pbe_magmom
Zn  Zn0  1  0.79019472  0.70562436  0.41309367  1  1.311048  0  0.674358  0.966317  0  2.355508  0
Zn  Zn1  1  0.20316567  0.29178584  0.59046877  1  1.327172  0  0.676677  0.971693  0  2.341604  0
Zn  Zn2  1  0.79350157  0.70622273  0.58654619  1  1.312278  0  0.670795  0.966316  0  2.375455  0
Zn  Zn3  1  0.20084249  0.29324604  0.41416233  1  1.305519  0  0.672048  0.968785  0  2.37444  0
Zn  Zn4  1  0.61992517  0.71033199  0.58331002  1  1.297714  0  0.676871  0.953526  0  2.412373  0
Zn  Zn5  1  0.37383096  0.28896058  0.41642391  1  1.300141  0  0.675215  0.949197  0  2.434588  0
Zn  Zn6  1  0.79184873  0.88144616  0.40891574  1  1.318415  0  0.674706  0.969008  0  2.342698  0
Zn  Zn7  1  0.20784157  0.11871532  0.58889388  1  1.308705  0  0.675928  0.967891  0  2.348407  0
H  H8  1  0.82566912  0.57242458  0.19485086  1  0.07524  0  0.098317  0.09113  0  1.015055  0
H  H9  1  0.56066319  0.42920705  0.10217806  1  0.096753  0  0.110314  0.114669  0  0.995705  0
H  H10  1  0.33332488  0.46978424  0.09182781  1  0.08502  0  0.109628  0.115067  0  0.992657  0
H  H11  1  0.66052069  0.53066214  0.90810621  1  0.07363  0  0.109589  0.114662  0  0.993249  0
H  H12  1  0.94413112  0.54699942  0.38537097  1  0.084982  0  0.105126  0.107789  0  1.011657  0
H  H13  1  0.05127507  0.45344901  0.61421942  1  0.11066  0  0.11  0.11559  0  0.99248  0
H  H14  1  0.04499014  0.45476650  0.38040070  1  0.102845  0  0.1077  0.112746  0  0.99544  0
H  H15  1  0.95149278  0.54662374  0.61810664  1  0.073599  0  0.108904  0.114108  0  0.993964  0
H  H16  1  0.93642611  0.60610113  0.22545426  1  0.022714  0  0.098818  0.094393  0  1.00334  0
H  H17  1  0.08457394  0.37098218  0.87420869  1  0.019949  0  0.09762  0.090835  0  1.000154  0
H  H18  1  0.00037834  0.75938144  0.16274268  1  0.067615  0  0.103644  0.107526  0  0.989769  0
H  H19  1  0.24906412  0.41299765  0.78862228  1  0.054927  0  0.098451  0.096721  0  1.018469  0
H  H20  1  0.99735118  0.22156478  0.94707299  1  0.106433  0  0.103956  0.106677  0  0.985658  0
H  H21  1  0.84207942  0.84630999  0.04086413  1  0.057368  0  0.104642  0.108652  0  0.986575  0
H  H22  1  0.23782932  0.15705731  0.84429430  1  0.050959  0  0.097568  0.09681  0  0.999747  0
H  H23  1  0.77937792  0.69382492  0.10123990  1  0.057744  0  0.096646  0.087866  0  1.032184  0
H  H24  1  0.32506233  0.30583925  0.77313934  1  0.046337  0  0.100133  0.097578  0  0.994273  0
H  H25  1  0.33400624  0.45258963  0.60846465  1  0.112858  0  0.11171  0.130826  0  1.019603  0
H  H26  1  0.66150387  0.56156402  0.37546605  1  0.153687  0  0.110709  0.130742  0  1.011037  0
H  H27  1  0.10513284  0.88318665  0.80999263  1  0.043091  0  0.105722  0.078372  0  0.954647  0
H  H28  1  0.03379877  0.80486498  0.94691345  1  0.033883  0  0.09061  0.050257  0  1.025288  0
H  H29  1  0.20678909  0.95274601  0.82680799  1  0.043549  0  0.089389  0.093208  0  0.991715  0
H  H30  1  0.34482985  0.94416622  0.65236103  1  0.125579  0  0.112326  0.12999  0  1.003767  0
H  H31  1  0.13309684  0.88462631  0.96288079  1  0.026333  0  0.087285  0.077723  0  1.00324  0
H  H32  1  0.15191217  0.74870411  0.96738694  1  0.018639  0  0.083752  0.109288  0  1.009818  0
H  H33  1  0.25490701  0.82426593  0.90856743  1  0.021259  0  0.085059  0.109435  0  1.019095  0
H  H34  1  0.22870339  0.81513249  0.83094262  1  0.042263  0  0.085658  0.112186  0  1.013007  0
H  H35  1  0.13056321  0.06175277  0.07071598  1  0.032541  0  0.092238  0.047758  0  0.999007  0
H  H36  1  0.04270510  0.97295672  0.19963565  1  0.006421  0  0.089852  0.049138  0  0.98347  0
H  H37  1  0.09582883  0.16894386  0.11556572  1  0.044625  0  0.093779  0.090962  0  0.969962  0
H  H38  1  0.00665666  0.08217826  0.24296501  1  0.05711  0  0.089448  0.085734  0  1.000542  0
H  H39  1  0.11460155  0.00844394  0.27365802  1  0.035447  0  0.081682  0.105729  0  1.013788  0
H  H40  1  0.14356126  0.11742951  0.23844616  1  0.016584  0  0.085744  0.115979  0  1.010425  0
H  H41  1  0.65555970  0.05678202  0.35380261  1  0.101986  0  0.113372  0.132995  0  0.993355  0
H  H42  1  0.20434640  0.09460192  0.14582232  1  0.018724  0  0.084241  0.108678  0  1.002862  0
H  H43  1  0.35895682  0.64268876  0.54797046  1  0.023906  0  0.091126  0.047768  0  0.97617  0
H  H44  1  0.46486151  0.69249846  0.51377325  1  0.041454  0  0.094057  0.056063  0  0.993135  0
H  H45  1  0.29246875  0.60484982  0.72837784  1  0.014611  0  0.090138  0.081864  0  0.9728  0
H  H46  1  0.39717109  0.66732751  0.68256404  1  0.029656  0  0.094172  0.096826  0  0.975304  0
H  H47  1  0.39069565  0.80321386  0.54752419  1  0.032046  0  0.084121  0.114247  0  1.003938  0
H  H48  1  0.30086513  0.76184145  0.67426521  1  0.019482  0  0.085181  0.115932  0  1.014689  0
H  H49  1  0.28368711  0.74084182  0.59742511  1  0.005563  0  0.079709  0.099469  0  1.013611  0
H  H50  1  0.69128634  0.50719044  0.21400505  1  0.029064  0  0.100678  0.064578  0  0.987845  0
H  H51  1  0.65772744  0.58753354  0.23754586  1  0.021106  0  0.095126  0.051759  0  1.029093  0
H  H52  1  0.96481448  0.83563752  0.60392103  1  0.10491  0  0.108803  0.113915  0  0.992968  0
H  H53  1  0.55636449  0.47079437  0.21993685  1  0.026896  0  0.090367  0.090544  0  0.998899  0
H  H54  1  0.51681096  0.54374197  0.25220749  1  0.031039  0  0.090849  0.088974  0  0.973797  0
H  H55  1  0.64682014  0.67379493  0.08121848  1  0.021015  0  0.084286  0.109344  0  1.005993  0
H  H56  1  0.59188085  0.61364045  0.06081797  1  0.02732  0  0.086359  0.117617  0  1.013295  0
H  H57  1  0.69299354  0.60239371  0.04797739  1  0.028194  0  0.082724  0.106102  0  1.006256  0
H  H58  1  0.37945778  0.76140611  0.83502689  1  0.039479  0  0.105098  0.073248  0  0.96433  0
H  H59  1  0.41343796  0.87845283  0.76957110  1  0.033884  0  0.093491  0.04903  0  0.996556  0
H  H60  1  0.53808589  0.77036693  0.74012193  1  0.034001  0  0.087681  0.089145  0  1.013579  0
H  H61  1  0.57331503  0.88652510  0.67612329  1  0.017677  0  0.088446  0.083833  0  0.983201  0
H  H62  1  0.50482073  0.86459202  0.84791480  1  0.001412  0  0.084479  0.108372  0  1.005237  0
H  H63  1  0.02539434  0.16067579  0.40638409  1  0.108749  0  0.109447  0.114153  0  0.992925  0
H  H64  1  0.58409207  0.80938448  0.82905934  1  0.03894  0  0.089309  0.119152  0  0.99749  0
H  H65  1  0.46895229  0.74808337  0.91239942  1  0.00011  0  0.083286  0.105953  0  1.013593  0
H  H66  1  0.67577119  0.28243088  0.20389288  1  0.033037  0  0.105297  0.073427  0  0.958084  0
H  H67  1  0.69943848  0.19694194  0.28572188  1  0.036853  0  0.096546  0.05462  0  0.993393  0
H  H68  1  0.58908197  0.30880915  0.33904278  1  0.030572  0  0.095062  0.101794  0  0.979518  0
H  H69  1  0.60247545  0.21849309  0.42650017  1  0.040025  0  0.091718  0.088237  0  0.970932  0
H  H70  1  0.76774412  0.29568537  0.31433151  1  0.033971  0  0.083134  0.106269  0  1.007525  0
H  H71  1  0.70972989  0.36402788  0.34392573  1  0.021287  0  0.088604  0.12113  0  1.007583  0
H  H72  1  0.75826304  0.38549536  0.22024118  1  -0.002603  0  0.079661  0.097399  0  1.017913  0
H  H73  1  0.05730454  0.93075902  0.61005411  1  0.088671  0  0.109929  0.115274  0  0.992477  0
H  H74  1  0.93222262  0.06554185  0.40111789  1  0.097026  0  0.110379  0.112195  0  0.99766  0
H  H75  1  0.43304655  0.57025642  0.89765292  1  0.095072  0  0.110837  0.117146  0  0.990016  0
C  C76  1  0.88987509  0.88834014  0.49733940  1  1.582042  0  0.229124  0.602174  0  4.16514  0
C  C77  1  0.00502730  0.03079449  0.05701553  1  0.535364  0  0.085396  0.179062  0  4.032865  0
C  C78  1  0.06768529  0.05454785  0.89160830  1  0.018271  0  -0.013897  -0.152438  0  3.921419  0
C  C79  1  0.95725800  0.94158103  0.10921036  1  0.004355  0  -0.015568  -0.157053  0  3.929706  0
C  C80  1  0.05961035  0.08806952  0.94870193  1  -0.000787  0  -0.001708  -0.028486  0  3.968478  0
C  C81  1  0.96831876  0.90694183  0.05218859  1  0.038298  0  -0.004122  -0.034898  0  3.94948  0
C  C82  1  0.45476773  0.53422770  0.55767550  1  0.51124  0  0.086832  0.23326  0  4.038195  0
C  C83  1  0.54007259  0.48146493  0.42425589  1  0.493282  0  0.089115  0.236462  0  4.035811  0
C  C84  1  0.40618714  0.47671103  0.55698948  1  -0.023772  0  -0.090678  -0.196477  0  3.976984  0
C  C85  1  0.58912764  0.53839084  0.42556979  1  -0.028125  0  -0.093023  -0.199064  0  3.970946  0
C  C86  1  0.44629245  0.44870806  0.49246857  1  0.012436  0  -0.018089  -0.111559  0  3.945616  0
C  C87  1  0.10328956  0.10866473  0.50954796  1  1.568944  0  0.23007  0.607076  0  4.159769  0
C  C88  1  0.54906083  0.56512011  0.49133489  1  -0.006726  0  -0.01852  -0.114201  0  3.946097  0
C  C89  1  0.46531452  0.91443147  0.59332496  1  0.52448  0  0.084831  0.224533  0  4.050163  0
C  C90  1  0.53625993  0.08924603  0.41440605  1  0.546058  0  0.088999  0.238101  0  4.049161  0
C  C91  1  0.60877956  0.62051072  0.49158207  1  1.565906  0  0.22955  0.617726  0  4.146325  0
C  C92  1  0.38658507  0.38773070  0.49808843  1  1.589592  0  0.230157  0.6181  0  4.151462  0
C  C93  1  0.41346449  0.96921233  0.58698957  1  -0.017623  0  -0.089549  -0.198379  0  3.980458  0
C  C94  1  0.58766173  0.03358720  0.41972252  1  -0.041366  0  -0.09304  -0.206657  0  3.970972  0
C  C95  1  0.44709978  0.05593776  0.49922783  1  0.02877  0  -0.017954  -0.109068  0  3.950357  0
C  C96  1  0.55339416  0.94650979  0.50689798  1  -0.018024  0  -0.016875  -0.107837  0  3.965158  0
C  C97  1  0.97844500  0.90686566  0.56121047  1  -0.001636  0  -0.079467  -0.091555  0  3.970051  0
C  C98  1  0.86195308  0.79344149  0.08242150  1  -0.009679  0  -0.088786  -0.124631  0  3.973954  0
C  C99  1  0.01141342  0.08940572  0.44951595  1  0.006125  0  -0.078237  -0.091738  0  3.967968  0
C  C100  1  0.02955393  0.95950119  0.56466402  1  -0.004071  0  -0.078001  -0.090444  0  3.970032  0
C  C101  1  0.96008949  0.03674430  0.44635213  1  -0.030058  0  -0.076327  -0.087825  0  3.971113  0
C  C102  1  0.04664028  0.05116551  0.50838117  1  -0.079337  0  -0.011454  -0.028816  0  3.961586  0
C  C103  1  0.94382397  0.94522395  0.50166978  1  -0.091352  0  -0.012161  -0.032606  0  3.96543  0
C  C104  1  0.46012929  0.53941875  0.94344140  1  0.068472  0  -0.077774  -0.090331  0  3.965374  0
C  C105  1  0.53368890  0.46093905  0.05647391  1  -0.033466  0  -0.077472  -0.089081  0  3.968608  0
C  C106  1  0.40499454  0.48374006  0.05073359  1  -0.061962  0  -0.079073  -0.092141  0  3.973976  0
C  C107  1  0.58886961  0.51689015  0.94923580  1  0.025375  0  -0.078265  -0.092305  0  3.973894  0
C  C108  1  0.44154915  0.44411754  0.10773919  1  -0.050657  0  -0.011955  -0.03113  0  3.965277  0
C  C109  1  0.20422666  0.20410148  0.85082043  1  -0.108481  0  -0.096544  -0.141641  0  3.983525  0
C  C110  1  0.55226669  0.55615168  0.89222433  1  -0.03609  0  -0.012404  -0.03109  0  3.968229  0
C  C111  1  0.96830154  0.52623870  0.43479510  1  -0.040198  0  -0.081057  -0.092614  0  3.973469  0
C  C112  1  0.02769018  0.47468672  0.56422496  1  -0.101046  0  -0.078356  -0.088922  0  3.965526  0
C  C113  1  0.02388372  0.47527358  0.43210729  1  -0.040718  0  -0.081442  -0.092614  0  3.972427  0
C  C114  1  0.97245032  0.52599870  0.56652767  1  0.045633  0  -0.079425  -0.090935  0  3.97143  0
C  C115  1  0.88222894  0.60624478  0.50535077  1  1.55716  0  0.227873  0.604066  0  4.162646  0
C  C116  1  0.11153696  0.39231307  0.49604511  1  1.510931  0  0.228488  0.604444  0  4.16377  0
C  C117  1  0.05349896  0.44890955  0.49714462  1  0.018132  0  -0.012684  -0.030116  0  3.962246  0
C  C118  1  0.94219330  0.55171768  0.50218065  1  -0.028142  0  -0.014036  -0.0312  0  3.967185  0
C  C119  1  0.61129425  0.89023639  0.50174825  1  1.578212  0  0.229464  0.618018  0  4.164579  0
C  C120  1  0.82681752  0.70749646  0.11639385  1  -0.1141  0  -0.097753  -0.091817  0  4.049998  0
C  C121  1  0.38698216  0.11021822  0.50090074  1  1.554226  0  0.229674  0.626294  0  4.145957  0
C  C122  1  0.61090376  0.61476456  0.77690146  1  1.536666  0  0.230182  0.602461  0  4.16666  0
C  C123  1  0.38285857  0.38405907  0.22311202  1  1.561098  0  0.229835  0.603128  0  4.168303  0
C  C124  1  0.89337399  0.88600319  0.22459162  1  1.581037  0  0.228018  0.625548  0  4.146998  0
C  C125  1  0.12254313  0.11464202  0.77580499  1  1.596267  0  0.231002  0.629438  0  4.136897  0
C  C126  1  0.91536518  0.65859187  0.18518861  1  -0.069744  0  -0.096703  -0.091885  0  4.039731  0
C  C127  1  0.11838622  0.32403728  0.86786255  1  0.013479  0  -0.096847  -0.089101  0  4.047976  0
C  C128  1  0.95127033  0.74468046  0.15023470  1  0.029586  0  -0.086619  -0.11157  0  3.968594  0
C  C129  1  0.06925017  0.24034406  0.90847437  1  -0.08349  0  -0.087434  -0.118824  0  3.968936  0
C  C130  1  0.92461127  0.81311269  0.09884491  1  0.032089  0  -0.008535  0.082136  0  3.986695  0
C  C131  1  0.25318155  0.28755211  0.81124920  1  -0.030122  0  -0.093951  -0.074468  0  4.031692  0
C  C132  1  0.11173612  0.17946567  0.90027172  1  0.065956  0  -0.008133  0.089677  0  4.003378  0
C  C133  1  0.08097542  0.87278403  0.88421370  1  0.417825  0  -0.065862  0.043898  0  3.86202  0
C  C134  1  0.15790757  0.88652347  0.89307416  1  -0.03036  0  -0.176131  -0.144956  0  3.987202  0
C  C135  1  0.20066314  0.81480014  0.90015318  1  -0.068235  0  -0.244294  -0.352089  0  3.981623  0
C  C136  1  0.06546323  0.04462763  0.13923965  1  0.429169  0  -0.06711  0.045521  0  3.895361  0
C  C137  1  0.07316914  0.09831079  0.17762052  1  -0.023858  0  -0.169067  -0.132063  0  3.977785  0
C  C138  1  0.13751062  0.07870156  0.21058601  1  -0.071832  0  -0.24479  -0.350455  0  3.984487  0
C  C139  1  0.39858381  0.64220289  0.57880187  1  0.406732  0  -0.067168  0.045893  0  3.895444  0
C  C140  1  0.35325433  0.66139282  0.65921928  1  0.020715  0  -0.167091  -0.127756  0  3.971956  0
C  C141  1  0.33064433  0.74637973  0.61729343  1  -0.040531  0  -0.245167  -0.348688  0  3.976237  0
C  C142  1  0.85312388  0.63969120  0.16814367  1  -0.068399  0  -0.097432  -0.095061  0  4.043432  0
C  C143  1  0.63330556  0.52458990  0.25141750  1  0.45281  0  -0.065807  0.033445  0  3.882742  0
C  C144  1  0.57785985  0.53340553  0.20796117  1  -0.01161  0  -0.174032  -0.138587  0  3.974077  0
C  C145  1  0.63021534  0.60995896  0.09337017  1  -0.065316  0  -0.245165  -0.354694  0  3.989802  0
C  C146  1  0.43175353  0.82405521  0.76353412  1  0.424018  0  -0.06473  0.03567  0  3.899779  0
C  C147  1  0.52150211  0.82382177  0.74841621  1  -0.015918  0  -0.176353  -0.144743  0  3.977583  0
C  C148  1  0.51972384  0.81084772  0.83940316  1  -0.025681  0  -0.243661  -0.350321  0  3.987769  0
C  C149  1  0.65041039  0.23147612  0.28504570  1  0.412137  0  -0.062834  0.037682  0  3.892207  0
C  C150  1  0.63548763  0.27211469  0.34398753  1  0.025876  0  -0.17121  -0.138294  0  3.96599  0
C  C151  1  0.72267967  0.33253334  0.30340253  1  -0.061851  0  -0.244494  -0.351471  0  3.987847  0
C  C152  1  0.21045747  0.34780909  0.81984042  1  -0.050448  0  -0.097004  -0.09427  0  4.023941  0
C  C153  1  0.02399917  0.96441506  0.94314080  1  0.458825  0  0.09013  0.190056  0  4.028336  0
O  O154  1  0.74976816  0.75139850  0.49810227  1  -1.210549  0  -0.574943  -1.032226  0  2.548752  0
O  O155  1  0.42193999  0.37117763  0.43090568  1  -1.176994  0  -0.307897  -0.53974  0  2.427136  0
O  O156  1  0.87407849  0.92782683  0.42797757  1  -1.177101  0  -0.309334  -0.543183  0  2.339859  0
O  O157  1  0.12241401  0.06969994  0.57598522  1  -1.169817  0  -0.312499  -0.54374  0  2.326033  0
O  O158  1  0.69219793  0.65010477  0.42116608  1  -1.17219  0  -0.315324  -0.546019  0  2.322819  0
O  O159  1  0.30374760  0.35790146  0.56987080  1  -1.176875  0  -0.312159  -0.544858  0  2.345305  0
O  O160  1  0.86872474  0.63532478  0.55983811  1  -1.156542  0  -0.315901  -0.548914  0  2.330935  0
O  O161  1  0.12831053  0.36696547  0.43752122  1  -1.161071  0  -0.316521  -0.549653  0  2.331139  0
O  O162  1  0.57325164  0.80857542  0.54801422  1  -1.167898  0  -0.306942  -0.537581  0  2.37123  0
O  O163  1  0.42200793  0.19261340  0.45396751  1  -1.173995  0  -0.306099  -0.54036  0  2.3936  0
O  O164  1  0.69450982  0.63051310  0.73416576  1  -1.176598  0  -0.313923  -0.546747  0  2.331003  0
O  O165  1  0.24404797  0.24837185  0.50290421  1  -1.209862  0  -0.575138  -1.031827  0  2.550014  0
O  O166  1  0.29921295  0.36830287  0.26604779  1  -1.178709  0  -0.314097  -0.546779  0  2.328903  0
O  O167  1  0.84655178  0.92274676  0.26474847  1  -1.160171  0  -0.313335  -0.538637  0  2.320162  0
O  O168  1  0.17194279  0.08542135  0.72615234  1  -1.173316  0  -0.312178  -0.554393  0  2.371636  0
O  O169  1  0.57195421  0.64429369  0.73062925  1  -1.176712  0  -0.309372  -0.543195  0  2.36978  0
O  O170  1  0.42183840  0.35359875  0.26912799  1  -1.179459  0  -0.310959  -0.543217  0  2.363177  0
O  O171  1  0.88967908  0.80558169  0.27449514  1  -1.180899  0  -0.309481  -0.552657  0  2.383009  0
O  O172  1  0.11581954  0.19168496  0.73526425  1  -1.162365  0  -0.307379  -0.537108  0  2.319205  0
O  O173  1  0.03272029  0.93510535  0.88439231  1  -1.074187  0  -0.206411  -0.242032  0  2.523865  0
O  O174  1  0.00231477  0.06319277  0.11148120  1  -1.072813  0  -0.20179  -0.231874  0  2.531843  0
O  O175  1  0.40737691  0.55541957  0.62579819  1  -1.067087  0  -0.205754  -0.242296  0  2.518782  0
O  O176  1  0.84939014  0.61922557  0.45341350  1  -1.17213  0  -0.313783  -0.544926  0  2.337921  0
O  O177  1  0.58481993  0.45528588  0.36079557  1  -1.08387  0  -0.199555  -0.226787  0  2.520239  0
O  O178  1  0.42827225  0.83029120  0.68268621  1  -1.07698  0  -0.202325  -0.238498  0  2.519659  0
O  O179  1  0.56837490  0.17183819  0.32555124  1  -1.070975  0  -0.200225  -0.227285  0  2.504797  0
O  O180  1  0.13919945  0.37394615  0.55373241  1  -1.159151  0  -0.311994  -0.543218  0  2.335885  0
O  O181  1  0.69484318  0.92959881  0.44863903  1  -1.175799  0  -0.316829  -0.549312  0  2.31499  0
O  O182  1  0.30420325  0.06870027  0.55230100  1  -1.166448  0  -0.316785  -0.547214  0  2.298389  0
O  O183  1  0.86442130  0.80488094  0.56332228  1  -1.173533  0  -0.315687  -0.548248  0  2.337137  0
O  O184  1  0.12780964  0.19192767  0.44342778  1  -1.179348  0  -0.31448  -0.54896  0  2.34051  0
O  O185  1  0.57271299  0.63278188  0.56249328  1  -1.156108  0  -0.306657  -0.533348  0  2.39418  0
