# generated using pymatgen
data_Al4H28C28S3O29
_symmetry_space_group_name_H-M   'P 1'
_cell_length_a   6.62924087
_cell_length_b   13.96347164
_cell_length_c   16.20037778
_cell_angle_alpha   90.96213675
_cell_angle_beta   90.90337078
_cell_angle_gamma   89.47227977
_symmetry_Int_Tables_number   1
_chemical_formula_structural   Al4H28C28S3O29
_chemical_formula_sum   'Al4 H28 C28 S3 O29'
_cell_volume   1499.16606407
_cell_formula_units_Z   1
loop_
 _symmetry_equiv_pos_site_id
 _symmetry_equiv_pos_as_xyz
  1  'x, y, z'
loop_
 _atom_site_type_symbol
 _atom_site_label
 _atom_site_symmetry_multiplicity
 _atom_site_fract_x
 _atom_site_fract_y
 _atom_site_fract_z
 _atom_site_occupancy
 _atom_site_pbe_bader_charge
 _atom_site_pbe_bader_spin_density
 _atom_site_pbe_cm5_charge
 _atom_site_pbe_ddec_charge
 _atom_site_pbe_ddec_spin_density
 _atom_site_pbe_ddec_sum_bond_order
 _atom_site_pbe_magmom
Al  Al0  1  0.87234269  0.49703876  0.50085139  1  2.500197  0  0.401378  1.632465  0  2.573886  0
Al  Al1  1  0.37677978  0.49691820  0.50370787  1  2.499582  0  0.392522  1.636015  0  2.573121  0
Al  Al2  1  0.39295712  0.00564607  0.00594487  1  2.497349  0  0.394613  1.632931  0  2.586451  0
Al  Al3  1  0.89264366  0.00130361  0.00478292  1  2.500785  0  0.398443  1.634775  0  2.58502  0
H  H4  1  0.82660080  0.28883643  0.30818360  1  0.099804  0  0.092435  0.10335  0  1.043752  0
H  H5  1  0.88594180  0.39141535  0.25221548  1  0.031903  0  0.09921  0.104705  0  0.960999  0
H  H6  1  0.96010972  0.30124242  0.13194342  1  0.017623  0  0.093556  0.094104  0  0.970525  0
H  H7  1  0.81842229  0.21152526  0.17913279  1  0.07613  0  0.093825  0.099552  0  1.027094  0
H  H8  1  0.06878062  0.20835848  0.39266141  1  0.127256  0  0.122156  0.12703  0  0.984541  0
H  H9  1  0.44705574  0.36751888  0.27429668  1  0.081882  0  0.098261  0.112255  0  1.004427  0
H  H10  1  0.24735298  0.41184617  0.21219293  1  0.05317  0  0.09796  0.102737  0  0.963558  0
H  H11  1  0.33886010  0.28644401  0.12112597  1  0.044045  0  0.098637  0.100759  0  0.966505  0
H  H12  1  0.46613342  0.22157011  0.19887520  1  0.040851  0  0.094569  0.098155  0  0.999901  0
H  H13  1  0.31307277  0.10438981  0.27396159  1  0.153591  0  0.128714  0.135025  0  0.980322  0
H  H14  1  0.82288405  0.30702971  0.69611553  1  0.105066  0  0.117851  0.113204  0  0.968373  0
H  H15  1  0.27600851  0.26254041  0.67695411  1  0.088764  0  0.114868  0.137246  0  0.981334  0
H  H16  1  0.82622136  0.17620316  0.79864707  1  0.117235  0  0.118701  0.120165  0  0.971879  0
H  H17  1  0.28093880  0.21785889  0.81609250  1  0.073237  0  0.112588  0.125617  0  0.987332  0
H  H18  1  0.93390877  0.82521741  0.22213529  1  0.168885  0  0.118483  0.13354  0  1.007505  0
H  H19  1  0.49292514  0.77289913  0.17700437  1  0.118258  0  0.110759  0.127901  0  1.017915  0
H  H20  1  0.91180015  0.68757668  0.31369742  1  0.15733  0  0.11961  0.127851  0  0.993202  0
H  H21  1  0.93069330  0.79651698  0.81949829  1  0.135391  0  0.1187  0.120947  0  0.971401  0
H  H22  1  0.47477547  0.82239002  0.78547253  1  0.094105  0  0.112982  0.127166  0  0.986827  0
H  H23  1  0.92098043  0.70054850  0.68728050  1  0.099509  0  0.113148  0.104911  0  0.977996  0
H  H24  1  0.47871128  0.66359750  0.73228593  1  0.053321  0  0.11169  0.130471  0  0.991072  0
H  H25  1  0.34170438  0.28363199  0.52175130  1  0.667286  0  0.315238  0.374373  0  0.964875  0
H  H26  1  0.30851013  0.69689569  0.44113279  1  0.654779  0  0.317969  0.376871  0  0.9495  0
H  H27  1  0.69325728  0.09110849  0.33195696  1  0.669826  0  0.319019  0.383635  0  0.943616  0
H  H28  1  0.62284195  0.38212878  0.45433636  1  0.656469  0  0.328904  0.418892  0  0.906373  0
H  H29  1  0.11850295  0.60240281  0.55874321  1  0.635569  0  0.349775  0.422558  0  0.866725  0
H  H30  1  0.64988748  0.11721954  0.04980189  1  0.63573  0  0.349493  0.426434  0  0.864081  0
H  H31  1  0.15183495  0.89091512  0.04341882  1  0.626499  0  0.355528  0.435443  0  0.850569  0
C  C32  1  0.62902573  0.62999135  0.40689071  1  1.562075  0  0.270775  0.670889  0  4.08465  0
C  C33  1  0.61908015  0.59503426  0.62587713  1  1.537503  0  0.262726  0.687304  0  4.098611  0
C  C34  1  0.11417918  0.36744926  0.60200481  1  1.511963  0  0.261987  0.669448  0  4.086387  0
C  C35  1  0.13647376  0.39830128  0.38099321  1  1.573453  0  0.275843  0.629237  0  4.029742  0
C  C36  1  0.93692337  0.31823177  0.26619019  1  -0.066103  0  -0.165334  -0.191116  0  3.864547  0
C  C37  1  0.95163589  0.25652109  0.18701341  1  -0.029675  0  -0.16978  -0.190713  0  3.901215  0
C  C38  1  0.18359122  0.22278637  0.34634566  1  -0.122903  0  -0.063073  -0.190654  0  3.710436  0
C  C39  1  0.30284833  0.34836715  0.24513430  1  -0.067424  0  -0.165386  -0.192175  0  3.868794  0
C  C40  1  0.14525440  0.32458074  0.31039287  1  0.054142  0  -0.007337  0.022203  0  3.777183  0
C  C41  1  0.14379665  0.19436524  0.19078794  1  0.02757  0  -0.008326  0.022136  0  3.76491  0
C  C42  1  0.17214022  0.14655957  0.27609647  1  -0.146818  0  -0.069592  -0.198388  0  3.75384  0
C  C43  1  0.32724491  0.26211508  0.18504059  1  -0.03164  0  -0.158058  -0.178863  0  3.853907  0
C  C44  1  0.96721716  0.27352735  0.71292910  1  -0.003632  0  -0.050447  0.014812  0  3.943647  0
C  C45  1  0.12876640  0.29637186  0.66744658  1  -0.057743  0  -0.089691  -0.254264  0  3.882891  0
C  C46  1  0.96930504  0.20790740  0.78118976  1  -0.046272  0  -0.064899  -0.035347  0  3.973895  0
C  C47  1  0.13434002  0.18606170  0.82720284  1  -0.007191  0  -0.071535  -0.206136  0  3.853823  0
C  C48  1  0.78814995  0.79099169  0.22942435  1  0.060698  0  -0.064102  -0.025931  0  3.935915  0
C  C49  1  0.63860068  0.80801898  0.17403439  1  -0.068405  0  -0.07319  -0.203222  0  3.845323  0
C  C50  1  0.77298044  0.72665029  0.29783461  1  0.038311  0  -0.035142  0.03295  0  3.87571  0
C  C51  1  0.61263907  0.70836141  0.34630506  1  -0.226156  0  -0.024442  -0.284656  0  3.843129  0
C  C52  1  0.78575097  0.78091141  0.78922148  1  -0.034293  0  -0.065568  -0.03343  0  3.976252  0
C  C53  1  0.62216654  0.82994581  0.81565237  1  -0.072818  0  -0.07452  -0.212171  0  3.862357  0
C  C54  1  0.78181664  0.71173029  0.72162970  1  -0.001893  0  -0.056144  0.006612  0  3.966993  0
C  C55  1  0.61957198  0.65932624  0.69848302  1  -0.038321  0  -0.090848  -0.257705  0  3.897472  0
C  C56  1  0.62976551  0.89726004  0.88705764  1  1.580352  0  0.261482  0.668535  0  4.126858  0
C  C57  1  0.65317931  0.87940247  0.10831587  1  1.5374  0  0.266807  0.68747  0  4.083157  0
C  C58  1  0.14943672  0.11899350  0.12051731  1  1.60735  0  0.270383  0.630351  0  4.049918  0
C  C59  1  0.12926315  0.11903119  0.89696694  1  1.57302  0  0.260649  0.666754  0  4.126266  0
S  S60  1  0.42063748  0.20478267  0.40765448  1  3.052077  0  0.559284  1.168361  0  5.822932  0
S  S61  1  0.37586770  0.77201563  0.33494580  1  3.097048  0  0.540148  1.182746  0  6.005243  0
S  S62  1  0.00086160  0.05043186  0.30214907  1  3.045651  0  0.542131  1.169766  0  5.902841  0
O  O63  1  0.45021241  0.55527710  0.60685981  1  -1.26555  0  -0.246909  -0.607856  0  2.277229  0
O  O64  1  0.79712800  0.58734751  0.41656286  1  -1.244612  0  -0.224572  -0.560914  0  2.317328  0
O  O65  1  0.96980170  0.40911916  0.41819707  1  -1.262754  0  -0.22717  -0.573584  0  2.349568  0
O  O66  1  0.78130608  0.58398765  0.58523005  1  -1.268498  0  -0.236575  -0.606129  0  2.345441  0
O  O67  1  0.94895984  0.41058747  0.58870873  1  -1.243672  0  -0.221992  -0.560326  0  2.341104  0
O  O68  1  0.46813661  0.60879208  0.44654625  1  -1.259297  0  -0.2372  -0.614638  0  2.423282  0
O  O69  1  0.62459354  0.43697094  0.49321252  1  -1.464539  0  -0.457529  -1.005981  0  2.185224  0
O  O70  1  0.27799753  0.38116967  0.55980532  1  -1.262981  0  -0.250968  -0.627186  0  2.367098  0
O  O71  1  0.29777562  0.44229286  0.40018187  1  -1.260346  0  -0.231643  -0.579178  0  2.383007  0
O  O72  1  0.12470612  0.55664792  0.51300315  1  -1.438837  0  -0.447769  -0.979069  0  2.17536  0
O  O73  1  0.82432845  0.91295184  0.08995155  1  -1.252227  0  -0.232447  -0.59087  0  2.337612  0
O  O74  1  0.46153834  0.93476950  0.90766051  1  -1.243383  0  -0.233051  -0.575857  0  2.297532  0
O  O75  1  0.29739510  0.10500224  0.93448513  1  -1.244499  0  -0.23618  -0.586487  0  2.308105  0
O  O76  1  0.48372853  0.90277891  0.07485328  1  -1.24958  0  -0.238649  -0.603944  0  2.303553  0
O  O77  1  0.32173501  0.08476758  0.10202226  1  -1.256818  0  -0.236056  -0.587091  0  2.336549  0
O  O78  1  0.79915931  0.91113893  0.92309280  1  -1.257659  0  -0.232447  -0.588017  0  2.337898  0
O  O79  1  0.64381235  0.06344640  0.01117685  1  -1.44145  0  -0.448675  -0.987605  0  2.194476  0
O  O80  1  0.98298410  0.09943606  0.08445615  1  -1.259281  0  -0.232801  -0.592097  0  2.377749  0
O  O81  1  0.96164001  0.08163829  0.91461710  1  -1.250684  0  -0.229838  -0.575541  0  2.326198  0
O  O82  1  0.14542539  0.94447029  0.00588844  1  -1.428275  0  -0.448726  -0.98901  0  2.187611  0
O  O83  1  0.48772653  0.10662926  0.39597422  1  -1.28408  0  -0.285421  -0.503877  0  2.199362  0
O  O84  1  0.56579321  0.27870764  0.39030208  1  -1.317221  0  -0.291341  -0.54228  0  2.291018  0
O  O85  1  0.35191952  0.21394756  0.49935362  1  -1.264108  0  -0.348266  -0.518345  0  2.231373  0
O  O86  1  0.41049202  0.87142309  0.32130827  1  -1.279389  0  -0.295047  -0.496632  0  2.158976  0
O  O87  1  0.25593662  0.71639571  0.27620149  1  -1.294967  0  -0.31976  -0.553772  0  2.118549  0
O  O88  1  0.28080435  0.76514339  0.42356380  1  -1.23028  0  -0.363494  -0.523065  0  2.160194  0
O  O89  1  0.04113220  0.97534511  0.24306295  1  -1.283622  0  -0.284157  -0.499351  0  2.229562  0
O  O90  1  0.01651829  0.03487439  0.38976830  1  -1.263664  0  -0.317793  -0.52912  0  2.098203  0
O  O91  1  0.78162091  0.09357793  0.28236536  1  -1.246483  0  -0.35991  -0.538064  0  2.235073  0
