# generated using pymatgen
data_CdH38C44(NO)8
_symmetry_space_group_name_H-M   'P 1'
_cell_length_a   9.47891513
_cell_length_b   10.53006983
_cell_length_c   20.03421989
_cell_angle_alpha   84.36224599
_cell_angle_beta   79.11534225
_cell_angle_gamma   83.28055442
_symmetry_Int_Tables_number   1
_chemical_formula_structural   CdH38C44(NO)8
_chemical_formula_sum   'Cd2 H76 C88 N16 O16'
_cell_volume   1944.27076517
_cell_formula_units_Z   2
loop_
 _symmetry_equiv_pos_site_id
 _symmetry_equiv_pos_as_xyz
  1  'x, y, z'
loop_
 _atom_site_type_symbol
 _atom_site_label
 _atom_site_symmetry_multiplicity
 _atom_site_fract_x
 _atom_site_fract_y
 _atom_site_fract_z
 _atom_site_occupancy
 _atom_site_pbe_bader_charge
 _atom_site_pbe_bader_spin_density
 _atom_site_pbe_cm5_charge
 _atom_site_pbe_ddec_charge
 _atom_site_pbe_ddec_spin_density
 _atom_site_pbe_ddec_sum_bond_order
 _atom_site_pbe_magmom
Cd  Cd0  1  0.02614347  0.64552182  0.26326725  1  1.244338  0  0.781156  0.81359  0  2.200186  0
Cd  Cd1  1  0.97385951  0.35447761  0.73673270  1  1.244239  0  0.781175  0.813564  0  2.200219  0
H  H2  1  0.56034208  0.91161615  0.27089987  1  0.100393  0  0.101414  0.107357  0  1.037294  0
H  H3  1  0.43965692  0.08838135  0.72909800  1  0.100348  0  0.101398  0.107336  0  1.037267  0
H  H4  1  0.50574512  0.63212132  0.26208690  1  0.070984  0  0.111028  0.126224  0  1.005594  0
H  H5  1  0.49425811  0.36787620  0.73791262  1  0.071036  0  0.111033  0.126274  0  1.005547  0
H  H6  1  0.88631700  0.72536404  0.95420023  1  0.541281  0  0.304656  0.279301  0  1.020386  0
H  H7  1  0.11367697  0.27463820  0.04580282  1  0.541255  0  0.30461  0.279258  0  1.020396  0
H  H8  1  0.84211454  0.67521079  0.14206924  1  0.12861  0  0.117582  0.100965  0  1.040579  0
H  H9  1  0.15788678  0.32478480  0.85793053  1  0.128585  0  0.117579  0.100957  0  1.040582  0
H  H10  1  0.28205615  0.59634046  0.14039897  1  0.121005  0  0.115187  0.092873  0  1.009934  0
H  H11  1  0.71794585  0.40365898  0.85959806  1  0.120954  0  0.115169  0.092844  0  1.010017  0
H  H12  1  0.33314617  0.59059882  0.01255281  1  0.080939  0  0.106938  0.107884  0  1.014362  0
H  H13  1  0.66685591  0.40939966  0.98744525  1  0.080996  0  0.106916  0.107838  0  1.014347  0
H  H14  1  0.12847924  0.63848859  0.94860859  1  0.08805  0  0.117395  0.13112  0  0.983241  0
H  H15  1  0.87151841  0.36151081  0.05139030  1  0.088086  0  0.117413  0.131129  0  0.983245  0
H  H16  1  0.66840225  0.72694238  0.92502949  1  0.050149  0  0.102123  0.120557  0  0.998839  0
H  H17  1  0.33159538  0.27305604  0.07497445  1  0.050474  0  0.102078  0.120481  0  0.998833  0
H  H18  1  0.52348129  0.67321666  0.98657025  1  0.028057  0  0.101099  0.115774  0  1.008087  0
H  H19  1  0.47651495  0.32678464  0.01343266  1  0.02815  0  0.101098  0.115767  0  1.008119  0
H  H20  1  0.52250633  0.84457373  0.10005058  1  0.090349  0  0.096867  0.106932  0  1.019869  0
H  H21  1  0.47748985  0.15542854  0.89995029  1  0.090344  0  0.096826  0.106866  0  1.019923  0
H  H22  1  0.57074844  0.92809986  0.88308286  1  0.078778  0  0.095167  0.095968  0  1.043194  0
H  H23  1  0.42925377  0.07190531  0.11691936  1  0.079164  0  0.095128  0.095915  0  1.04334  0
H  H24  1  0.17263742  0.74201946  0.56015209  1  0.533954  0  0.303066  0.280571  0  1.020837  0
H  H25  1  0.82736977  0.25798096  0.43984646  1  0.534327  0  0.303079  0.280587  0  1.020796  0
H  H26  1  0.20119423  0.70013187  0.37720603  1  0.130207  0  0.118307  0.099607  0  1.043872  0
H  H27  1  0.79880826  0.29987139  0.62279476  1  0.130273  0  0.118296  0.099565  0  1.043867  0
H  H28  1  0.78072806  0.60690602  0.39689680  1  0.109748  0  0.117338  0.099097  0  0.998114  0
H  H29  1  0.21927415  0.39310013  0.60310138  1  0.110135  0  0.117348  0.099096  0  0.998108  0
H  H30  1  0.74452845  0.60584961  0.52483517  1  0.107561  0  0.10619  0.106884  0  1.027363  0
H  H31  1  0.25546955  0.39415555  0.47516440  1  0.107787  0  0.106154  0.106841  0  1.027387  0
H  H32  1  0.94515244  0.66052999  0.57846849  1  0.071494  0  0.112091  0.121293  0  1.00266  0
H  H33  1  0.05484683  0.33947423  0.42152853  1  0.071439  0  0.112075  0.121306  0  1.002653  0
H  H34  1  0.54444659  0.66730540  0.52287667  1  0.073927  0  0.10297  0.123155  0  1.011171  0
H  H35  1  0.45555840  0.33269500  0.47712406  1  0.073972  0  0.102987  0.1232  0  1.011156  0
H  H36  1  0.39385700  0.71562129  0.58573430  1  0.072879  0  0.104359  0.122549  0  0.997493  0
H  H37  1  0.60614581  0.28438007  0.41426356  1  0.072869  0  0.104422  0.122624  0  0.997477  0
H  H38  1  0.45068980  0.91018567  0.62009037  1  0.057177  0  0.095571  0.09452  0  1.031867  0
H  H39  1  0.54930861  0.08981663  0.37990732  1  0.057108  0  0.095561  0.094481  0  1.031922  0
H  H40  1  0.49933481  0.86353699  0.40560491  1  0.090223  0  0.100653  0.108769  0  1.023003  0
H  H41  1  0.50066456  0.13646627  0.59439265  1  0.090245  0  0.10066  0.108818  0  1.022979  0
H  H42  1  0.20283385  0.02454617  0.23155004  1  0.557292  0  0.300851  0.282709  0  1.019106  0
H  H43  1  0.79717019  0.97545327  0.76845031  1  0.557314  0  0.300836  0.282693  0  1.018983  0
H  H44  1  0.03736158  0.36438867  0.20775519  1  0.139983  0  0.116822  0.099468  0  1.036065  0
H  H45  1  0.96263909  0.63561169  0.79224690  1  0.139952  0  0.116837  0.099518  0  1.036006  0
H  H46  1  0.27644547  0.49836567  0.33483562  1  0.106654  0  0.115255  0.086193  0  1.024222  0
H  H47  1  0.72355251  0.50162987  0.66516843  1  0.106365  0  0.115249  0.086203  0  1.024219  0
H  H48  1  0.41285910  0.28236769  0.35010395  1  0.070416  0  0.106214  0.107624  0  1.021135  0
H  H49  1  0.58713481  0.71762591  0.64990053  1  0.07055  0  0.106209  0.107643  0  1.021135  0
H  H50  1  0.35344208  0.09971467  0.29124131  1  0.118504  0  0.111303  0.12124  0  1.023879  0
H  H51  1  0.64655574  0.90028281  0.70876016  1  0.11853  0  0.111319  0.121242  0  1.023926  0
H  H52  1  0.17595871  0.92614011  0.13783629  1  0.094036  0  0.106207  0.129157  0  0.988321  0
H  H53  1  0.82404215  0.07385931  0.86216283  1  0.094068  0  0.106194  0.129138  0  0.98827  0
H  H54  1  0.99197032  0.94780586  0.17379112  1  0.080375  0  0.106267  0.138983  0  1.003842  0
H  H55  1  0.00802824  0.05219450  0.82620964  1  0.080083  0  0.106279  0.13897  0  1.003869  0
H  H56  1  0.24936034  0.92159885  0.01628942  1  0.070159  0  0.092287  0.093584  0  1.055329  0
H  H57  1  0.75064132  0.07840249  0.98371104  1  0.070143  0  0.092293  0.093619  0  1.055312  0
H  H58  1  0.81528788  0.07179917  0.09727399  1  0.060261  0  0.092686  0.093354  0  1.051071  0
H  H59  1  0.18471189  0.92820025  0.90272622  1  0.060272  0  0.092694  0.09338  0  1.051065  0
H  H60  1  0.79857752  0.00032786  0.26978175  1  0.528739  0  0.297391  0.273061  0  1.020109  0
H  H61  1  0.20142071  0.99966675  0.73021783  1  0.528734  0  0.297419  0.273045  0  1.020194  0
H  H62  1  0.64027584  0.05100244  0.19399230  1  0.078797  0  0.110411  0.082524  0  1.016559  0
H  H63  1  0.35972199  0.94899504  0.80600866  1  0.078337  0  0.110391  0.082503  0  1.016551  0
H  H64  1  0.53200228  0.42614337  0.12330200  1  0.071342  0  0.10406  0.072144  0  1.014734  0
H  H65  1  0.46799488  0.57385888  0.87670228  1  0.071356  0  0.104044  0.072105  0  1.014723  0
H  H66  1  0.66955714  0.51025297  0.20103931  1  0.144213  0  0.105096  0.116801  0  1.041483  0
H  H67  1  0.33044672  0.48974741  0.79896351  1  0.144212  0  0.105091  0.1168  0  1.04157  0
H  H68  1  0.79079492  0.35836349  0.28072945  1  0.140633  0  0.108206  0.124872  0  1.027439  0
H  H69  1  0.20920543  0.64163113  0.71927095  1  0.141237  0  0.108196  0.124904  0  1.027428  0
H  H70  1  0.86252696  0.90750741  0.36631450  1  0.080858  0  0.101976  0.123052  0  1.01426  0
H  H71  1  0.13747941  0.09249109  0.63368371  1  0.080846  0  0.101986  0.123052  0  1.014254  0
H  H72  1  0.03272817  0.95563841  0.32919460  1  0.091023  0  0.106769  0.135191  0  1.001468  0
H  H73  1  0.96727806  0.04436105  0.67080408  1  0.091084  0  0.106784  0.135211  0  1.0015  0
H  H74  1  0.18302670  0.04546904  0.39689290  1  0.068641  0  0.094186  0.098439  0  1.031065  0
H  H75  1  0.81697512  0.95453135  0.60310610  1  0.068696  0  0.094193  0.098412  0  1.031037  0
H  H76  1  0.76172805  0.93825949  0.48845853  1  0.076269  0  0.090056  0.088609  0  1.06511  0
H  H77  1  0.23827358  0.06174282  0.51153889  1  0.076247  0  0.090062  0.088649  0  1.065073  0
C  C78  1  0.73949308  0.75656921  0.26605194  1  1.506484  0  0.195523  0.597715  0  4.212211  0
C  C79  1  0.26050779  0.24343022  0.73394718  1  1.506647  0  0.195508  0.597708  0  4.212227  0
C  C80  1  0.58626741  0.80824158  0.26849160  1  -0.073428  0  -0.09082  -0.195125  0  3.931423  0
C  C81  1  0.41373371  0.19175593  0.73150660  1  -0.073447  0  -0.090826  -0.195074  0  3.931277  0
C  C82  1  0.48157370  0.73536867  0.26503923  1  -0.014547  0  -0.07278  -0.144634  0  3.866492  0
C  C83  1  0.51842654  0.26462691  0.73496064  1  -0.01457  0  -0.07276  -0.144708  0  3.866389  0
C  C84  1  0.32911198  0.78896204  0.26244730  1  1.596761  0  0.202705  0.615903  0  4.234939  0
C  C85  1  0.67089080  0.21103932  0.73755156  1  1.596816  0  0.202705  0.615913  0  4.234997  0
C  C86  1  0.96864168  0.66104798  0.04045451  1  0.384603  0  0.110133  0.216595  0  4.017372  0
C  C87  1  0.03135605  0.33895046  0.95954591  1  0.384663  0  0.110149  0.216669  0  4.017366  0
C  C88  1  0.94928326  0.65833975  0.11175553  1  0.553183  0  0.045072  0.000686  0  3.888457  0
C  C89  1  0.05071688  0.34165679  0.88824379  1  0.553196  0  0.04507  0.000655  0  3.888506  0
C  C90  1  0.19609538  0.61226037  0.11033648  1  0.37283  0  0.03512  0.064443  0  3.956508  0
C  C91  1  0.80390470  0.38773714  0.88966081  1  0.373058  0  0.035085  0.064422  0  3.956533  0
C  C92  1  0.22325638  0.61111359  0.03968896  1  0.069761  0  -0.08405  -0.108182  0  4.002772  0
C  C93  1  0.77674253  0.38888488  0.96030788  1  0.069476  0  -0.084022  -0.108109  0  4.002804  0
C  C94  1  0.10946643  0.63654629  0.00407366  1  -0.029046  0  -0.064198  -0.120229  0  3.908206  0
C  C95  1  0.89052910  0.36345311  0.99592491  1  -0.029009  0  -0.064229  -0.120288  0  3.908428  0
C  C96  1  0.71196594  0.68025176  0.02817301  1  1.410912  0  0.241366  0.532568  0  4.087782  0
C  C97  1  0.28802901  0.31975145  0.97182941  1  1.384292  0  0.241352  0.53246  0  4.087763  0
C  C98  1  0.61350695  0.73332731  0.97820432  1  -0.005311  0  -0.154452  -0.338619  0  3.94645  0
C  C99  1  0.38648931  0.26667399  0.02179809  1  -0.005809  0  -0.154465  -0.338597  0  3.946504  0
C  C100  1  0.55481463  0.87114802  0.99005858  1  -0.020197  0  -0.009998  0.132802  0  3.952686  0
C  C101  1  0.44518380  0.12885330  0.00994265  1  -0.020164  0  -0.009965  0.132847  0  3.952792  0
C  C102  1  0.51270998  0.91250495  0.05597080  1  -0.127889  0  -0.097723  -0.143749  0  3.972089  0
C  C103  1  0.48728511  0.08749731  0.94403065  1  -0.127791  0  -0.097714  -0.143703  0  3.972149  0
C  C104  1  0.54117822  0.96027589  0.93440532  1  -0.004908  0  -0.096637  -0.138223  0  3.99532  0
C  C105  1  0.45881377  0.03972539  0.06559644  1  -0.005241  0  -0.096603  -0.13818  0  3.995462  0
C  C106  1  0.09023853  0.68110359  0.48192943  1  0.343798  0  0.11027  0.216302  0  4.030054  0
C  C107  1  0.90976151  0.31890255  0.51806993  1  0.344017  0  0.110378  0.216469  0  4.02983  0
C  C108  1  0.10173761  0.67939405  0.41122194  1  0.530375  0  0.04243  -0.007896  0  3.901993  0
C  C109  1  0.89826491  0.32060922  0.58877785  1  0.530278  0  0.042435  -0.007884  0  3.90188  0
C  C110  1  0.86562833  0.62845702  0.42273258  1  0.469639  0  0.033662  0.060997  0  3.94748  0
C  C111  1  0.13437290  0.37154816  0.57726673  1  0.469186  0  0.033647  0.060969  0  3.947522  0
C  C112  1  0.84593938  0.62994581  0.49335527  1  -0.06072  0  -0.083945  -0.109654  0  4.012899  0
C  C113  1  0.15405922  0.37006320  0.50664457  1  -0.061122  0  -0.083961  -0.109678  0  4.012945  0
C  C114  1  0.95795215  0.65774053  0.52341605  1  0.053056  0  -0.069052  -0.127208  0  3.930493  0
C  C115  1  0.04204662  0.34226752  0.47658232  1  0.053226  0  -0.069058  -0.127333  0  3.930456  0
C  C116  1  0.34757150  0.68620474  0.48695397  1  1.410352  0  0.243443  0.546978  0  4.055624  0
C  C117  1  0.65243424  0.31378992  0.51304498  1  1.410378  0  0.243278  0.546836  0  4.055578  0
C  C118  1  0.44311268  0.73034904  0.53162513  1  -0.055977  0  -0.15436  -0.34151  0  3.927594  0
C  C119  1  0.55689141  0.26965040  0.46837372  1  -0.056147  0  -0.154453  -0.341628  0  3.927722  0
C  C120  1  0.47240381  0.86950538  0.51483415  1  -0.058509  0  -0.010085  0.127587  0  3.962746  0
C  C121  1  0.52760030  0.13049407  0.48516370  1  -0.05799  0  -0.01003  0.127644  0  3.962739  0
C  C122  1  0.47312729  0.94892771  0.56702828  1  -0.102907  0  -0.095289  -0.139817  0  3.977507  0
C  C123  1  0.52687459  0.05107269  0.43296871  1  -0.10291  0  -0.09521  -0.139689  0  3.977474  0
C  C124  1  0.49994680  0.92277183  0.44728783  1  -3.9e-05  0  -0.091658  -0.13129  0  3.95718  0
C  C125  1  0.50005388  0.07722952  0.55270971  1  -0.000539  0  -0.091673  -0.131388  0  3.957218  0
C  C126  1  0.19223117  0.21802881  0.24435541  1  0.342358  0  0.106488  0.217188  0  3.985381  0
C  C127  1  0.80777182  0.78197063  0.75564403  1  0.342697  0  0.106406  0.217112  0  3.985353  0
C  C128  1  0.12041465  0.34219448  0.23896696  1  0.549092  0  0.041563  -0.005707  0  3.908019  0
C  C129  1  0.87958725  0.65780494  0.76103357  1  0.549042  0  0.041554  -0.005826  0  3.908122  0
C  C130  1  0.25414624  0.41668531  0.31047680  1  0.444723  0  0.036288  0.068564  0  3.96889  0
C  C131  1  0.74585068  0.58331023  0.68952684  1  0.44553  0  0.036248  0.068454  0  3.968896  0
C  C132  1  0.32968676  0.29640148  0.31857935  1  -0.012548  0  -0.08537  -0.113376  0  4.008171  0
C  C133  1  0.67031007  0.70359502  0.68142325  1  -0.01318  0  -0.085371  -0.11337  0  4.008146  0
C  C134  1  0.29807598  0.19584072  0.28580234  1  -0.007468  0  -0.070234  -0.129671  0  3.921124  0
C  C135  1  0.70191979  0.80415578  0.71419985  1  -0.007693  0  -0.070218  -0.129659  0  3.921199  0
C  C136  1  0.09360414  0.12034330  0.15799503  1  1.381817  0  0.252595  0.546974  0  4.026781  0
C  C137  1  0.90640386  0.87965904  0.84200435  1  1.381572  0  0.252665  0.547083  0  4.026832  0
C  C138  1  0.07637808  0.98995847  0.13518847  1  -0.07565  0  -0.157271  -0.349281  0  3.92785  0
C  C139  1  0.92362203  0.01003806  0.86481186  1  -0.075362  0  -0.157293  -0.349307  0  3.92794  0
C  C140  1  0.03697649  0.99532681  0.06551046  1  0.003356  0  -0.018891  0.127028  0  3.98703  0
C  C141  1  0.96302303  0.00467451  0.93449018  1  0.003494  0  -0.018869  0.127098  0  3.986889  0
C  C142  1  0.13962471  0.95634932  0.00953824  1  -0.020211  0  -0.099297  -0.142129  0  3.993586  0
C  C143  1  0.86037482  0.04365201  0.99046189  1  -0.020101  0  -0.099302  -0.142192  0  3.993583  0
C  C144  1  0.89706660  0.03938100  0.05488906  1  -0.082688  0  -0.100272  -0.13313  0  3.978072  0
C  C145  1  0.10293209  0.96061841  0.94511124  1  -0.083004  0  -0.100271  -0.133181  0  3.978031  0
C  C146  1  0.72637845  0.19120487  0.24349411  1  0.370985  0  0.093671  0.193399  0  4.030136  0
C  C147  1  0.27362050  0.80879262  0.75650526  1  0.371537  0  0.093566  0.193242  0  4.030232  0
C  C148  1  0.64684610  0.15316365  0.19749136  1  0.481918  0  0.030017  -0.03171  0  3.995839  0
C  C149  1  0.35315058  0.84683479  0.80250866  1  0.482316  0  0.030054  -0.031607  0  3.995719  0
C  C150  1  0.58680306  0.36036950  0.15806955  1  0.491621  0  0.030683  0.065983  0  4.003651  0
C  C151  1  0.41319546  0.63963085  0.84193272  1  0.491528  0  0.030634  0.065986  0  4.003777  0
C  C152  1  0.66265392  0.40784585  0.20182621  1  -0.074768  0  -0.086043  -0.110433  0  3.989141  0
C  C153  1  0.33734793  0.59215357  0.79817582  1  -0.074877  0  -0.086002  -0.110372  0  3.989216  0
C  C154  1  0.73232541  0.32330115  0.24584693  1  -0.041568  0  -0.08383  -0.143724  0  3.937312  0
C  C155  1  0.26768011  0.67669543  0.75415144  1  -0.042036  0  -0.083765  -0.143777  0  3.937415  0
C  C156  1  0.86307708  0.10826298  0.33547704  1  1.379308  0  0.248627  0.543232  0  4.035549  0
C  C157  1  0.13692193  0.89173453  0.66452034  1  1.379286  0  0.248582  0.543201  0  4.035409  0
C  C158  1  0.93316884  0.98335677  0.36526418  1  -0.077383  0  -0.163313  -0.3516  0  3.943572  0
C  C159  1  0.06683397  0.01664459  0.63473368  1  -0.077376  0  -0.163322  -0.351606  0  3.943563  0
C  C160  1  0.96791658  0.99198125  0.43465203  1  -0.043135  0  -0.019429  0.126778  0  3.991009  0
C  C161  1  0.03208634  0.00801915  0.56534587  1  -0.04312  0  -0.019447  0.126774  0  3.990994  0
C  C162  1  0.10216986  0.02608634  0.44212917  1  -0.046028  0  -0.096877  -0.128057  0  3.968796  0
C  C163  1  0.89782916  0.97391980  0.55786828  1  -0.046208  0  -0.096874  -0.128068  0  3.9688  0
C  C164  1  0.86623034  0.96609295  0.49334417  1  -0.032917  0  -0.101823  -0.144939  0  4.002807  0
C  C165  1  0.13377247  0.03390841  0.50665369  1  -0.033036  0  -0.101832  -0.145011  0  4.002796  0
N  N166  1  0.06083922  0.63559638  0.14514612  1  -1.226847  0  -0.332926  -0.22564  0  3.55722  0
N  N167  1  0.93916187  0.36440113  0.85485308  1  -1.226893  0  -0.332894  -0.225594  0  3.557284  0
N  N168  1  0.85538014  0.69172509  0.00445260  1  -1.322367  0  -0.400349  -0.392276  0  3.589905  0
N  N169  1  0.14461530  0.30827429  0.99554897  1  -1.295075  0  -0.400267  -0.392176  0  3.589762  0
N  N170  1  0.99177478  0.65393681  0.38273021  1  -1.238812  0  -0.330902  -0.233785  0  3.550803  0
N  N171  1  0.00822390  0.34607123  0.61727066  1  -1.238672  0  -0.330922  -0.233744  0  3.550768  0
N  N172  1  0.20300969  0.70760489  0.51224281  1  -1.295359  0  -0.400323  -0.395306  0  3.581472  0
N  N173  1  0.79699451  0.29239359  0.48775609  1  -1.295935  0  -0.400278  -0.395285  0  3.581491  0
N  N174  1  0.15060461  0.43766385  0.27199496  1  -1.249833  0  -0.332114  -0.233789  0  3.55657  0
N  N175  1  0.84939306  0.56233458  0.72800797  1  -1.249875  0  -0.332059  -0.233651  0  3.556434  0
N  N176  1  0.16157520  0.11448406  0.21255124  1  -1.314073  0  -0.397944  -0.394028  0  3.569623  0
N  N177  1  0.83842558  0.88551535  0.78745089  1  -1.313837  0  -0.397938  -0.393986  0  3.569339  0
N  N178  1  0.57818493  0.23461969  0.15599005  1  -1.203632  0  -0.324782  -0.252674  0  3.391878  0
N  N179  1  0.42181254  0.76538066  0.84401131  1  -1.20363  0  -0.324757  -0.252686  0  3.39189  0
N  N180  1  0.79610747  0.09434292  0.28259018  1  -1.314506  0  -0.401789  -0.394515  0  3.594741  0
N  N181  1  0.20389390  0.90565267  0.71740760  1  -1.314818  0  -0.40181  -0.394469  0  3.594711  0
O  O182  1  0.77393778  0.63595783  0.27303635  1  -1.149424  0  -0.320637  -0.534798  0  2.172175  0
O  O183  1  0.22606218  0.36404064  0.72696090  1  -1.149255  0  -0.320624  -0.534774  0  2.172169  0
O  O184  1  0.83428568  0.83751886  0.25598798  1  -1.16982  0  -0.325344  -0.573598  0  2.221293  0
O  O185  1  0.16571535  0.16247863  0.74401372  1  -1.170054  0  -0.325334  -0.573586  0  2.221256  0
O  O186  1  0.25177206  0.70930061  0.24618697  1  -1.187459  0  -0.342071  -0.584241  0  2.313316  0
O  O187  1  0.74822746  0.29070071  0.75381367  1  -1.1875  0  -0.342046  -0.584213  0  2.313433  0
O  O188  1  0.28838910  0.90400712  0.27560326  1  -1.19957  0  -0.328242  -0.5745  0  2.197874  0
O  O189  1  0.71161156  0.09599423  0.72439479  1  -1.199567  0  -0.328278  -0.574525  0  2.197833  0
O  O190  1  0.66314430  0.63400194  0.08613340  1  -1.159013  0  -0.297722  -0.504825  0  2.133151  0
O  O191  1  0.33685447  0.36599650  0.91386844  1  -1.159625  0  -0.297705  -0.504772  0  2.13316  0
O  O192  1  0.39856759  0.63638443  0.43289755  1  -1.15022  0  -0.306336  -0.502155  0  2.066758  0
O  O193  1  0.60143497  0.36360923  0.56710421  1  -1.150106  0  -0.306271  -0.502096  0  2.066666  0
O  O194  1  0.04794332  0.22390723  0.13000735  1  -1.174334  0  -0.287008  -0.497163  0  2.204092  0
O  O195  1  0.95206094  0.77609029  0.86999358  1  -1.174371  0  -0.286984  -0.497182  0  2.204145  0
O  O196  1  0.86839153  0.21441014  0.35714574  1  -1.172075  0  -0.290705  -0.500497  0  2.210801  0
O  O197  1  0.13160763  0.78558543  0.64285471  1  -1.172151  0  -0.290663  -0.500442  0  2.210742  0
