# generated using pymatgen
data_NiH14C16(NO)4
_symmetry_space_group_name_H-M   'P 1'
_cell_length_a   13.39357354
_cell_length_b   16.66772803
_cell_length_c   18.92105671
_cell_angle_alpha   89.99984172
_cell_angle_beta   89.99949784
_cell_angle_gamma   109.44285338
_symmetry_Int_Tables_number   1
_chemical_formula_structural   NiH14C16(NO)4
_chemical_formula_sum   'Ni6 H84 C96 N24 O24'
_cell_volume   3983.07018851
_cell_formula_units_Z   6
loop_
 _symmetry_equiv_pos_site_id
 _symmetry_equiv_pos_as_xyz
  1  'x, y, z'
loop_
 _atom_site_type_symbol
 _atom_site_label
 _atom_site_symmetry_multiplicity
 _atom_site_fract_x
 _atom_site_fract_y
 _atom_site_fract_z
 _atom_site_occupancy
 _atom_site_pbe_bader_charge
 _atom_site_pbe_bader_spin_density
 _atom_site_pbe_cm5_charge
 _atom_site_pbe_ddec_charge
 _atom_site_pbe_ddec_spin_density
 _atom_site_pbe_ddec_sum_bond_order
 _atom_site_pbe_magmom
Ni  Ni0  1  0.45149182  0.53737546  0.76121760  1  1.130561  1.546404  0.641044  0.70516  1.773759  2.52443  1.527
Ni  Ni1  1  0.04850914  0.96262312  0.26121347  1  1.130636  1.546405  0.640988  0.705075  1.77376  2.524474  1.527
Ni  Ni2  1  0.54850669  0.46262540  0.23878674  1  1.130667  1.546412  0.640993  0.705218  1.773765  2.524301  1.527
Ni  Ni3  1  0.95149157  0.03737583  0.73878135  1  1.130655  1.546407  0.641074  0.70535  1.77376  2.524172  1.527
Ni  Ni4  1  0.99999505  0.49999604  0.00000107  1  1.099048  1.496687  0.628755  0.672892  1.722664  2.503718  1.485
Ni  Ni5  1  0.50000055  0.00000057  0.50000014  1  1.099085  1.496686  0.628768  0.672902  1.722662  2.503716  1.485
H  H6  1  0.77125837  0.57713986  0.89120085  1  0.087365  0.00068  0.102181  0.104038  0.000476  1.029328  0.0
H  H7  1  0.72873147  0.92286062  0.39120153  1  0.08715  0.00068  0.102211  0.104014  0.000476  1.029221  0.0
H  H8  1  0.22872539  0.42285780  0.10879820  1  0.087214  0.00068  0.102179  0.103981  0.000476  1.02924  0.0
H  H9  1  0.27127829  0.07714216  0.60879805  1  0.087126  0.000679  0.102186  0.103949  0.000476  1.029321  0.0
H  H10  1  0.73494309  0.77901588  0.76347688  1  0.104546  0.001151  0.105306  0.108369  0.000852  1.037306  0.0
H  H11  1  0.76505522  0.72098681  0.26347888  1  0.104585  0.00115  0.105271  0.108394  0.000852  1.037382  0.0
H  H12  1  0.26505721  0.22098753  0.23652165  1  0.10456  0.00115  0.105276  0.108422  0.000852  1.037312  0.0
H  H13  1  0.23494807  0.27901660  0.73651700  1  0.104742  0.00115  0.105293  0.108432  0.000852  1.037292  0.0
H  H14  1  0.02681452  0.81636324  0.87308335  1  0.135482  0.00046  0.105124  0.105935  0.000308  1.022523  0.0
H  H15  1  0.47318884  0.68363008  0.37308892  1  0.135272  0.00046  0.105107  0.105856  0.000308  1.022514  0.0
H  H16  1  0.97318348  0.18362554  0.12691359  1  0.135287  0.00046  0.105097  0.105875  0.000308  1.022427  0.0
H  H17  1  0.52682342  0.31637333  0.62691436  1  0.135284  0.00046  0.105061  0.105829  0.000308  1.022456  0.0
H  H18  1  0.13268319  0.39879559  0.94150836  1  0.09525  0.001523  0.115372  0.086923  0.000516  1.012363  0.001
H  H19  1  0.36731242  0.10120577  0.44151109  1  0.095152  0.001524  0.115339  0.08693  0.000517  1.012248  0.001
H  H20  1  0.86730571  0.60119827  0.05849069  1  0.095124  0.001524  0.115337  0.086879  0.000517  1.012315  0.001
H  H21  1  0.63268052  0.89879064  0.55848638  1  0.095066  0.001525  0.11534  0.086895  0.000517  1.012347  0.001
H  H22  1  0.14458433  0.31928509  0.83342989  1  0.086717  0.00102  0.116296  0.139297  0.00049  0.980824  0.0
H  H23  1  0.35541880  0.18071133  0.33343091  1  0.086472  0.001019  0.116308  0.139384  0.00049  0.98094  0.0
H  H24  1  0.85541686  0.68071323  0.16656863  1  0.086556  0.00102  0.116304  0.139307  0.00049  0.980786  0.0
H  H25  1  0.64457457  0.81928253  0.66656550  1  0.086809  0.001019  0.116291  0.139223  0.00049  0.980901  0.0
H  H26  1  0.89727514  0.40237516  0.74412538  1  0.071658  0.001078  0.105498  0.121078  0.000503  0.995275  0.0
H  H27  1  0.60272208  0.09762730  0.24412552  1  0.071799  0.001078  0.105482  0.121043  0.000503  0.995365  0.0
H  H28  1  0.10271241  0.59761361  0.25587843  1  0.07171  0.001078  0.105419  0.120968  0.000503  0.995195  0.0
H  H29  1  0.39727432  0.90237928  0.75587248  1  0.071719  0.001078  0.105453  0.121002  0.000503  0.995281  0.0
H  H30  1  0.90253280  0.48358221  0.85448697  1  0.100212  0.00151  0.114819  0.089101  0.000505  1.015169  0.001
H  H31  1  0.59746296  0.01642008  0.35448680  1  0.100331  0.001511  0.114797  0.089006  0.000505  1.015288  0.001
H  H32  1  0.09745179  0.51640846  0.14551578  1  0.100436  0.00151  0.11478  0.089109  0.000505  1.01515  0.001
H  H33  1  0.40253765  0.98358587  0.64550908  1  0.100328  0.001511  0.114803  0.089094  0.000505  1.015158  0.001
H  H34  1  0.51036706  0.67554717  0.66271165  1  0.120538  0.001997  0.113402  0.085984  0.000675  1.044409  0.002
H  H35  1  0.98964337  0.82444927  0.16270885  1  0.120678  0.001998  0.113425  0.085959  0.000675  1.044582  0.002
H  H36  1  0.48964174  0.32444607  0.33729269  1  0.120697  0.001998  0.113446  0.085962  0.000675  1.044434  0.002
H  H37  1  0.01036780  0.17554970  0.83729126  1  0.120605  0.001998  0.113435  0.086054  0.000675  1.044412  0.002
H  H38  1  0.45504361  0.71597590  0.54656498  1  0.105023  0.000833  0.103401  0.125048  0.000388  1.036083  0.0
H  H39  1  0.04496952  0.78401852  0.04656396  1  0.105179  0.000833  0.103414  0.12499  0.000388  1.03599  0.0
H  H40  1  0.54497349  0.28402116  0.45343724  1  0.10528  0.000833  0.103414  0.125023  0.000388  1.036066  0.0
H  H41  1  0.95503876  0.21597344  0.95343668  1  0.105072  0.000833  0.103396  0.124975  0.000388  1.036069  0.0
H  H42  1  0.18289850  0.48560160  0.55708877  1  0.068268  0.001173  0.10285  0.116165  0.000555  1.00221  0.0
H  H43  1  0.31711653  0.01439175  0.05708990  1  0.067414  0.001173  0.102837  0.116124  0.000556  1.002293  0.0
H  H44  1  0.81711275  0.51440118  0.44290870  1  0.067395  0.001173  0.102833  0.116148  0.000556  1.002202  0.0
H  H45  1  0.68289231  0.98560340  0.94290968  1  0.06755  0.001173  0.102872  0.116164  0.000556  1.002204  0.0
H  H46  1  0.24779650  0.45746485  0.67433364  1  0.107877  0.002016  0.114949  0.089468  0.000678  1.002345  0.001
H  H47  1  0.25221279  0.04253082  0.17433193  1  0.107895  0.002017  0.114966  0.08944  0.000678  1.002402  0.001
H  H48  1  0.75220368  0.54253283  0.32566594  1  0.107897  0.002017  0.114944  0.08944  0.000678  1.002419  0.001
H  H49  1  0.74779573  0.95747259  0.82566395  1  0.10795  0.002017  0.114976  0.089468  0.000678  1.002411  0.001
H  H50  1  0.28542630  0.62191906  0.76984913  1  0.081273  0.002527  0.116484  0.08455  0.000891  1.00492  0.001
H  H51  1  0.21456298  0.87807499  0.26984948  1  0.081785  0.002528  0.116472  0.084472  0.000891  1.004989  0.001
H  H52  1  0.71456628  0.37808370  0.23014781  1  0.081809  0.002527  0.116514  0.084576  0.000891  1.004992  0.001
H  H53  1  0.78542820  0.12192077  0.73015275  1  0.081704  0.002528  0.116486  0.084537  0.000891  1.004859  0.001
H  H54  1  0.16368578  0.64300847  0.86262654  1  0.099504  0.00109  0.111401  0.133609  0.000495  1.000815  0.0
H  H55  1  0.33630490  0.85699000  0.36262724  1  0.099634  0.001089  0.111425  0.133671  0.000495  1.000777  0.0
H  H56  1  0.83631022  0.35699175  0.13737727  1  0.099649  0.001089  0.111405  0.133604  0.000495  1.000812  0.0
H  H57  1  0.66369163  0.14301149  0.63737445  1  0.099509  0.001089  0.111393  0.133601  0.000495  1.000833  0.0
H  H58  1  0.32210022  0.53015255  0.01244798  1  0.094537  0.001201  0.114187  0.135089  0.000565  0.987177  0.0
H  H59  1  0.17790178  0.96985547  0.51244533  1  0.094541  0.001201  0.114173  0.135076  0.000565  0.987341  0.0
H  H60  1  0.67790066  0.46985403  0.98755424  1  0.094477  0.001201  0.114161  0.135077  0.000565  0.98722  0.0
H  H61  1  0.82209940  0.03015366  0.48754949  1  0.094531  0.001201  0.114179  0.135072  0.000565  0.98714  0.0
H  H62  1  0.43774635  0.51536799  0.91315950  1  0.123465  0.002519  0.122546  0.100514  0.000898  0.988147  0.002
H  H63  1  0.06224894  0.98463775  0.41316105  1  0.123265  0.002519  0.122577  0.100597  0.000899  0.988199  0.002
H  H64  1  0.56224758  0.48463986  0.08683955  1  0.123245  0.00252  0.122565  0.100614  0.000899  0.988186  0.002
H  H65  1  0.93774873  0.01537010  0.58683642  1  0.123436  0.00252  0.122607  0.100554  0.000899  0.988115  0.002
H  H66  1  0.04832479  0.25386920  0.72279797  1  0.525128  0.000166  0.295269  0.311054  5e-05  1.000508  0.0
H  H67  1  0.45167294  0.24613248  0.22279718  1  0.525088  0.000165  0.295257  0.310982  5e-05  1.000543  0.0
H  H68  1  0.95168146  0.74613231  0.27720161  1  0.525124  0.000165  0.295276  0.310733  5e-05  1.000212  0.0
H  H69  1  0.54832438  0.75387093  0.77719817  1  0.52513  0.000165  0.295278  0.310783  5e-05  1.000168  0.0
H  H70  1  0.95786303  0.29442209  0.68519786  1  0.428936  6.2e-05  0.31007  0.299904  -1.5e-05  0.93854  0.0
H  H71  1  0.54213035  0.20558017  0.18519440  1  0.428925  6.2e-05  0.310035  0.299852  -1.5e-05  0.938667  0.0
H  H72  1  0.04214120  0.70557814  0.31480225  1  0.428896  6.2e-05  0.310048  0.299844  -1.5e-05  0.938606  0.0
H  H73  1  0.45786424  0.79442387  0.81480571  1  0.428821  6.2e-05  0.310066  0.299897  -1.5e-05  0.938533  0.0
H  H74  1  0.33283704  0.67676374  0.45123088  1  0.506664  -8e-06  0.298414  0.315111  -4e-05  0.986685  0.0
H  H75  1  0.16717038  0.82323092  0.95122865  1  0.506696  -8e-06  0.298376  0.315141  -4e-05  0.986649  0.0
H  H76  1  0.66717496  0.32323904  0.54877505  1  0.506744  -8e-06  0.298318  0.315063  -4e-05  0.986529  0.0
H  H77  1  0.83283152  0.17676549  0.04877199  1  0.50667  -8e-06  0.298402  0.315123  -4e-05  0.986684  0.0
H  H78  1  0.22927673  0.57954434  0.44784620  1  0.436127  7.4e-05  0.315282  0.30804  3e-06  0.934597  0.0
H  H79  1  0.27073948  0.92045163  0.94784415  1  0.436571  7.4e-05  0.315216  0.308038  3e-06  0.934607  0.0
H  H80  1  0.77073367  0.42046543  0.55215603  1  0.435911  7.4e-05  0.315135  0.307888  3e-06  0.934713  0.0
H  H81  1  0.72926695  0.07954670  0.05215331  1  0.436085  7.4e-05  0.315233  0.308021  3e-06  0.934602  0.0
H  H82  1  0.13135049  0.64445161  0.98731364  1  0.528848  -0.000759  0.291046  0.298504  -0.000726  1.008674  -0.001
H  H83  1  0.36863979  0.85554787  0.48731469  1  0.529216  -0.000759  0.29102  0.298377  -0.000727  1.00877  -0.001
H  H84  1  0.86863620  0.35554416  0.01269281  1  0.529129  -0.000759  0.291068  0.298533  -0.000727  1.008671  -0.001
H  H85  1  0.63135981  0.14445744  0.51268384  1  0.529167  -0.000759  0.29109  0.29858  -0.000727  1.008599  -0.001
H  H86  1  0.18698899  0.59254206  0.04747332  1  0.422156  -0.000736  0.312928  0.301027  -0.000615  0.924924  -0.001
H  H87  1  0.31300606  0.90745743  0.54747264  1  0.422063  -0.000735  0.31292  0.301021  -0.000615  0.924966  -0.001
H  H88  1  0.81300518  0.40745370  0.95252890  1  0.422031  -0.000736  0.312967  0.301045  -0.000615  0.924948  -0.001
H  H89  1  0.68699350  0.09254598  0.45252641  1  0.422039  -0.000736  0.312927  0.300994  -0.000615  0.924955  -0.001
C  C90  1  0.97503254  0.65668944  0.93045322  1  1.569908  -0.001315  0.210493  0.566521  -0.001716  4.199268  -0.002
C  C91  1  0.52496011  0.84330822  0.43045165  1  1.569958  -0.001315  0.210455  0.566413  -0.001717  4.199034  -0.002
C  C92  1  0.02495539  0.34330569  0.06955059  1  1.56997  -0.001315  0.210472  0.566479  -0.001718  4.199091  -0.002
C  C93  1  0.47504595  0.15669647  0.56955111  1  1.570269  -0.001314  0.210464  0.56662  -0.001716  4.198779  -0.002
C  C94  1  0.90682614  0.69227446  0.88619899  1  -0.054728  0.008006  -0.025253  -0.05584  0.00465  4.004838  0.006
C  C95  1  0.59316857  0.80771780  0.38620184  1  -0.055099  0.008006  -0.025248  -0.055925  0.00465  4.005129  0.006
C  C96  1  0.09316754  0.30772195  0.11380271  1  -0.054929  0.008006  -0.025266  -0.055932  0.004651  4.005091  0.006
C  C97  1  0.40683412  0.19228052  0.61380461  1  -0.054996  0.008006  -0.025309  -0.05606  0.00465  4.005234  0.006
C  C98  1  0.80290392  0.64141671  0.87013314  1  0.019904  -0.001754  -0.075303  -0.09534  -0.002066  3.928284  -0.001
C  C99  1  0.69708572  0.85858265  0.37013523  1  0.020406  -0.001754  -0.075361  -0.095311  -0.002066  3.928026  -0.001
C  C100  1  0.19708331  0.35858032  0.12986644  1  0.020514  -0.001754  -0.075348  -0.095277  -0.002066  3.928166  -0.001
C  C101  1  0.30291639  0.14142330  0.62986699  1  0.020077  -0.001753  -0.075316  -0.095198  -0.002065  3.928405  -0.001
C  C102  1  0.73984402  0.67260127  0.82669915  1  -0.059959  0.00375  -0.020591  -0.034354  0.002222  4.008132  0.003
C  C103  1  0.76015200  0.82739778  0.32670092  1  -0.060182  0.003751  -0.020548  -0.034372  0.002222  4.007889  0.003
C  C104  1  0.26014874  0.32739832  0.17329938  1  -0.060327  0.00375  -0.02052  -0.034259  0.002221  4.008062  0.003
C  C105  1  0.23985234  0.17260817  0.67329866  1  -0.059935  0.00375  -0.020524  -0.034325  0.002221  4.00823  0.003
C  C106  1  0.62951167  0.61989394  0.80823335  1  1.510212  -0.003692  0.197101  0.557724  -0.005146  4.18242  -0.005
C  C107  1  0.87048367  0.88010651  0.30823274  1  1.510355  -0.003692  0.197067  0.55766  -0.005146  4.182372  -0.005
C  C108  1  0.37048046  0.38011137  0.19176729  1  1.510265  -0.003693  0.197073  0.557644  -0.005146  4.182187  -0.005
C  C109  1  0.12952213  0.11989753  0.69176790  1  1.510256  -0.003694  0.197044  0.557717  -0.005146  4.182272  -0.005
C  C110  1  0.78188472  0.75446514  0.79875069  1  0.018689  0.000227  -0.072805  -0.094357  -0.000319  3.919996  0.0
C  C111  1  0.71811525  0.74553539  0.29875292  1  0.018594  0.000227  -0.072876  -0.094517  -0.000319  3.920222  0.0
C  C112  1  0.21811757  0.24553764  0.20124730  1  0.018675  0.000227  -0.07276  -0.094359  -0.00032  3.920193  0.0
C  C113  1  0.28188932  0.25446929  0.70124507  1  0.01851  0.000227  -0.07291  -0.094525  -0.00032  3.920287  0.0
C  C114  1  0.88455169  0.80635798  0.81548194  1  -0.030989  0.00473  -0.01616  -0.023439  0.002857  3.987417  0.003
C  C115  1  0.61544846  0.69363988  0.31548863  1  -0.03105  0.004729  -0.015953  -0.023219  0.002857  3.98732  0.003
C  C116  1  0.11544920  0.19363779  0.18451659  1  -0.031277  0.00473  -0.016076  -0.023474  0.002857  3.987422  0.003
C  C117  1  0.38455409  0.30636353  0.68451412  1  -0.031504  0.004731  -0.015961  -0.023094  0.002857  3.987236  0.003
C  C118  1  0.92251241  0.89426223  0.78599921  1  1.539937  -0.002941  0.187626  0.542877  -0.004134  4.209827  -0.005
C  C119  1  0.57748996  0.60573648  0.28600213  1  1.54005  -0.00294  0.187612  0.542881  -0.004133  4.209921  -0.005
C  C120  1  0.07749458  0.10573927  0.21400195  1  1.539837  -0.002939  0.18763  0.542948  -0.004133  4.209906  -0.005
C  C121  1  0.42251202  0.39426374  0.71400327  1  1.540167  -0.00294  0.187559  0.54273  -0.004134  4.210154  -0.005
C  C122  1  0.94691917  0.77548899  0.85980172  1  -0.064166  -0.000934  -0.06977  -0.089611  -0.001494  3.912327  0.0
C  C123  1  0.55307920  0.72450410  0.35980766  1  -0.063891  -0.000933  -0.069804  -0.089483  -0.001493  3.912458  0.0
C  C124  1  0.05308163  0.22450297  0.14019733  1  -0.06372  -0.000934  -0.069755  -0.089455  -0.001493  3.912185  0.0
C  C125  1  0.44692529  0.27549677  0.64019879  1  -0.063618  -0.000934  -0.069697  -0.089442  -0.001494  3.91226  0.0
C  C126  1  0.08170331  0.39786740  0.89650733  1  0.466029  -0.00169  0.037931  0.101472  -0.002245  3.988223  -0.001
C  C127  1  0.41829642  0.10213175  0.39651291  1  0.46582  -0.001691  0.037974  0.101551  -0.002246  3.988225  -0.001
C  C128  1  0.91828962  0.60212901  0.10349119  1  0.465587  -0.00169  0.037965  0.101548  -0.002245  3.988286  -0.001
C  C129  1  0.58169854  0.89786593  0.60348508  1  0.466346  -0.001691  0.037992  0.101595  -0.002246  3.988259  -0.001
C  C130  1  0.08715632  0.35258495  0.83634001  1  -0.019855  0.004354  -0.094864  -0.243156  0.002514  3.918731  0.003
C  C131  1  0.41283201  0.14740826  0.33634235  1  -0.019548  0.004355  -0.094858  -0.243337  0.002515  3.918954  0.003
C  C132  1  0.91284027  0.64740764  0.16366063  1  -0.019166  0.004353  -0.094825  -0.2432  0.002514  3.918843  0.003
C  C133  1  0.58715772  0.85258941  0.66365301  1  -0.020195  0.004355  -0.094851  -0.243171  0.002514  3.918925  0.003
C  C134  1  0.01798637  0.34970119  0.77918433  1  0.465618  -0.003451  0.117368  0.346355  -0.0037  4.111546  -0.002
C  C135  1  0.48200671  0.15029817  0.27918835  1  0.465465  -0.003451  0.117377  0.34646  -0.0037  4.111451  -0.002
C  C136  1  0.98200847  0.65029077  0.22081419  1  0.464944  -0.003452  0.117406  0.346395  -0.0037  4.111639  -0.002
C  C137  1  0.51798855  0.84970205  0.72080701  1  0.465318  -0.003451  0.11748  0.346474  -0.0037  4.111486  -0.002
C  C138  1  0.95113925  0.39943601  0.78650869  1  -0.028826  0.004247  -0.109825  -0.271351  0.00239  3.982734  0.003
C  C139  1  0.54885831  0.10056678  0.28650915  1  0.022154  0.004169  -0.10975  -0.271276  0.002391  3.98253  0.003
C  C140  1  0.04885356  0.60055467  0.21349089  1  -0.027578  0.004246  -0.109728  -0.27112  0.00239  3.982559  0.003
C  C141  1  0.45114252  0.89943790  0.71348885  1  -0.028532  0.004248  -0.109836  -0.271355  0.00239  3.982588  0.003
C  C142  1  0.95272560  0.44414779  0.84832653  1  0.4481  -0.001785  0.029079  0.080932  -0.002288  4.021329  -0.001
C  C143  1  0.54726828  0.05585518  0.34832975  1  0.39725  -0.001707  0.029113  0.081014  -0.002289  4.02128  -0.001
C  C144  1  0.04726053  0.55584479  0.15167464  1  0.44695  -0.001783  0.029098  0.080835  -0.002288  4.021253  -0.001
C  C145  1  0.45272909  0.94415013  0.65166983  1  0.448045  -0.001787  0.02915  0.081007  -0.002289  4.021215  -0.001
C  C146  1  0.43714419  0.63630111  0.63797705  1  0.479381  -0.001718  0.033242  0.092338  -0.001995  4.001047  -0.001
C  C147  1  0.06287165  0.86368820  0.13797942  1  0.478757  -0.001718  0.033253  0.092232  -0.001994  4.001208  -0.001
C  C148  1  0.56286632  0.36369086  0.36202782  1  0.478699  -0.001717  0.033184  0.092343  -0.001994  4.001033  -0.001
C  C149  1  0.93714581  0.13630250  0.86202281  1  0.479292  -0.001717  0.03318  0.092251  -0.001994  4.001208  -0.001
C  C150  1  0.40698617  0.65812841  0.57317259  1  -0.04559  0.005713  -0.10623  -0.253218  0.003218  3.94235  0.004
C  C151  1  0.09303322  0.84186392  0.07317642  1  -0.045525  0.005714  -0.106223  -0.253069  0.003218  3.942294  0.004
C  C152  1  0.59302741  0.34186737  0.42682910  1  -0.045741  0.005713  -0.106233  -0.253127  0.003218  3.94254  0.004
C  C153  1  0.90698674  0.15812742  0.92682739  1  -0.045391  0.005714  -0.106143  -0.252983  0.003218  3.942251  0.004
C  C154  1  0.31391334  0.60405400  0.54072074  1  0.441578  -0.00414  0.116029  0.357213  -0.004453  4.103914  -0.003
C  C155  1  0.18610436  0.89594047  0.04072545  1  0.440824  -0.00414  0.116026  0.357523  -0.004452  4.103847  -0.003
C  C156  1  0.68610033  0.39594560  0.45927673  1  0.44102  -0.004141  0.11599  0.357167  -0.004453  4.103712  -0.003
C  C157  1  0.81390826  0.10405659  0.95927678  1  0.441535  -0.00414  0.115916  0.357092  -0.004452  4.103989  -0.003
C  C158  1  0.25563370  0.53030320  0.57878178  1  0.00439  0.004617  -0.111193  -0.275043  0.002595  3.977402  0.004
C  C159  1  0.24437431  0.96969608  0.07878013  1  0.00503  0.004618  -0.111257  -0.275211  0.002595  3.977556  0.004
C  C160  1  0.74437232  0.46969958  0.42121410  1  0.005307  0.004617  -0.111206  -0.275042  0.002595  3.977353  0.004
C  C161  1  0.75563119  0.03030542  0.92121628  1  0.004897  0.004618  -0.111172  -0.274972  0.002596  3.977341  0.004
C  C162  1  0.29132524  0.51421796  0.64423575  1  0.431814  -0.003064  0.03623  0.096595  -0.003778  4.001354  -0.002
C  C163  1  0.20867832  0.98578338  0.14423164  1  0.431744  -0.003064  0.036257  0.096741  -0.003779  4.001242  -0.002
C  C164  1  0.70867499  0.48578163  0.35576436  1  0.431734  -0.003062  0.036311  0.096742  -0.003778  4.001597  -0.002
C  C165  1  0.79132743  0.01421876  0.85576424  1  0.431838  -0.003063  0.036221  0.096604  -0.003777  4.001492  -0.002
C  C166  1  0.29113583  0.60321759  0.82452103  1  0.438944  -0.007836  0.0386  0.086376  -0.009271  4.004207  -0.007
C  C167  1  0.20885777  0.89678498  0.32452083  1  0.438648  -0.007839  0.038552  0.086396  -0.009275  4.004068  -0.007
C  C168  1  0.70886183  0.39679026  0.17547855  1  0.439036  -0.007839  0.038563  0.086298  -0.009273  4.004096  -0.007
C  C169  1  0.79114038  0.10322225  0.67547716  1  0.4384  -0.007837  0.038547  0.086333  -0.009272  4.00411  -0.007
C  C170  1  0.22357040  0.61452911  0.87591000  1  0.035758  0.020434  -0.097411  -0.237032  0.011412  3.947353  0.013
C  C171  1  0.27642486  0.88547181  0.37590942  1  0.035267  0.020438  -0.097397  -0.237134  0.011414  3.947083  0.013
C  C172  1  0.77642736  0.38547175  0.12409222  1  0.035141  0.020438  -0.097408  -0.237049  0.011413  3.947174  0.013
C  C173  1  0.72357250  0.11453350  0.62408963  1  0.035616  0.020435  -0.097458  -0.237069  0.011413  3.947171  0.013
C  C174  1  0.23231372  0.58801058  0.94559216  1  0.367386  -0.009257  0.109558  0.327126  -0.009971  4.043318  -0.007
C  C175  1  0.26768222  0.91199048  0.44559157  1  0.367842  -0.009258  0.109631  0.327415  -0.009973  4.042974  -0.007
C  C176  1  0.76768172  0.41198646  0.05440953  1  0.367501  -0.009256  0.109667  0.327351  -0.009971  4.043032  -0.007
C  C177  1  0.73231484  0.08801229  0.55440643  1  0.367509  -0.009258  0.109629  0.327182  -0.009972  4.043099  -0.007
C  C178  1  0.31111933  0.55176752  0.95951138  1  -0.015337  0.021661  -0.094909  -0.247258  0.012191  3.947702  0.014
C  C179  1  0.18887090  0.94823280  0.45951171  1  -0.01503  0.021663  -0.095023  -0.247458  0.012192  3.947602  0.014
C  C180  1  0.68887189  0.44823016  0.04048979  1  -0.015064  0.021666  -0.095032  -0.24747  0.012194  3.947616  0.014
C  C181  1  0.81112471  0.05177188  0.54048681  1  -0.015166  0.021665  -0.094932  -0.247234  0.012193  3.947513  0.014
C  C182  1  0.37556618  0.54307654  0.90471615  1  0.45412  -0.006292  0.047705  0.105673  -0.007372  3.959531  -0.006
C  C183  1  0.12442157  0.95691972  0.40471792  1  0.453648  -0.006289  0.047744  0.105676  -0.00737  3.959187  -0.006
C  C184  1  0.62442385  0.45692368  0.09528343  1  0.453847  -0.006289  0.047816  0.105723  -0.00737  3.959625  -0.006
C  C185  1  0.87556917  0.04307859  0.59528325  1  0.453808  -0.006292  0.047718  0.105651  -0.007372  3.959502  -0.006
N  N186  1  0.01503094  0.44299079  0.90429404  1  -1.226545  0.067005  -0.351451  -0.270075  0.039603  3.591049  0.06
N  N187  1  0.48496748  0.05701084  0.40429616  1  -1.226567  0.067005  -0.351546  -0.270158  0.039603  3.591351  0.06
N  N188  1  0.98495646  0.55700306  0.09570607  1  -1.226343  0.067007  -0.351484  -0.270169  0.039604  3.591165  0.06
N  N189  1  0.51503327  0.94299003  0.59570395  1  -1.226789  0.067006  -0.351595  -0.270282  0.039604  3.591376  0.06
N  N190  1  0.01755061  0.30273238  0.72032879  1  -1.285457  -0.001989  -0.57717  -0.600169  -0.00222  3.321189  -0.001
N  N191  1  0.48244338  0.19726740  0.22032794  1  -1.285345  -0.001988  -0.577134  -0.600092  -0.002219  3.321277  -0.001
N  N192  1  0.98245182  0.69726530  0.27966973  1  -1.285233  -0.001989  -0.57718  -0.599685  -0.00222  3.321142  -0.001
N  N193  1  0.51755394  0.80273600  0.77966900  1  -1.285084  -0.001989  -0.57719  -0.599747  -0.002219  3.32109  -0.001
N  N194  1  0.38128712  0.56582973  0.67437696  1  -1.238401  0.077296  -0.353748  -0.269647  0.044815  3.634191  0.067
N  N195  1  0.11871959  0.93416568  0.17437142  1  -1.237667  0.077301  -0.353711  -0.269593  0.044819  3.634023  0.067
N  N196  1  0.61871399  0.43416478  0.32562790  1  -1.237635  0.077299  -0.353735  -0.269657  0.044818  3.634072  0.067
N  N197  1  0.88128732  0.06583201  0.82562605  1  -1.238425  0.07731  -0.353756  -0.269711  0.044822  3.634376  0.067
N  N198  1  0.28304534  0.62467609  0.47668580  1  -1.280073  -0.002169  -0.584948  -0.61447  -0.002376  3.325812  -0.002
N  N199  1  0.21697135  0.87531649  0.97668790  1  -1.279973  -0.002169  -0.584837  -0.614661  -0.002376  3.325827  -0.002
N  N200  1  0.71696916  0.37532733  0.52331483  1  -1.279665  -0.002169  -0.5847  -0.614316  -0.002376  3.325565  -0.002
N  N201  1  0.78304171  0.12467802  0.02331221  1  -1.280044  -0.002168  -0.5849  -0.6145  -0.002375  3.325946  -0.002
N  N202  1  0.36643540  0.56792899  0.83783352  1  -1.207682  0.09219  -0.343415  -0.244884  0.053171  3.635098  0.08
N  N203  1  0.13355822  0.93207221  0.33783423  1  -1.207832  0.092182  -0.343393  -0.24484  0.053168  3.634848  0.08
N  N204  1  0.63356350  0.43207824  0.16216500  1  -1.207794  0.092187  -0.343474  -0.244888  0.053171  3.635115  0.08
N  N205  1  0.86643608  0.06792928  0.66216535  1  -1.207352  0.092186  -0.343415  -0.244837  0.053169  3.635032  0.08
N  N206  1  0.16153024  0.59486539  0.99707364  1  -1.221532  0.058211  -0.585804  -0.587518  0.033553  3.444359  0.048
N  N207  1  0.33846371  0.90513784  0.49707210  1  -1.22172  0.058206  -0.585792  -0.587502  0.033551  3.444284  0.048
N  N208  1  0.83846124  0.40513292  0.00292858  1  -1.221595  0.058204  -0.585898  -0.587591  0.033551  3.444316  0.048
N  N209  1  0.66153616  0.09486811  0.50292484  1  -1.22182  0.058208  -0.585858  -0.587541  0.033553  3.444359  0.048
O  O210  1  0.93476566  0.57777250  0.94680665  1  -1.170419  0.068842  -0.317261  -0.555972  0.039239  2.420321  0.064
O  O211  1  0.56522252  0.92222567  0.44680252  1  -1.170254  0.068842  -0.317154  -0.555771  0.039238  2.420132  0.064
O  O212  1  0.06522280  0.42222390  0.05319504  1  -1.170215  0.068847  -0.317157  -0.55583  0.039241  2.420136  0.064
O  O213  1  0.43478055  0.07777901  0.55319336  1  -1.170425  0.068842  -0.317176  -0.555931  0.039238  2.420051  0.064
O  O214  1  0.06687463  0.70501286  0.94834554  1  -1.20265  -0.000579  -0.313873  -0.556767  -0.001356  2.217995  0.0
O  O215  1  0.43311468  0.79498308  0.44834369  1  -1.202696  -0.000579  -0.313924  -0.556755  -0.001356  2.217868  0.0
O  O216  1  0.93311299  0.29497972  0.05165826  1  -1.202814  -0.00058  -0.313947  -0.556823  -0.001357  2.21802  0.0
O  O217  1  0.56689033  0.20501905  0.55165483  1  -1.20285  -0.00058  -0.313941  -0.556884  -0.001357  2.217907  0.0
O  O218  1  0.58652130  0.54570882  0.83303504  1  -1.135656  0.064847  -0.312935  -0.523511  0.036753  2.143581  0.057
O  O219  1  0.91346451  0.95429463  0.33303398  1  -1.135617  0.064855  -0.312935  -0.523473  0.036757  2.143416  0.057
O  O220  1  0.41346595  0.45430093  0.16696665  1  -1.135594  0.064847  -0.31298  -0.523502  0.036753  2.143294  0.057
O  O221  1  0.08654744  0.04570625  0.66696613  1  -1.135398  0.064848  -0.312911  -0.523474  0.036752  2.143257  0.057
O  O222  1  0.57790841  0.65156016  0.76480144  1  -1.156405  0.069558  -0.318781  -0.558036  0.039579  2.311637  0.063
O  O223  1  0.92209546  0.84844698  0.26480217  1  -1.156619  0.069555  -0.318824  -0.558069  0.039574  2.311662  0.063
O  O224  1  0.42209246  0.34844643  0.23519709  1  -1.156522  0.069554  -0.318791  -0.55822  0.039574  2.311717  0.063
O  O225  1  0.07789809  0.15155451  0.73519530  1  -1.156611  0.069549  -0.318813  -0.558291  0.039572  2.311817  0.063
O  O226  1  0.86316689  0.91255412  0.73934183  1  -1.127456  0.092065  -0.328536  -0.540931  0.051799  2.251121  0.082
O  O227  1  0.63683228  0.58744811  0.23934389  1  -1.127474  0.092061  -0.328563  -0.540958  0.051798  2.251265  0.082
O  O228  1  0.13683588  0.08744801  0.26065511  1  -1.127557  0.092058  -0.328591  -0.540921  0.051796  2.251262  0.082
O  O229  1  0.36316843  0.41255085  0.76065991  1  -1.12754  0.092063  -0.328519  -0.540909  0.051798  2.25126  0.082
O  O230  1  0.00681781  0.95017710  0.80738501  1  -1.129685  0.072517  -0.320978  -0.519749  0.04079  2.095597  0.063
O  O231  1  0.49318471  0.54982306  0.30738974  1  -1.12968  0.072519  -0.320951  -0.519743  0.040792  2.095621  0.063
O  O232  1  0.99318865  0.04982313  0.19261721  1  -1.129574  0.07253  -0.320933  -0.519754  0.040797  2.095545  0.063
O  O233  1  0.50681604  0.45017781  0.69261566  1  -1.129736  0.072522  -0.320938  -0.519686  0.040794  2.095786  0.063
