# generated using pymatgen
data_Cu3P4H18C10(NO4)4
_symmetry_space_group_name_H-M   'P 1'
_cell_length_a   7.36684267
_cell_length_b   8.18245535
_cell_length_c   9.58991541
_cell_angle_alpha   105.12526945
_cell_angle_beta   107.62049757
_cell_angle_gamma   100.88860338
_symmetry_Int_Tables_number   1
_chemical_formula_structural   Cu3P4H18C10(NO4)4
_chemical_formula_sum   'Cu3 P4 H18 C10 N4 O16'
_cell_volume   508.81817322
_cell_formula_units_Z   1
loop_
 _symmetry_equiv_pos_site_id
 _symmetry_equiv_pos_as_xyz
  1  'x, y, z'
loop_
 _atom_site_type_symbol
 _atom_site_label
 _atom_site_symmetry_multiplicity
 _atom_site_fract_x
 _atom_site_fract_y
 _atom_site_fract_z
 _atom_site_occupancy
 _atom_site_pbe_cm5_charge
 _atom_site_pbe_ddec_charge
 _atom_site_pbe_ddec_spin_density
 _atom_site_pbe_ddec_sum_bond_order
 _atom_site_pbe_magmom
Cu  Cu0  1  0.91817451  0.24477084  0.06641275  1  0.747148  1.018951  0.754541  2.051864  0.612
Cu  Cu1  1  0.08243642  0.75524582  0.93401434  1  0.744715  1.014091  -0.738997  2.052211  -0.589
Cu  Cu2  1  0.49979756  0.00040164  0.50083101  1  0.753002  1.104831  0.755197  1.973429  0.614
P  P3  1  0.87808290  0.99269617  0.76327228  1  0.330116  1.217915  0.003286  5.368456  0.001
P  P4  1  0.12208753  0.00756996  0.23680099  1  0.330189  1.219631  0.003688  5.367104  0.002
P  P5  1  0.83593119  0.35023941  0.77232399  1  0.329618  1.218267  0.003884  5.381995  0.001
P  P6  1  0.16405224  0.64975806  0.22800186  1  0.328794  1.218796  0.004739  5.384578  0.006
H  H7  1  0.08761652  0.38021349  0.43346392  1  0.145365  0.132607  -1.1e-05  1.031443  0.0
H  H8  1  0.91243287  0.61962070  0.56632004  1  0.145362  0.13226  2.4e-05  1.032032  0.0
H  H9  1  0.45576367  0.42816293  0.88540544  1  0.131027  0.141459  9.7e-05  1.019578  0.0
H  H10  1  0.54413696  0.57167077  0.11448119  1  0.130989  0.141068  -9e-05  1.01977  0.0
H  H11  1  0.61350193  0.71763639  0.81134869  1  0.128234  0.13474  0.000406  1.036287  0.0
H  H12  1  0.38653265  0.28207411  0.18867671  1  0.127867  0.134276  -0.000421  1.036963  0.0
H  H13  1  0.18424311  0.10784962  0.65280328  1  0.119369  0.12194  -0.000178  1.025109  0.0
H  H14  1  0.81536252  0.89193018  0.34683550  1  0.119715  0.122973  0.000112  1.024036  0.0
H  H15  1  0.97214189  0.15496007  0.53882336  1  0.126655  0.120006  7e-05  0.98242  0.0
H  H16  1  0.02721422  0.84517869  0.46150755  1  0.126273  0.119382  -0.000195  0.98301  0.0
H  H17  1  0.37188638  0.66048918  0.53066486  1  0.318797  0.301097  -8e-05  0.971836  0.0
H  H18  1  0.62858398  0.33915271  0.46906382  1  0.31937  0.301585  -7.1e-05  0.972688  0.0
H  H19  1  0.18844467  0.42081082  0.97937615  1  0.296567  0.337522  -0.000177  1.001876  0.0
H  H20  1  0.81244436  0.57943954  0.02119366  1  0.297152  0.337778  0.000151  1.000276  0.0
H  H21  1  0.28344498  0.94569840  0.77357104  1  0.285116  0.383911  0.00016  0.947882  0.0
H  H22  1  0.71622959  0.05419717  0.22590189  1  0.285073  0.383437  -9.2e-05  0.948695  0.0
H  H23  1  0.51753362  0.99801695  0.80946333  1  0.287627  0.387506  -0.000157  0.945147  0.0
H  H24  1  0.48246828  0.00223500  0.19099590  1  0.28733  0.386661  0.000114  0.946526  0.0
C  C25  1  0.20345290  0.43581290  0.54836069  1  0.172115  0.118721  0.000539  3.790406  0.0
C  C26  1  0.79668593  0.56397729  0.45142515  1  0.17209  0.119125  -9.7e-05  3.790164  0.0
C  C27  1  0.40142386  0.46876784  0.78617882  1  0.015896  -0.069696  0.000901  3.84361  0.001
C  C28  1  0.59851348  0.53109485  0.21370716  1  0.015736  -0.069418  -0.000401  3.842872  0.0
C  C29  1  0.48098754  0.60649301  0.74624895  1  0.016766  -0.019453  0.001259  3.879724  0.001
C  C30  1  0.51898404  0.39333119  0.25364491  1  0.016979  -0.0193  -0.000343  3.878678  0.0
C  C31  1  0.09639975  0.20197984  0.65109667  1  -0.048392  -0.099173  -8.5e-05  3.855466  0.0
C  C32  1  0.90350169  0.79805942  0.34892198  1  -0.048174  -0.099693  -0.000109  3.854793  0.0
C  C33  1  0.01540530  0.21866153  0.78254365  1  0.043213  -0.20754  -0.00499  3.928778  -0.005
C  C34  1  0.98508604  0.78176710  0.21782936  1  0.04352  -0.206346  0.004745  3.928163  0.005
N  N35  1  0.22710163  0.36634151  0.66241067  1  -0.231173  0.07727  0.000173  3.749062  0.0
N  N36  1  0.77286634  0.63355266  0.33741017  1  -0.231003  0.078754  7e-06  3.747145  0.0
N  N37  1  0.35573833  0.58173704  0.59806770  1  -0.361693  -0.172664  -1.8e-05  3.662708  0.0
N  N38  1  0.64439482  0.41808376  0.40176631  1  -0.362419  -0.173774  -1.4e-05  3.664761  0.0
O  O39  1  0.71557433  0.91039881  0.59984678  1  -0.373788  -0.721905  0.051477  2.323423  0.073
O  O40  1  0.28482044  0.09048559  0.40007010  1  -0.37574  -0.726574  0.04272  2.325031  0.06
O  O41  1  0.79025711  0.02062360  0.89269166  1  -0.374313  -0.746121  0.04967  2.375737  0.07
O  O42  1  0.20981051  0.97962805  0.10727821  1  -0.374767  -0.746775  -0.046454  2.375714  -0.063
O  O43  1  0.02791782  0.88337024  0.78336470  1  -0.367882  -0.710592  -0.036557  2.316073  -0.05
O  O44  1  0.97138952  0.11607492  0.21599176  1  -0.369283  -0.71287  0.056297  2.32009  0.079
O  O45  1  0.79077040  0.36772577  0.92295975  1  -0.374003  -0.756342  0.049887  2.383679  0.07
O  O46  1  0.20835748  0.63122998  0.07677241  1  -0.374077  -0.756066  -0.047774  2.385414  -0.066
O  O47  1  0.93427235  0.53107608  0.76716003  1  -0.384942  -0.738468  -0.034114  2.374176  -0.047
O  O48  1  0.06330366  0.46965934  0.23309679  1  -0.386594  -0.743332  0.04751  2.377718  0.067
O  O49  1  0.65606726  0.25137048  0.61919455  1  -0.367272  -0.732281  0.037007  2.391452  0.052
O  O50  1  0.34534814  0.74842169  0.38012344  1  -0.367825  -0.7351  0.044497  2.38704  0.062
O  O51  1  0.17028293  0.29056716  0.93430768  1  -0.378568  -0.478192  -0.001568  2.388177  -0.002
O  O52  1  0.83043002  0.70962599  0.06593089  1  -0.37875  -0.477681  0.001253  2.386076  0.001
O  O53  1  0.38514590  0.97002250  0.72900411  1  -0.603276  -0.804311  -0.000812  2.027355  0.0
O  O54  1  0.61514570  0.03002864  0.27103456  1  -0.603852  -0.802891  -0.000603  2.025153  0.0
