# generated using pymatgen
data_Zn2H16C21N2O9
_symmetry_space_group_name_H-M   'P 1'
_cell_length_a   9.79180556
_cell_length_b   11.56858904
_cell_length_c   11.92275043
_cell_angle_alpha   115.52132055
_cell_angle_beta   101.57802555
_cell_angle_gamma   96.62785725
_symmetry_Int_Tables_number   1
_chemical_formula_structural   Zn2H16C21N2O9
_chemical_formula_sum   'Zn4 H32 C42 N4 O18'
_cell_volume   1162.44397664
_cell_formula_units_Z   2
loop_
 _symmetry_equiv_pos_site_id
 _symmetry_equiv_pos_as_xyz
  1  'x, y, z'
loop_
 _atom_site_type_symbol
 _atom_site_label
 _atom_site_symmetry_multiplicity
 _atom_site_fract_x
 _atom_site_fract_y
 _atom_site_fract_z
 _atom_site_occupancy
 _atom_site_pbe_bader_spin_density
 _atom_site_pbe_cm5_charge
 _atom_site_pbe_ddec_charge
 _atom_site_pbe_ddec_spin_density
 _atom_site_pbe_ddec_sum_bond_order
 _atom_site_pbe_magmom
Zn  Zn0  1  0.16824781  0.54783078  0.56243668  1  0  0.659615  0.920961  0  2.325308  0
Zn  Zn1  1  0.83174904  0.45216862  0.43756494  1  0  0.659609  0.920974  0  2.325361  0
Zn  Zn2  1  0.07867412  0.52371391  0.28793414  1  0  0.677876  0.868083  0  2.368036  0
Zn  Zn3  1  0.92132249  0.47628452  0.71206618  1  0  0.677884  0.868046  0  2.368022  0
H  H4  1  0.13991020  0.13349054  0.05447455  1  0  0.100281  0.112569  0  1.054747  0
H  H5  1  0.86009741  0.86650994  0.94552097  1  0  0.100278  0.112587  0  1.054732  0
H  H6  1  0.43865147  0.90693355  0.12261675  1  0  0.106258  0.134375  0  1.00042  0
H  H7  1  0.56135472  0.09307377  0.87738482  1  0  0.106282  0.134376  0  1.000401  0
H  H8  1  0.39918400  0.25975791  0.43917544  1  0  0.104436  0.120584  0  1.046551  0
H  H9  1  0.60081828  0.74024641  0.56082837  1  0  0.10443  0.120574  0  1.046533  0
H  H10  1  0.64123526  0.08297261  0.54403356  1  0  0.119478  0.11665  0  0.9614  0
H  H11  1  0.35875300  0.91702182  0.45596950  1  0  0.119512  0.116726  0  0.961282  0
H  H12  1  0.49267018  0.15739143  0.54529907  1  0  0.1077  0.087859  0  0.998033  0
H  H13  1  0.50731916  0.84260305  0.45470084  1  0  0.107709  0.087912  0  0.99799  0
H  H14  1  0.20623022  0.01865109  0.84348546  1  0  0.103064  0.086509  0  0.977978  0
H  H15  1  0.79377213  0.98134933  0.15651418  1  0  0.103078  0.086519  0  0.977961  0
H  H16  1  0.05408816  0.95166543  0.87630923  1  0  0.102829  0.087225  0  1.014189  0
H  H17  1  0.94591600  0.04833796  0.12369031  1  0  0.102813  0.087217  0  1.014199  0
H  H18  1  0.27971059  0.33336570  0.61040651  1  0  0.126051  0.103266  0  0.976263  0
H  H19  1  0.72028925  0.66662486  0.38958931  1  0  0.126068  0.103356  0  0.97624  0
H  H20  1  0.48473644  0.31108723  0.75598080  1  0  0.109668  0.115535  0  1.010088  0
H  H21  1  0.51526640  0.68891115  0.24402223  1  0  0.109683  0.115534  0  1.010133  0
H  H22  1  0.62175031  0.73601039  0.95055612  1  0  0.105011  0.106387  0  1.034956  0
H  H23  1  0.37824741  0.26398813  0.04943856  1  0  0.10503  0.106435  0  1.034951  0
H  H24  1  0.41470754  0.73854028  0.79388849  1  0  0.123702  0.102203  0  0.997262  0
H  H25  1  0.58528845  0.26145137  0.20610211  1  0  0.123669  0.102165  0  0.997264  0
H  H26  1  0.61772406  0.31736525  0.92069584  1  0  0.108991  0.110846  0  1.019881  0
H  H27  1  0.38227248  0.68264109  0.07930619  1  0  0.108979  0.110813  0  1.019854  0
H  H28  1  0.82416311  0.32256351  0.08401503  1  0  0.123667  0.104185  0  1.018382  0
H  H29  1  0.17582909  0.67743796  0.91598166  1  0  0.123658  0.104181  0  1.018362  0
H  H30  1  0.01922147  0.70289489  0.17786089  1  0  0.126621  0.102861  0  0.968745  0
H  H31  1  0.98077564  0.29710551  0.82214036  1  0  0.126626  0.102835  0  0.968768  0
H  H32  1  0.82166469  0.71293579  0.01700292  1  0  0.111132  0.119252  0  1.025411  0
H  H33  1  0.17833577  0.28706956  0.98299851  1  0  0.111148  0.119265  0  1.025426  0
H  H34  1  0.98620118  0.32690045  0.50625956  1  0  0.272251  0.372076  0  0.98021  0
H  H35  1  0.01379398  0.67309213  0.49373465  1  0  0.272211  0.37199  0  0.980347  0
C  C36  1  0.26356809  0.20374722  0.25132276  1  0  -0.018713  0.017683  0  4.011923  0
C  C37  1  0.73643243  0.79625821  0.74867368  1  0  -0.018664  0.0178  0  4.012059  0
C  C38  1  0.21983876  0.11512580  0.11863430  1  0  -0.125443  -0.293733  0  4.037815  0
C  C39  1  0.78016469  0.88487070  0.88136216  1  0  -0.125498  -0.29386  0  4.037985  0
C  C40  1  0.28224044  0.00690170  0.07318720  1  0  0.077479  0.273064  0  4.104874  0
C  C41  1  0.71776757  0.99310061  0.92681756  1  0  0.077462  0.272989  0  4.10491  0
C  C42  1  0.38730713  0.98899299  0.15933410  1  0  -0.117796  -0.316273  0  3.944372  0
C  C43  1  0.61269855  0.01101235  0.84066738  1  0  -0.11776  -0.31623  0  3.944134  0
C  C44  1  0.42872437  0.07769898  0.29144062  1  0  0.084429  0.284628  0  4.086259  0
C  C45  1  0.57127823  0.92230643  0.70855701  1  0  0.084399  0.284628  0  4.086142  0
C  C46  1  0.36573666  0.18532679  0.33840219  1  0  -0.111649  -0.24958  0  3.971072  0
C  C47  1  0.63426540  0.81467660  0.66159783  1  0  -0.111691  -0.249646  0  3.971071  0
C  C48  1  0.20678013  0.32562864  0.30195805  1  0  0.217719  0.596229  0  4.146879  0
C  C49  1  0.79322070  0.67437385  0.69803635  1  0  0.217821  0.596191  0  4.146893  0
C  C50  1  0.58265332  0.13693316  0.50240226  1  0  -0.063443  -0.120359  0  3.901408  0
C  C51  1  0.41734293  0.86306813  0.49760510  1  0  -0.063544  -0.120665  0  3.901446  0
C  C52  1  0.68374665  0.26737687  0.54103457  1  0  0.210387  0.605478  0  4.156974  0
C  C53  1  0.31625572  0.73262021  0.45898628  1  0  0.210408  0.605549  0  4.156617  0
C  C54  1  0.15482165  0.93360110  0.85142847  1  0  -0.068734  -0.113766  0  3.886019  0
C  C55  1  0.84517942  0.06639835  0.14856970  1  0  -0.068732  -0.113811  0  3.885997  0
C  C56  1  0.11686126  0.81092422  0.71987760  1  0  0.201872  0.603473  0  4.184883  0
C  C57  1  0.88313713  0.18908115  0.28012264  1  0  0.201909  0.603531  0  4.184737  0
C  C58  1  0.35930173  0.41958192  0.68748584  1  0  0.052661  0.097884  0  3.93137  0
C  C59  1  0.64069568  0.58041153  0.31251583  1  0  0.052585  0.09771  0  3.931491  0
C  C60  1  0.47340109  0.40849866  0.76988340  1  0  -0.080448  -0.170442  0  3.940483  0
C  C61  1  0.52659810  0.59150173  0.23011820  1  0  -0.080451  -0.170372  0  3.940365  0
C  C62  1  0.57376154  0.52244166  0.86706989  1  0  0.012412  0.104334  0  3.96364  0
C  C63  1  0.42623770  0.47755878  0.13292839  1  0  0.012422  0.104359  0  3.963597  0
C  C64  1  0.55033520  0.64318523  0.87658384  1  0  -0.079368  -0.167752  0  3.936033  0
C  C65  1  0.44966540  0.35681231  0.12341007  1  0  -0.079395  -0.167866  0  3.936048  0
C  C66  1  0.43458322  0.64611378  0.78938799  1  0  0.059852  0.114114  0  3.904314  0
C  C67  1  0.56541712  0.35388275  0.21060711  1  0  0.060032  0.114397  0  3.904519  0
C  C68  1  0.69802629  0.51706557  0.95686993  1  0  0.020077  0.113254  0  3.950804  0
C  C69  1  0.30197395  0.48293882  0.04312937  1  0  0.020071  0.113287  0  3.95078  0
C  C70  1  0.70404952  0.40524630  0.97454369  1  0  -0.074786  -0.160698  0  3.932787  0
C  C71  1  0.29594765  0.59475418  0.02545257  1  0  -0.074719  -0.160609  0  3.932701  0
C  C72  1  0.81937514  0.40633661  0.06465554  1  0  0.053603  0.098601  0  3.909182  0
C  C73  1  0.18062153  0.59366191  0.93533979  1  0  0.053599  0.098569  0  3.909102  0
C  C74  1  0.92715811  0.62003755  0.11853479  1  0  0.051722  0.09337  0  3.942648  0
C  C75  1  0.07283906  0.37996294  0.88146065  1  0  0.05174  0.093418  0  3.942681  0
C  C76  1  0.81527029  0.62541990  0.03024665  1  0  -0.075953  -0.160885  0  3.930282  0
C  C77  1  0.18473024  0.37458154  0.96975144  1  0  -0.075998  -0.160979  0  3.930354  0
N  N78  1  0.34078544  0.53614750  0.69586448  1  0  -0.31094  -0.20776  0  3.488906  0
N  N79  1  0.65921071  0.46384500  0.30413406  1  0  -0.311019  -0.207967  0  3.489473  0
N  N80  1  0.92886751  0.51299725  0.13672229  1  0  -0.330631  -0.238107  0  3.580289  0
N  N81  1  0.07112990  0.48700420  0.86327527  1  0  -0.330669  -0.238098  0  3.58023  0
O  O82  1  0.23118969  0.39195946  0.42272275  1  0  -0.303251  -0.545969  0  2.365392  0
O  O83  1  0.76882749  0.60805391  0.57727238  1  0  -0.303263  -0.545844  0  2.365471  0
O  O84  1  0.13891861  0.35564256  0.21742184  1  0  -0.323813  -0.551059  0  2.337488  0
O  O85  1  0.86106353  0.64434807  0.78257101  1  0  -0.323895  -0.551104  0  2.337478  0
O  O86  1  0.24883906  0.91342542  0.94669749  1  0  -0.181685  -0.183634  0  2.583849  0
O  O87  1  0.75116246  0.08657595  0.05330493  1  0  -0.181654  -0.183508  0  2.58405  0
O  O88  1  0.05742846  0.82351463  0.62329230  1  0  -0.337183  -0.549568  0  2.09182  0
O  O89  1  0.94257746  0.17648767  0.37671294  1  0  -0.337255  -0.549663  0  2.091526  0
O  O90  1  0.14617990  0.70694208  0.72171642  1  0  -0.325937  -0.575192  0  2.370662  0
O  O91  1  0.85381693  0.29305729  0.27828686  1  0  -0.32592  -0.575201  0  2.370906  0
O  O92  1  0.53235900  0.05080871  0.36656384  1  0  -0.188384  -0.19581  0  2.558679  0
O  O93  1  0.46764150  0.94919268  0.63343674  1  0  -0.188368  -0.195729  0  2.558975  0
O  O94  1  0.68389529  0.30712200  0.45876104  1  0  -0.295509  -0.529307  0  2.328407  0
O  O95  1  0.31611540  0.69288303  0.54125793  1  0  -0.295385  -0.529171  0  2.328486  0
O  O96  1  0.75974790  0.32449214  0.66029103  1  0  -0.340293  -0.578512  0  2.290931  0
O  O97  1  0.24025645  0.67550015  0.33971972  1  0  -0.340377  -0.578629  0  2.290656  0
O  O98  1  0.99969022  0.42385792  0.56486316  1  0  -0.576895  -0.865096  0  2.321023  0
O  O99  1  0.00030802  0.57613459  0.43513490  1  0  -0.57685  -0.865019  0  2.32105  0
