# generated using pymatgen
data_CuH22C18(N2Cl)2
_symmetry_space_group_name_H-M   'P 1'
_cell_length_a   8.36943165
_cell_length_b   8.46824297
_cell_length_c   15.96921867
_cell_angle_alpha   81.22937212
_cell_angle_beta   74.83120952
_cell_angle_gamma   60.40801412
_symmetry_Int_Tables_number   1
_chemical_formula_structural   CuH22C18(N2Cl)2
_chemical_formula_sum   'Cu2 H44 C36 N8 Cl4'
_cell_volume   949.52525909
_cell_formula_units_Z   2
loop_
 _symmetry_equiv_pos_site_id
 _symmetry_equiv_pos_as_xyz
  1  'x, y, z'
loop_
 _atom_site_type_symbol
 _atom_site_label
 _atom_site_symmetry_multiplicity
 _atom_site_fract_x
 _atom_site_fract_y
 _atom_site_fract_z
 _atom_site_occupancy
 _atom_site_pbe_bader_charge
 _atom_site_pbe_bader_spin_density
 _atom_site_pbe_cm5_charge
 _atom_site_pbe_ddec_charge
 _atom_site_pbe_ddec_spin_density
 _atom_site_pbe_ddec_sum_bond_order
 _atom_site_pbe_magmom
Cu  Cu0  1  0.99999931  0.00000019  0.49999992  1  0.901092  0.489882  0.63811  0.643706  0.65982  2.394371  0.492
Cu  Cu1  1  0.49999793  0.50000245  0.00000025  1  0.901091  0.489817  0.638878  0.645675  0.659674  2.392003  0.492
H  H2  1  0.28198822  0.61244423  0.47805255  1  0.046012  -0.000314  0.091947  0.125991  -0.000307  1.016836  0.0
H  H3  1  0.37295395  0.88778771  0.02196865  1  0.038491  -0.000312  0.092029  0.126625  -0.000304  1.016556  0.0
H  H4  1  0.71800894  0.38755716  0.52194461  1  0.046061  -0.000314  0.091968  0.126006  -0.000307  1.016791  0.0
H  H5  1  0.62705157  0.11221367  0.97803130  1  0.038465  -0.000312  0.092042  0.126634  -0.000304  1.016561  0.0
H  H6  1  0.30739862  0.40992133  0.53843093  1  0.029015  -0.000159  0.096773  0.147488  -9.3e-05  0.990939  0.0
H  H7  1  0.25629917  0.09024469  0.96157128  1  0.035509  -0.000158  0.096553  0.147682  -9.3e-05  0.9909  0.0
H  H8  1  0.69259881  0.59007733  0.46156610  1  0.028999  -0.000159  0.096774  0.147464  -9.3e-05  0.990984  0.0
H  H9  1  0.74371226  0.90975805  0.03842825  1  0.035542  -0.000158  0.096586  0.147672  -9.3e-05  0.990852  0.0
H  H10  1  0.31410406  0.58271685  0.58633344  1  0.070096  -0.000261  0.094388  0.140493  -0.000215  0.99793  0.0
H  H11  1  0.48352158  0.91750244  0.91369958  1  0.05987  -0.00026  0.094817  0.14132  -0.000213  0.998655  0.0
H  H12  1  0.68589853  0.41727909  0.41366350  1  0.070039  -0.000261  0.094354  0.140454  -0.000215  0.99789  0.0
H  H13  1  0.51648391  0.08248943  0.08629902  1  0.059911  -0.00026  0.094776  0.141307  -0.000213  0.99867  0.0
H  H14  1  0.97375178  0.42072759  0.64200916  1  0.11097  0.00123  0.105123  0.149304  0.000643  1.023965  0.001
H  H15  1  0.03706456  0.07951379  0.85794287  1  0.104474  0.00124  0.105106  0.149624  0.000645  1.024484  0.001
H  H16  1  0.02625333  0.57927243  0.35799063  1  0.110957  0.00123  0.105116  0.149284  0.000643  1.023973  0.001
H  H17  1  0.96292790  0.92049167  0.14205817  1  0.104455  0.00124  0.105149  0.149662  0.000645  1.024495  0.001
H  H18  1  0.58637877  0.56318882  0.69774536  1  0.063329  0.000506  0.094638  0.144464  0.00028  1.015127  0.0
H  H19  1  0.84744673  0.93717022  0.80222203  1  0.066947  0.000504  0.094148  0.144049  0.000279  1.014667  0.0
H  H20  1  0.41362921  0.43680577  0.30225309  1  0.06337  0.000506  0.094595  0.144445  0.00028  1.015099  0.0
H  H21  1  0.15255549  0.06283388  0.19777611  1  0.066975  0.000504  0.094168  0.144054  0.000279  1.014737  0.0
H  H22  1  0.45076111  0.77637064  0.64838630  1  0.074029  0.000462  0.083605  0.131648  0.000439  1.046344  0.0
H  H23  1  0.87557041  0.72399119  0.85162942  1  0.074029  0.000475  0.083285  0.13087  0.000442  1.046543  0.0
H  H24  1  0.54924560  0.22362667  0.35161575  1  0.07393  0.000462  0.083632  0.131694  0.000439  1.046333  0.0
H  H25  1  0.12443463  0.27600883  0.14836674  1  0.073979  0.000475  0.08326  0.130829  0.000442  1.046537  0.0
H  H26  1  0.51022494  0.76791884  0.74815273  1  0.075692  -0.000279  0.094686  0.146202  -0.000191  1.002989  0.0
H  H27  1  0.02616495  0.73239416  0.75183753  1  0.089833  -0.000278  0.094721  0.145777  -0.000192  1.003135  0.0
H  H28  1  0.48978031  0.23206895  0.25185065  1  0.075932  -0.000279  0.094707  0.146204  -0.000191  1.002994  0.0
H  H29  1  0.97384066  0.26760994  0.24815970  1  0.089886  -0.000278  0.094728  0.145785  -0.000192  1.003032  0.0
H  H30  1  0.48171539  0.01896354  0.57537674  1  0.079457  -8.9e-05  0.11139  0.099244  -8.2e-05  1.003275  0.0
H  H31  1  0.07580850  0.48150966  0.92448266  1  0.104816  -8.7e-05  0.111553  0.099758  -8e-05  1.002906  0.0
H  H32  1  0.51828728  0.98103241  0.42462385  1  0.079433  -8.9e-05  0.111384  0.099249  -8.2e-05  1.003259  0.0
H  H33  1  0.92419101  0.51849308  0.07551642  1  0.104774  -8.7e-05  0.111534  0.099755  -8e-05  1.002887  0.0
H  H34  1  0.64213527  0.10633441  0.53936887  1  0.087952  -0.000521  0.104478  0.080692  -0.000615  1.046075  0.0
H  H35  1  0.28739545  0.39404358  0.96066174  1  0.074569  -0.000514  0.104324  0.080674  -0.000614  1.046829  0.0
H  H36  1  0.35786346  0.89366697  0.46063290  1  0.087914  -0.000521  0.104479  0.080667  -0.000615  1.046073  0.0
H  H37  1  0.71260597  0.60595780  0.03933610  1  0.074711  -0.000514  0.104306  0.080669  -0.000614  1.046842  0.0
H  H38  1  0.74954332  0.15737729  0.68440018  1  0.104786  -0.000167  0.087102  0.092571  -0.000278  1.068645  0.0
H  H39  1  0.59070864  0.34365845  0.81562446  1  0.09384  -0.000173  0.087032  0.092269  -0.000281  1.068486  0.0
H  H40  1  0.25045329  0.84262137  0.31559890  1  0.104418  -0.000167  0.087099  0.092568  -0.000278  1.068621  0.0
H  H41  1  0.40928877  0.65634293  0.18437492  1  0.093808  -0.000173  0.087033  0.092272  -0.000281  1.068476  0.0
H  H42  1  0.23607412  0.15359631  0.68506762  1  0.092612  0.001888  0.086141  0.100302  0.001896  1.070985  0.001
H  H43  1  0.07499061  0.34559270  0.81500816  1  0.126369  0.001793  0.086353  0.10113  0.001884  1.070553  0.001
H  H44  1  0.76392543  0.84639692  0.31493374  1  0.092629  0.001887  0.08613  0.10032  0.001896  1.07099  0.001
H  H45  1  0.92500689  0.65440597  0.18499251  1  0.126411  0.001794  0.086349  0.101124  0.001884  1.070509  0.001
C  C46  1  0.24694959  0.55706913  0.54300957  1  -0.054882  0.000206  -0.233169  -0.428373  -0.000152  3.95693  0.0
C  C47  1  0.34747267  0.94309429  0.95699932  1  -0.025986  0.000209  -0.233511  -0.430398  -0.000152  3.958508  0.0
C  C48  1  0.75304930  0.44293089  0.45698778  1  -0.054854  0.000206  -0.233153  -0.428316  -0.000152  3.956865  0.0
C  C49  1  0.65253009  0.05690709  0.04300091  1  -0.025556  0.000209  -0.233528  -0.430394  -0.000152  3.958528  0.0
C  C50  1  0.03922576  0.64122228  0.57624940  1  0.473698  3.5e-05  0.097442  0.264231  -0.000111  4.034799  0.001
C  C51  1  0.25703569  0.85895295  0.92374962  1  0.471893  1.9e-05  0.097296  0.264279  -0.000121  4.034462  0.001
C  C52  1  0.96077374  0.35878046  0.42374968  1  0.473628  3.6e-05  0.097448  0.264165  -0.000111  4.034823  0.001
C  C53  1  0.74295890  0.14105251  0.07625176  1  0.471431  1.9e-05  0.097347  0.264356  -0.000121  4.034413  0.001
C  C54  1  0.92698817  0.56250091  0.62288251  1  -0.01003  0.004029  -0.116965  -0.336136  0.002956  3.933218  0.003
C  C55  1  0.11272432  0.93775830  0.87709758  1  -0.011119  0.004038  -0.116464  -0.336318  0.002941  3.933752  0.003
C  C56  1  0.07301502  0.43750047  0.37711851  1  -0.009955  0.004029  -0.116968  -0.336106  0.002956  3.933228  0.003
C  C57  1  0.88727027  0.06224716  0.12290380  1  -0.010996  0.004038  -0.116518  -0.336369  0.002941  3.933811  0.003
C  C58  1  0.74186895  0.70210512  0.63816662  1  0.371916  -0.000291  0.10445  0.222744  -2.9e-05  3.958267  0.001
C  C59  1  0.08228488  0.79819907  0.86180216  1  0.367429  -0.00031  0.104304  0.222928  -4.5e-05  3.958623  0.001
C  C60  1  0.25813500  0.29789219  0.36183572  1  0.371929  -0.000291  0.104551  0.222859  -2.9e-05  3.958162  0.001
C  C61  1  0.91771506  0.20180367  0.13819771  1  0.367093  -0.00031  0.104287  0.22291  -4.5e-05  3.958652  0.001
C  C62  1  0.56298784  0.70288096  0.68503510  1  -0.057165  0.00205  -0.240195  -0.434756  0.001564  3.954585  0.002
C  C63  1  0.95094534  0.79747329  0.81495334  1  -0.077825  0.002055  -0.239271  -0.432942  0.001566  3.954269  0.002
C  C64  1  0.43701915  0.29711363  0.31496682  1  -0.057375  0.00205  -0.240255  -0.434852  0.001564  3.954614  0.002
C  C65  1  0.04905818  0.20252945  0.18504420  1  -0.077539  0.002055  -0.239286  -0.432916  0.001566  3.954214  0.002
C  C66  1  0.58977562  0.03585189  0.59404036  1  0.295269  -2.3e-05  -0.047528  -0.130552  -0.00017  3.928678  0.0
C  C67  1  0.21943608  0.46447351  0.90591552  1  0.284978  -1.9e-05  -0.04842  -0.132147  -0.000169  3.931174  0.0
C  C68  1  0.41022402  0.96414678  0.40596064  1  0.29477  -2.3e-05  -0.04751  -0.130484  -0.00017  3.928577  0.0
C  C69  1  0.78056338  0.53553059  0.09408291  1  0.284878  -1.9e-05  -0.048414  -0.132172  -0.000169  3.931151  0.0
C  C70  1  0.50214898  0.14384509  0.67575767  1  -0.017741  0.000381  -0.017919  0.084035  0.000237  3.977906  0.0
C  C71  1  0.32154803  0.35639978  0.82424161  1  -0.011716  0.00038  -0.017546  0.084918  0.000236  3.977126  0.0
C  C72  1  0.49784750  0.85615221  0.32424347  1  -0.017251  0.000381  -0.017957  0.084034  0.000237  3.977794  0.0
C  C73  1  0.67844787  0.64360160  0.17575680  1  -0.01179  0.00038  -0.017566  0.084996  0.000236  3.977112  0.0
C  C74  1  0.60127293  0.19811134  0.71291885  1  -0.118875  8.6e-05  -0.096632  -0.135228  2e-05  3.982746  0.0
C  C75  1  0.51193563  0.30253359  0.78709411  1  -0.055581  7.8e-05  -0.096975  -0.135002  1.2e-05  3.981023  0.0
C  C76  1  0.39872480  0.80188596  0.28708104  1  -0.118554  8.6e-05  -0.096596  -0.135193  2e-05  3.98269  0.0
C  C77  1  0.48806246  0.69746643  0.21290529  1  -0.055616  7.8e-05  -0.096984  -0.135065  1.2e-05  3.980987  0.0
C  C78  1  0.31334423  0.19652803  0.71346919  1  -0.047509  0.003732  -0.093771  -0.126684  0.002537  3.982196  0.003
C  C79  1  0.22339499  0.30321212  0.78656012  1  -0.134466  0.003752  -0.093522  -0.128388  0.002511  3.981964  0.003
C  C80  1  0.68665466  0.80346656  0.28653215  1  -0.047432  0.003732  -0.093725  -0.126729  0.002537  3.982134  0.003
C  C81  1  0.77660274  0.69678519  0.21343977  1  -0.134459  0.003752  -0.093506  -0.128384  0.002511  3.981953  0.003
N  N82  1  0.74793224  0.85569293  0.60086345  1  -0.791491  0.005135  -0.147572  0.110286  0.002971  3.705005  0.003
N  N83  1  0.20451432  0.64458485  0.89910630  1  -0.790661  0.005142  -0.146796  0.110955  0.002965  3.70358  0.003
N  N84  1  0.25206930  0.14430710  0.39913867  1  -0.791518  0.005135  -0.147643  0.110214  0.00297  3.705061  0.003
N  N85  1  0.79548625  0.35541789  0.10089294  1  -0.790721  0.005142  -0.146793  0.110912  0.002965  3.703612  0.003
N  N86  1  0.92780919  0.81965625  0.56355937  1  -0.732451  0.07851  -0.287262  -0.278863  0.055343  3.544291  0.07
N  N87  1  0.31116327  0.68053123  0.93643745  1  -0.733581  0.078411  -0.288231  -0.280134  0.055272  3.543916  0.07
N  N88  1  0.07219099  0.18034513  0.43643972  1  -0.732399  0.078511  -0.287259  -0.278824  0.055344  3.544235  0.07
N  N89  1  0.68883431  0.31947287  0.06356286  1  -0.733692  0.07841  -0.288219  -0.280134  0.055272  3.543933  0.07
Cl  Cl90  1  0.11197162  0.00972169  0.61476536  1  -0.598713  0.158971  -0.290149  -0.490621  0.103538  1.193238  0.126
Cl  Cl91  1  0.73644424  0.49049674  0.88532921  1  -0.599071  0.159053  -0.290274  -0.490708  0.103583  1.192294  0.126
Cl  Cl92  1  0.88802860  0.99027833  0.38523438  1  -0.598739  0.158972  -0.290137  -0.490604  0.103539  1.19325  0.126
Cl  Cl93  1  0.26355294  0.50950600  0.11467095  1  -0.599079  0.159052  -0.290284  -0.490705  0.103582  1.192282  0.126
