# generated using pymatgen
data_ZnH12C15(NO)4
_symmetry_space_group_name_H-M   'P 1'
_cell_length_a   9.83483736
_cell_length_b   10.96348067
_cell_length_c   13.98006731
_cell_angle_alpha   93.56438679
_cell_angle_beta   97.65686403
_cell_angle_gamma   87.23617176
_symmetry_Int_Tables_number   1
_chemical_formula_structural   ZnH12C15(NO)4
_chemical_formula_sum   'Zn2 H24 C30 N8 O8'
_cell_volume   1489.84164889
_cell_formula_units_Z   2
loop_
 _symmetry_equiv_pos_site_id
 _symmetry_equiv_pos_as_xyz
  1  'x, y, z'
loop_
 _atom_site_type_symbol
 _atom_site_label
 _atom_site_symmetry_multiplicity
 _atom_site_fract_x
 _atom_site_fract_y
 _atom_site_fract_z
 _atom_site_occupancy
 _atom_site_pbe_bader_charge
 _atom_site_pbe_bader_spin_density
 _atom_site_pbe_cm5_charge
 _atom_site_pbe_ddec_charge
 _atom_site_pbe_ddec_spin_density
 _atom_site_pbe_ddec_sum_bond_order
 _atom_site_pbe_magmom
Zn  Zn0  1  0.34835939  0.48299396  0.49959207  1  1.310882  0  0.68576  0.868612  0  2.310743  0
Zn  Zn1  1  0.64877145  0.46910859  0.51098454  1  1.300128  0  0.688171  0.839582  0  2.400569  0
H  H2  1  0.34667380  0.44938224  0.98217320  1  0.109594  0  0.120976  0.122209  0  0.958269  0
H  H3  1  0.18174593  0.81309647  0.66198506  1  0.059269  0  0.102438  0.105198  0  0.97754  0
H  H4  1  0.26170823  0.71561747  0.57695569  1  0.1335  0  0.106694  0.121078  0  1.051339  0
H  H5  1  0.32114034  0.70868626  0.70207805  1  0.079558  0  0.103889  0.121286  0  0.991304  0
H  H6  1  0.19434855  0.47227679  0.24823692  1  0.454312  0  0.280194  0.230559  0  1.016298  0
H  H7  1  0.07855332  0.65039451  0.18973645  1  0.059399  0  0.100751  0.114846  0  0.986332  0
H  H8  1  0.07999390  0.65981464  0.31757892  1  0.000914  0  0.076792  0.069775  0  1.023803  0
H  H9  1  0.92969800  0.61398788  0.24006701  1  0.003091  0  0.095999  0.101899  0  0.992724  0
H  H10  1  0.70342078  0.03589850  0.70859737  1  0.388456  0  0.296549  0.235925  0  0.952023  0
H  H11  1  0.87512419  0.07338872  0.60549093  1  0.025051  0  0.080006  0.07823  0  1.014397  0
H  H12  1  0.85529804  0.19654434  0.69411719  1  0.020254  0  0.096794  0.106448  0  0.982916  0
H  H13  1  0.11771508  0.32249406  0.32528312  1  0.077548  0  0.110956  0.070394  0  1.020371  0
H  H14  1  0.77754252  0.20856236  0.57255787  1  0.105452  0  0.100248  0.125731  0  1.03565  0
H  H15  1  0.33287655  0.20527269  0.32095783  1  0.421546  0  0.291979  0.24927  0  0.976297  0
H  H16  1  0.08912313  0.15541612  0.23595273  1  0.042464  0  0.087091  0.084515  0  1.022752  0
H  H17  1  0.18185486  0.03435538  0.17797297  1  0.052729  0  0.098703  0.111884  0  0.998003  0
H  H18  1  0.21986168  0.18888872  0.16555779  1  0.047993  0  0.108783  0.125176  0  0.971028  0
H  H19  1  0.82767455  0.43905516  0.27724832  1  0.082043  0  0.104913  0.133825  0  0.987564  0
H  H20  1  0.87224208  0.28973129  0.32062525  1  0.079317  0  0.104142  0.132396  0  0.981536  0
H  H21  1  0.64278247  0.53845578  0.03015072  1  0.142431  0  0.123314  0.125786  0  0.953579  0
H  H22  1  0.66684813  0.85980081  0.61656137  1  0.079745  0  0.105334  0.114862  0  1.005145  0
H  H23  1  0.18582439  0.86522224  0.38591201  1  0.118722  0  0.121434  0.118924  0  0.954038  0
H  H24  1  0.88209374  0.54896126  0.64652545  1  0.153115  0  0.12822  0.116771  0  0.999962  0
H  H25  1  0.07311097  0.64304413  0.71032532  1  0.439742  0  0.329184  0.268122  0  0.91664  0
C  C26  1  0.47667960  0.24561498  0.51985310  1  1.586055  0  0.224148  0.619822  0  4.156983  0
C  C27  1  0.27138763  0.05613199  0.37949941  1  0.476589  0  0.127633  0.189015  0  3.89089  0
C  C28  1  0.92031157  0.44150457  0.42992152  1  0.488399  0  0.114241  0.167117  0  3.921458  0
C  C29  1  0.47782610  0.45149597  0.31831184  1  1.696659  0  0.222419  0.662264  0  4.245575  0
C  C30  1  0.93255757  0.52397067  0.58271754  1  0.525689  0  0.055768  -0.050877  0  3.847144  0
C  C31  1  0.07049354  0.55736193  0.58000715  1  0.957348  0  0.24213  0.335089  0  4.028767  0
C  C32  1  0.05665470  0.46548257  0.42915585  1  0.515661  0  0.121206  0.120421  0  3.866427  0
C  C33  1  0.05680599  0.40885680  0.32482727  1  0.398291  0  0.019279  0.079607  0  3.869946  0
C  C34  1  0.89859787  0.38634133  0.32795756  1  -0.027912  0  -0.147604  -0.286831  0  3.831379  0
C  C35  1  0.50426723  0.70825486  0.49728436  1  1.574936  0  0.21795  0.599993  0  4.175387  0
C  C36  1  0.54606839  0.49986487  0.69320835  1  1.671709  0  0.219081  0.661067  0  4.255138  0
C  C37  1  0.46201129  0.45581711  0.21461174  1  -0.02161  0  -0.038096  -0.192182  0  3.940295  0
C  C38  1  0.54697853  0.51063452  0.79677851  1  0.113284  0  -0.039498  -0.185902  0  3.94764  0
C  C39  1  0.54846565  0.51203972  0.98452038  1  0.003801  0  -0.055303  -0.038846  0  4.042129  0
C  C40  1  0.44172642  0.47495233  0.02720150  1  0.146707  0  -0.057618  -0.048513  0  4.046608  0
C  C41  1  0.45049971  0.46551762  0.12736560  1  -0.32159  0  -0.023118  0.012429  0  4.138963  0
C  C42  1  0.54556141  0.51363046  0.88409579  1  -0.384321  0  -0.031984  -0.007395  0  4.157722  0
C  C43  1  0.22963073  0.72170600  0.64914897  1  0.223398  0  -0.136673  -0.213487  0  3.928772  0
C  C44  1  0.04255800  0.60683118  0.24977633  1  0.300083  0  -0.151222  -0.213631  0  4.009748  0
C  C45  1  0.80378003  0.14579448  0.63038597  1  0.246677  0  -0.152644  -0.21944  0  3.960542  0
C  C46  1  0.31030737  0.85299552  0.27565022  1  0.868665  0  0.181655  0.283943  0  3.973977  0
C  C47  1  0.19094843  0.12489889  0.21591190  1  0.259282  0  -0.146871  -0.220842  0  3.976177  0
C  C48  1  0.39313063  0.04066521  0.45891757  1  0.02687  0  -0.003711  -0.028456  0  3.947139  0
C  C49  1  0.14200086  0.09769794  0.41669140  1  0.863089  0  0.175848  0.192359  0  3.93127  0
C  C50  1  0.48532274  0.10922973  0.52180012  1  0.032046  0  -0.000237  -0.104189  0  3.871585  0
C  C51  1  0.58548334  0.04017888  0.58195103  1  0.407057  0  0.105062  0.217307  0  3.984984  0
C  C52  1  0.58736530  0.91120236  0.57172506  1  -0.015927  0  -0.086146  -0.197143  0  3.928578  0
C  C53  1  0.49524185  0.84437951  0.50561143  1  0.033467  0  -0.01103  -0.038196  0  3.991023  0
C  C54  1  0.39681227  0.91419861  0.44991855  1  -0.082065  0  -0.008603  0.019122  0  3.942589  0
C  C55  1  0.27851372  0.90634873  0.36798163  1  0.114741  0  -0.035519  -0.108308  0  3.848881  0
N  N56  1  0.85661781  0.46648129  0.50846827  1  -1.237685  0  -0.299223  -0.175562  0  3.526714  0
N  N57  1  0.13819073  0.51999215  0.50266626  1  -1.221544  0  -0.310082  -0.311341  0  3.390097  0
N  N58  1  0.13050478  0.62874574  0.65523659  1  -1.176897  0  -0.419682  -0.278499  0  3.563404  0
N  N59  1  0.09039629  0.47871761  0.24808880  1  -1.112528  0  -0.494465  -0.351048  0  3.457016  0
N  N60  1  0.67733972  0.09650300  0.65612546  1  -1.08719  0  -0.467028  -0.337954  0  3.445743  0
N  N61  1  0.33423520  0.80741222  0.20179078  1  -1.145115  0  -0.319635  -0.386267  0  2.698003  0
N  N62  1  0.29994632  0.11999226  0.29799296  1  -1.079524  0  -0.46789  -0.359293  0  3.42187  0
N  N63  1  0.03733658  0.13214593  0.44146855  1  -1.158031  0  -0.307916  -0.354956  0  2.769464  0
O  O64  1  0.35896686  0.29835847  0.52268733  1  -1.148997  0  -0.311437  -0.53446  0  2.261358  0
O  O65  1  0.58687179  0.29621230  0.50960849  1  -1.170305  0  -0.303173  -0.537689  0  2.388279  0
O  O66  1  0.37143153  0.42557285  0.35584039  1  -1.164379  0  -0.30686  -0.557852  0  2.293206  0
O  O67  1  0.59553012  0.47452133  0.36311078  1  -1.134402  0  -0.299006  -0.522872  0  2.283269  0
O  O68  1  0.39291597  0.65544202  0.46493402  1  -1.169921  0  -0.316319  -0.564453  0  2.344135  0
O  O69  1  0.61957841  0.65582072  0.52418712  1  -1.154036  0  -0.311842  -0.538174  0  2.324478  0
O  O70  1  0.42900560  0.51428606  0.64280488  1  -1.162723  0  -0.30804  -0.555569  0  2.332235  0
O  O71  1  0.66080140  0.47732216  0.66196237  1  -1.141053  0  -0.307257  -0.532635  0  2.255747  0
