# generated using pymatgen
data_ZnH14C13NO4
_symmetry_space_group_name_H-M   'P 1'
_cell_length_a   7.93124653
_cell_length_b   8.71931531
_cell_length_c   9.78428714
_cell_angle_alpha   74.68574157
_cell_angle_beta   76.08240449
_cell_angle_gamma   77.50200240
_symmetry_Int_Tables_number   1
_chemical_formula_structural   ZnH14C13NO4
_chemical_formula_sum   'Zn2 H28 C26 N2 O8'
_cell_volume   624.94459610
_cell_formula_units_Z   2
loop_
 _symmetry_equiv_pos_site_id
 _symmetry_equiv_pos_as_xyz
  1  'x, y, z'
loop_
 _atom_site_type_symbol
 _atom_site_label
 _atom_site_symmetry_multiplicity
 _atom_site_fract_x
 _atom_site_fract_y
 _atom_site_fract_z
 _atom_site_occupancy
 _atom_site_hle17_bader_spin_density
 _atom_site_hle17_ddec_charge
 _atom_site_hle17_ddec_spin_density
 _atom_site_hle17_ddec_sum_bond_order
 _atom_site_hle17_magmom
 _atom_site_hse06_10hf_bader_spin_density
 _atom_site_hse06_10hf_ddec_charge
 _atom_site_hse06_10hf_ddec_spin_density
 _atom_site_hse06_10hf_ddec_sum_bond_order
 _atom_site_hse06_10hf_magmom
 _atom_site_hse06_bader_spin_density
 _atom_site_hse06_ddec_charge
 _atom_site_hse06_ddec_spin_density
 _atom_site_hse06_ddec_sum_bond_order
 _atom_site_hse06_magmom
 _atom_site_pbe_bader_spin_density
 _atom_site_pbe_cm5_charge
 _atom_site_pbe_ddec_charge
 _atom_site_pbe_ddec_spin_density
 _atom_site_pbe_ddec_sum_bond_order
 _atom_site_pbe_magmom
Zn  Zn0  1  0.91781933  0.98937126  0.38943322  1  0  1.025471  0  1.868567  0  0  0.853115  0  2.334935  0  0  0.906759  0  2.269206  0  0  0.665616  0.815309  0  2.380311  0
Zn  Zn1  1  0.08218352  0.01061202  0.61057217  1  0  1.025392  0  1.868525  0  0  0.852979  0  2.334861  0  0  0.906644  0  2.269095  0  0  0.665597  0.815162  0  2.380251  0
H  H2  1  0.14913782  0.41399658  0.64420100  1  0  0.118617  0  0.94618  0  0  0.138759  0  1.006679  0  0  0.140304  0  1.006556  0  0  0.092471  0.137799  0  1.006304  0
H  H3  1  0.85087555  0.58599989  0.35579286  1  0  0.118613  0  0.946089  0  0  0.138762  0  1.006572  0  0  0.140307  0  1.006448  0  0  0.092476  0.137801  0  1.006198  0
H  H4  1  0.24315389  0.43395345  0.78602252  1  0  0.097096  0  0.963943  0  0  0.119816  0  1.025464  0  0  0.120213  0  1.027262  0  0  0.085387  0.119486  0  1.024115  0
H  H5  1  0.75687535  0.56604893  0.21395763  1  0  0.09707  0  0.963689  0  0  0.119738  0  1.025292  0  0  0.120136  0  1.027089  0  0  0.085323  0.119408  0  1.023947  0
H  H6  1  0.26323206  0.57533655  0.61819063  1  0  0.123649  0  0.961147  0  0  0.145326  0  1.020373  0  0  0.146042  0  1.021634  0  0  0.095112  0.144662  0  1.019513  0
H  H7  1  0.73677183  0.42466918  0.38179542  1  0  0.123624  0  0.961151  0  0  0.145288  0  1.020401  0  0  0.146006  0  1.021658  0  0  0.095084  0.144625  0  1.019538  0
H  H8  1  0.43640197  0.31633609  0.50879100  1  0  0.077146  0  0.940238  0  0  0.089745  0  1.002109  0  0  0.092195  0  1.000029  0  0  0.101619  0.087758  0  1.004  0
H  H9  1  0.56361398  0.68367456  0.49118948  1  0  0.077269  0  0.940111  0  0  0.089835  0  1.002018  0  0  0.092286  0  0.999937  0  0  0.10163  0.087845  0  1.003907  0
H  H10  1  0.56384664  0.31749805  0.78134680  1  0  0.106615  0  0.967335  0  0  0.118484  0  1.026609  0  0  0.121815  0  1.026381  0  0  0.09552  0.115817  0  1.027622  0
H  H11  1  0.43615610  0.68251367  0.21863687  1  0  0.106573  0  0.967277  0  0  0.11838  0  1.026627  0  0  0.121709  0  1.026405  0  0  0.09546  0.115714  0  1.027638  0
H  H12  1  0.15366335  0.68137225  0.93260804  1  0  0.12006  0  0.95032  0  0  0.13855  0  1.01503  0  0  0.140246  0  1.014801  0  0  0.093491  0.137064  0  1.01542  0
H  H13  1  0.84635672  0.31860899  0.06739875  1  0  0.119933  0  0.950222  0  0  0.138392  0  1.015034  0  0  0.140092  0  1.014803  0  0  0.09345  0.136911  0  1.015421  0
H  H14  1  0.26110373  0.69727154  0.06874220  1  0  0.107594  0  0.969882  0  0  0.124531  0  1.038969  0  0  0.126374  0  1.038698  0  0  0.088072  0.123336  0  1.038932  0
H  H15  1  0.73888717  0.30268622  0.93127206  1  0  0.107398  0  0.969759  0  0  0.124322  0  1.038917  0  0  0.12616  0  1.038659  0  0  0.087972  0.123131  0  1.038871  0
H  H16  1  0.37113509  0.58510642  0.93523379  1  0  0.108187  0  0.940199  0  0  0.13344  0  0.996268  0  0  0.134162  0  0.997455  0  0  0.093455  0.132729  0  0.995811  0
H  H17  1  0.62885726  0.41486911  0.06479807  1  0  0.108078  0  0.939892  0  0  0.133356  0  0.995961  0  0  0.134076  0  0.997152  0  0  0.093427  0.132647  0  0.995498  0
H  H18  1  0.13489564  0.39159000  0.04872570  1  0  0.064183  0  0.9672  0  0  0.077346  0  1.030952  0  0  0.079301  0  1.029976  0  0  0.096976  0.076054  0  1.031246  0
H  H19  1  0.86510102  0.60837933  0.95126914  1  0  0.064129  0  0.967487  0  0  0.077187  0  1.03139  0  0  0.079141  0  1.030411  0  0  0.0969  0.075912  0  1.031664  0
H  H20  1  0.21577758  0.48918817  0.30319691  1  0  0.124818  0  0.948746  0  0  0.135277  0  1.006219  0  0  0.138661  0  1.005925  0  0  0.103963  0.132553  0  1.007289  0
H  H21  1  0.78419986  0.51081348  0.69679206  1  0  0.124969  0  0.948401  0  0  0.135391  0  1.005936  0  0  0.138777  0  1.005638  0  0  0.103975  0.132667  0  1.007008  0
H  H22  1  0.97033474  0.86884847  0.12276212  1  0  0.086602  0  0.948891  0  0  0.096919  0  1.010462  0  0  0.09911  0  1.009408  0  0  0.121475  0.095231  0  1.01137  0
H  H23  1  0.02966733  0.13118563  0.87723323  1  0  0.086552  0  0.949001  0  0  0.096864  0  1.010642  0  0  0.099051  0  1.009597  0  0  0.121468  0.095211  0  1.011514  0
H  H24  1  0.80071587  0.87580898  0.93873670  1  0  0.117626  0  0.984575  0  0  0.122927  0  1.052338  0  0  0.126852  0  1.050181  0  0  0.109162  0.1204  0  1.053268  0
H  H25  1  0.19928761  0.12423122  0.06125783  1  0  0.117519  0  0.984629  0  0  0.122918  0  1.052285  0  0  0.12685  0  1.050123  0  0  0.109117  0.12039  0  1.05322  0
H  H26  1  0.35409994  0.13123849  0.18808683  1  0  0.10393  0  1.004752  0  0  0.113099  0  1.067017  0  0  0.115287  0  1.067638  0  0  0.108632  0.111517  0  1.066591  0
H  H27  1  0.64588723  0.86876522  0.81191921  1  0  0.103931  0  1.004848  0  0  0.113083  0  1.067133  0  0  0.11526  0  1.067781  0  0  0.108637  0.111502  0  1.066698  0
H  H28  1  0.54704694  0.12099033  0.35685378  1  0  0.096718  0  0.935444  0  0  0.103678  0  0.999038  0  0  0.106877  0  0.995942  0  0  0.123618  0.101344  0  1.001189  0
H  H29  1  0.45292969  0.87901355  0.64316237  1  0  0.096744  0  0.935494  0  0  0.103676  0  0.999137  0  0  0.106856  0  0.996043  0  0  0.123658  0.101342  0  1.001287  0
C  C30  1  0.26278712  0.44664805  0.66897897  1  0  -0.322461  0  3.745619  0  0  -0.396228  0  3.983665  0  0  -0.399912  0  3.99524  0  0  -0.248118  -0.393306  0  3.975104  0
C  C31  1  0.73721638  0.55335915  0.33101393  1  0  -0.322456  0  3.74543  0  0  -0.39615  0  3.983487  0  0  -0.399831  0  3.995055  0  0  -0.248061  -0.393224  0  3.974921  0
C  C32  1  0.42847627  0.34660728  0.61193657  1  0  0.101372  0  3.686105  0  0  0.085011  0  3.946451  0  0  0.091873  0  3.963859  0  0  -0.066006  0.080531  0  3.934336  0
C  C33  1  0.57153908  0.65339974  0.38804496  1  0  0.101279  0  3.68622  0  0  0.084946  0  3.946536  0  0  0.091804  0  3.963948  0  0  -0.06599  0.080473  0  3.934411  0
C  C34  1  0.56659034  0.29021886  0.67817362  1  0  -0.308023  0  3.731007  0  0  -0.322193  0  3.98786  0  0  -0.337018  0  4.007014  0  0  -0.122659  -0.312544  0  3.975445  0
C  C35  1  0.43342476  0.70978234  0.32181560  1  0  -0.307987  0  3.730964  0  0  -0.322101  0  3.987858  0  0  -0.336926  0  4.007015  0  0  -0.122613  -0.312452  0  3.975437  0
C  C36  1  0.72818210  0.18647138  0.62142940  1  0  0.697576  0  3.909654  0  0  0.65071  0  4.196766  0  0  0.687504  0  4.188492  0  0  0.203172  0.626022  0  4.201426  0
C  C37  1  0.27182023  0.81352147  0.37857155  1  0  0.697806  0  3.909667  0  0  0.650862  0  4.196874  0  0  0.687658  0  4.188597  0  0  0.20317  0.626177  0  4.201532  0
C  C38  1  0.24405252  0.61602682  0.00626019  1  0  -0.322127  0  3.755754  0  0  -0.396446  0  3.997006  0  0  -0.399768  0  4.007039  0  0  -0.245881  -0.393823  0  3.989976  0
C  C39  1  0.75595957  0.38396959  0.99373289  1  0  -0.321744  0  3.755434  0  0  -0.396037  0  3.996695  0  0  -0.399362  0  4.00674  0  0  -0.245682  -0.393407  0  3.989657  0
C  C40  1  0.17971211  0.46767807  0.10114921  1  0  0.06696  0  3.701328  0  0  0.054558  0  3.957735  0  0  0.05958  0  3.976086  0  0  -0.074859  0.05118  0  3.945117  0
C  C41  1  0.82028915  0.53229945  0.89886615  1  0  0.067175  0  3.701841  0  0  0.054813  0  3.958208  0  0  0.05984  0  3.97656  0  0  -0.074762  0.051408  0  3.945599  0
C  C42  1  0.17264535  0.41918317  0.24429121  1  0  -0.275065  0  3.683535  0  0  -0.287707  0  3.935389  0  0  -0.29983  0  3.952083  0  0  -0.108671  -0.280344  0  3.925157  0
C  C43  1  0.82733500  0.58080144  0.75572927  1  0  -0.27534  0  3.683364  0  0  -0.287968  0  3.935211  0  0  -0.300094  0  3.951903  0  0  -0.108721  -0.280612  0  3.924995  0
C  C44  1  0.11152108  0.26671022  0.33156214  1  0  0.68967  0  3.906668  0  0  0.641589  0  4.197549  0  0  0.677607  0  4.189378  0  0  0.20215  0.617245  0  4.202161  0
C  C45  1  0.88848196  0.73327819  0.66845005  1  0  0.689699  0  3.906485  0  0  0.64168  0  4.197312  0  0  0.677705  0  4.189141  0  0  0.202225  0.617337  0  4.201931  0
C  C46  1  0.83292064  0.92646079  0.13167816  1  0  0.131063  0  3.682287  0  0  0.101754  0  3.928609  0  0  0.108088  0  3.948114  0  0  0.05484  0.097803  0  3.914844  0
C  C47  1  0.16707140  0.07357178  0.86831434  1  0  0.131238  0  3.682443  0  0  0.101763  0  3.928898  0  0  0.108096  0  3.948405  0  0  0.05479  0.097788  0  3.915127  0
C  C48  1  0.73521203  0.92879663  0.03088561  1  0  -0.148584  0  3.673658  0  0  -0.168682  0  3.925514  0  0  -0.175881  0  3.945714  0  0  -0.07453  -0.163496  0  3.91045  0
C  C49  1  0.26478484  0.07124450  0.96910479  1  0  -0.148473  0  3.673788  0  0  -0.168631  0  3.925551  0  0  -0.175841  0  3.945765  0  0  -0.074476  -0.163444  0  3.910481  0
C  C50  1  0.55696654  0.00064396  0.04948465  1  0  0.097897  0  3.734124  0  0  0.110879  0  3.960562  0  0  0.114971  0  3.981387  0  0  0.019522  0.107968  0  3.946463  0
C  C51  1  0.44303054  0.99938267  0.95050949  1  0  0.097662  0  3.734151  0  0  0.110793  0  3.960471  0  0  0.114883  0  3.981301  0  0  0.019592  0.10788  0  3.946366  0
C  C52  1  0.49016445  0.07311771  0.16760013  1  0  -0.145375  0  3.69983  0  0  -0.164379  0  3.94396  0  0  -0.17217  0  3.966703  0  0  -0.07569  -0.159445  0  3.928814  0
C  C53  1  0.50982765  0.92689436  0.83239873  1  0  -0.145288  0  3.699641  0  0  -0.16432  0  3.943781  0  0  -0.172107  0  3.966515  0  0  -0.075693  -0.159388  0  3.928637  0
C  C54  1  0.59634704  0.06752429  0.26304572  1  0  0.144814  0  3.660104  0  0  0.113473  0  3.91031  0  0  0.120583  0  3.928039  0  0  0.059045  0.109116  0  3.898058  0
C  C55  1  0.40363133  0.93248429  0.73696478  1  0  0.14484  0  3.660139  0  0  0.113426  0  3.910411  0  0  0.12056  0  3.92811  0  0  0.058934  0.109073  0  3.898162  0
N  N56  1  0.76531343  0.99409203  0.24630917  1  0  -0.303844  0  3.262675  0  0  -0.220142  0  3.529717  0  0  -0.239597  0  3.544817  0  0  -0.324071  -0.206982  0  3.519308  0
N  N57  1  0.23467673  0.00592275  0.75369753  1  0  -0.304015  0  3.262946  0  0  -0.220069  0  3.529786  0  0  -0.239522  0  3.544879  0  0  -0.323975  -0.206926  0  3.519405  0
O  O58  1  0.85260166  0.14974904  0.69278339  1  0  -0.637202  0  2.024655  0  0  -0.569455  0  2.283937  0  0  -0.598674  0  2.271414  0  0  -0.320636  -0.549296  0  2.292401  0
O  O59  1  0.14738936  0.85023517  0.30722088  1  0  -0.637314  0  2.024543  0  0  -0.569522  0  2.283845  0  0  -0.598746  0  2.271321  0  0  -0.320562  -0.549356  0  2.292304  0
O  O60  1  0.73401032  0.13854073  0.50730196  1  0  -0.662492  0  2.084476  0  0  -0.594796  0  2.350948  0  0  -0.624419  0  2.336976  0  0  -0.319016  -0.574019  0  2.35938  0
O  O61  1  0.26598420  0.86143246  0.49269942  1  0  -0.662602  0  2.084679  0  0  -0.594872  0  2.351202  0  0  -0.62447  0  2.337175  0  0  -0.319034  -0.574101  0  2.359634  0
O  O62  1  0.14427053  0.21871764  0.45898837  1  0  -0.629096  0  2.022133  0  0  -0.562379  0  2.279616  0  0  -0.591863  0  2.267102  0  0  -0.313189  -0.541712  0  2.287382  0
O  O63  1  0.85573496  0.78127891  0.54101204  1  0  -0.629188  0  2.021954  0  0  -0.562476  0  2.279424  0  0  -0.591952  0  2.266888  0  0  -0.31323  -0.541817  0  2.287192  0
O  O64  1  0.03498470  0.19225361  0.27379474  1  0  -0.653257  0  2.05908  0  0  -0.586447  0  2.320797  0  0  -0.61517  0  2.307824  0  0  -0.320018  -0.565845  0  2.328627  0
O  O65  1  0.96501874  0.80772546  0.72622799  1  0  -0.653224  0  2.059098  0  0  -0.586438  0  2.320744  0  0  -0.615149  0  2.307734  0  0  -0.32004  -0.565788  0  2.328463  0
