# generated using pymatgen
data_CuH9C11N2
_symmetry_space_group_name_H-M   'P 1'
_cell_length_a   7.84531604
_cell_length_b   8.07135774
_cell_length_c   8.27451439
_cell_angle_alpha   71.71194805
_cell_angle_beta   67.24295911
_cell_angle_gamma   90.47426434
_symmetry_Int_Tables_number   1
_chemical_formula_structural   CuH9C11N2
_chemical_formula_sum   'Cu2 H18 C22 N4'
_cell_volume   453.71031297
_cell_formula_units_Z   2
loop_
 _symmetry_equiv_pos_site_id
 _symmetry_equiv_pos_as_xyz
  1  'x, y, z'
loop_
 _atom_site_type_symbol
 _atom_site_label
 _atom_site_symmetry_multiplicity
 _atom_site_fract_x
 _atom_site_fract_y
 _atom_site_fract_z
 _atom_site_occupancy
 _atom_site_hle17_bader_spin_density
 _atom_site_hle17_ddec_charge
 _atom_site_hle17_ddec_spin_density
 _atom_site_hle17_ddec_sum_bond_order
 _atom_site_hle17_magmom
 _atom_site_hse06_10hf_bader_spin_density
 _atom_site_hse06_10hf_ddec_charge
 _atom_site_hse06_10hf_ddec_spin_density
 _atom_site_hse06_10hf_ddec_sum_bond_order
 _atom_site_hse06_10hf_magmom
 _atom_site_hse06_bader_spin_density
 _atom_site_hse06_ddec_charge
 _atom_site_hse06_ddec_spin_density
 _atom_site_hse06_ddec_sum_bond_order
 _atom_site_hse06_magmom
 _atom_site_pbe_bader_spin_density
 _atom_site_pbe_cm5_charge
 _atom_site_pbe_ddec_charge
 _atom_site_pbe_ddec_spin_density
 _atom_site_pbe_ddec_sum_bond_order
 _atom_site_pbe_magmom
Cu  Cu0  1  0.95994090  0.19540247  0.71267136  1  0  0.284475  0  2.310651  0  0  0.203253  0  2.785055  0  0  0.194737  0  2.744162  0  0  0.415407  0.212072  0  2.810547  0
Cu  Cu1  1  0.36062065  0.37817960  0.04210398  1  0  0.534237  0  1.980583  0  0  0.428837  0  2.461162  0  0  0.427151  0  2.419357  0  0  0.590262  0.434027  0  2.486469  0
H  H2  1  0.19732244  0.70833334  0.26872368  1  0  0.095151  0  0.954288  0  0  0.108223  0  1.014378  0  0  0.110456  0  1.012873  0  0  0.106888  0.106571  0  1.01555  0
H  H3  1  0.49237831  0.65031537  0.17039771  1  0  0.087487  0  0.964182  0  0  0.098883  0  1.029395  0  0  0.102522  0  1.026102  0  0  0.098165  0.096147  0  1.031947  0
H  H4  1  0.88412521  0.52294023  0.42170595  1  0  0.09693  0  0.970259  0  0  0.105181  0  1.040991  0  0  0.107904  0  1.039775  0  0  0.098507  0.103118  0  1.041974  0
H  H5  1  0.44676702  0.04353497  0.32996707  1  0  0.106668  0  0.954978  0  0  0.115945  0  1.020427  0  0  0.119041  0  1.019254  0  0  0.102057  0.113673  0  1.021294  0
H  H6  1  0.61001995  0.65560563  0.83436371  1  0  0.092147  0  0.988801  0  0  0.10047  0  1.05944  0  0  0.104344  0  1.056547  0  0  0.097384  0.09755  0  1.061739  0
H  H7  1  0.91675789  0.58828915  0.73448472  1  0  0.103376  0  0.972321  0  0  0.115855  0  1.030259  0  0  0.117671  0  1.031596  0  0  0.1034  0.11453  0  1.029496  0
H  H8  1  0.13183774  0.86183035  0.48339855  1  0  0.093021  0  0.955679  0  0  0.106162  0  1.016315  0  0  0.108317  0  1.014885  0  0  0.105608  0.104544  0  1.017493  0
H  H9  1  0.83572032  0.91423372  0.58450754  1  0  0.086472  0  0.967508  0  0  0.098801  0  1.031478  0  0  0.101852  0  1.028897  0  0  0.097552  0.096494  0  1.03353  0
H  H10  1  0.94100929  0.10045241  0.23748668  1  0  0.104414  0  0.968388  0  0  0.123894  0  1.035089  0  0  0.123872  0  1.037496  0  0  0.085605  0.123831  0  1.033496  0
H  H11  1  0.81761144  0.25277540  0.32996998  1  0  0.111618  0  0.971839  0  0  0.136672  0  1.031027  0  0  0.136345  0  1.033378  0  0  0.091559  0.136791  0  1.029476  0
H  H12  1  0.76603982  0.19155841  0.16277475  1  0  0.112243  0  0.967745  0  0  0.132579  0  1.030977  0  0  0.133331  0  1.031456  0  0  0.087387  0.131954  0  1.030702  0
H  H13  1  0.57531752  0.35943365  0.58057852  1  0  0.112522  0  0.96475  0  0  0.133059  0  1.027277  0  0  0.133761  0  1.027868  0  0  0.08868  0.132487  0  1.02689  0
H  H14  1  0.50022288  0.32038072  0.41576619  1  0  0.114002  0  0.967515  0  0  0.138007  0  1.026274  0  0  0.137918  0  1.028317  0  0  0.091662  0.137962  0  1.024921  0
H  H15  1  0.39474530  0.46644336  0.52956612  1  0  0.103508  0  0.969277  0  0  0.123024  0  1.036287  0  0  0.122574  0  1.039094  0  0  0.086197  0.123271  0  1.034412  0
H  H16  1  0.40888389  0.98493651  0.01953338  1  0  0.105708  0  0.971817  0  0  0.117596  0  1.029604  0  0  0.119549  0  1.03084  0  0  0.104377  0.116163  0  1.028948  0
H  H17  1  0.71551087  0.91119698  0.92155495  1  0  0.09065  0  0.989664  0  0  0.100259  0  1.058791  0  0  0.103711  0  1.0562  0  0  0.095332  0.097688  0  1.060831  0
H  H18  1  0.02023678  0.40213592  0.97066688  1  0  0.075374  0  0.95395  0  0  0.085783  0  1.020927  0  0  0.088663  0  1.017405  0  0  0.114026  0.083608  0  1.023606  0
H  H19  1  0.30245586  0.17034477  0.78542468  1  0  0.075349  0  0.953295  0  0  0.086031  0  1.020041  0  0  0.088847  0  1.016658  0  0  0.114043  0.083891  0  1.022632  0
C  C20  1  0.97658191  0.75426644  0.17153902  1  0  0.027679  0  3.793681  0  0  0.048067  0  4.015435  0  0  0.044724  0  4.041381  0  0  -0.004305  0.05013  0  3.998036  0
C  C21  1  0.65829007  0.99426088  0.43674328  1  0  0.157852  0  3.751635  0  0  0.186176  0  3.983201  0  0  0.186308  0  4.008536  0  0  -0.002533  0.185822  0  3.966178  0
C  C22  1  0.67159269  0.57125246  0.31639909  1  0  0.157355  0  3.751634  0  0  0.184855  0  3.983409  0  0  0.185022  0  4.008394  0  0  -0.00177  0.184501  0  3.966586  0
C  C23  1  0.15524269  0.79593901  0.16492431  1  0  -0.051242  0  3.7014  0  0  -0.077535  0  3.950858  0  0  -0.073126  0  3.966462  0  0  -0.068489  -0.080556  0  3.940592  0
C  C24  1  0.92706921  0.86808657  0.03004815  1  0  0.186959  0  3.759878  0  0  0.189026  0  3.984668  0  0  0.193168  0  4.008529  0  0  0.104066  0.18635  0  3.968687  0
C  C25  1  0.62801651  0.68153863  0.17027520  1  0  -0.099918  0  3.71585  0  0  -0.11792  0  3.95736  0  0  -0.119411  0  3.978017  0  0  -0.084487  -0.116725  0  3.943366  0
C  C26  1  0.84566468  0.60752761  0.31311677  1  0  -0.161581  0  3.686198  0  0  -0.186485  0  3.921544  0  0  -0.191032  0  3.945523  0  0  -0.08721  -0.18324  0  3.905497  0
C  C27  1  0.11752758  0.26120177  0.45885884  1  0  -0.075084  0  3.502453  0  0  -0.078017  0  3.871299  0  0  -0.0619  0  3.86366  0  0  -0.053609  -0.089197  0  3.875788  0
C  C28  1  0.48404379  0.95939052  0.43967318  1  0  -0.163628  0  3.67878  0  0  -0.188391  0  3.915555  0  0  -0.193127  0  3.939157  0  0  -0.086621  -0.185029  0  3.899712  0
C  C29  1  0.39916359  0.70061299  0.72504156  1  0  0.191019  0  3.76423  0  0  0.192158  0  3.991096  0  0  0.196416  0  4.014302  0  0  0.102864  0.18937  0  3.975601  0
C  C30  1  0.75124732  0.82579502  0.03139662  1  0  -0.146566  0  3.75976  0  0  -0.166564  0  4.007957  0  0  -0.171448  0  4.030352  0  0  -0.093825  -0.163308  0  3.992887  0
C  C31  1  0.57510777  0.74135704  0.72400652  1  0  -0.146883  0  3.757475  0  0  -0.166673  0  4.006529  0  0  -0.171044  0  4.02823  0  0  -0.093587  -0.163776  0  3.99204  0
C  C32  1  0.05431861  0.62591283  0.72599559  1  0  -0.13472  0  3.770363  0  0  -0.147775  0  4.025883  0  0  -0.154743  0  4.046061  0  0  -0.094124  -0.143502  0  4.012831  0
C  C33  1  0.35139032  0.81433790  0.58219012  1  0  0.027736  0  3.79509  0  0  0.047458  0  4.018932  0  0  0.044043  0  4.044915  0  0  -0.004541  0.04956  0  4.001535  0
C  C34  1  0.11291917  0.51899497  0.85991480  1  0  0.128514  0  3.707635  0  0  0.094665  0  3.967203  0  0  0.104509  0  3.979007  0  0  0.043343  0.088008  0  3.959846  0
C  C35  1  0.17265521  0.77417847  0.58823348  1  0  -0.05198  0  3.704299  0  0  -0.07802  0  3.953398  0  0  -0.073319  0  3.969321  0  0  -0.068738  -0.081278  0  3.942959  0
C  C36  1  0.73161690  0.26310532  0.84048695  1  0  -0.080408  0  3.490914  0  0  -0.081882  0  3.852213  0  0  -0.065759  0  3.84412  0  0  -0.050257  -0.093138  0  3.8572  0
C  C37  1  0.21127977  0.05231222  0.89551815  1  0  0.128974  0  3.695527  0  0  0.093955  0  3.95665  0  0  0.103776  0  3.96848  0  0  0.045737  0.087363  0  3.949205  0
C  C38  1  0.69994251  0.88432671  0.58433618  1  0  -0.10405  0  3.722407  0  0  -0.121531  0  3.962226  0  0  -0.123572  0  3.983967  0  0  -0.085094  -0.120002  0  3.947556  0
C  C39  1  0.27168144  0.94578501  0.02822993  1  0  -0.132965  0  3.762805  0  0  -0.147336  0  4.020884  0  0  -0.153565  0  4.039972  0  0  -0.093048  -0.143552  0  4.008547  0
C  C40  1  0.80266361  0.14269159  0.28284264  1  0  -0.349044  0  3.718988  0  0  -0.430415  0  3.944935  0  0  -0.432585  0  3.956734  0  0  -0.248161  -0.428608  0  3.936899  0
C  C41  1  0.52900940  0.42090473  0.46928295  1  0  -0.348792  0  3.720409  0  0  -0.428574  0  3.946126  0  0  -0.430656  0  3.958043  0  0  -0.248031  -0.426822  0  3.937959  0
N  N42  1  0.27864009  0.55341807  0.86193132  1  0  -0.348404  0  3.338002  0  0  -0.281551  0  3.633805  0  0  -0.291906  0  3.639805  0  0  -0.35524  -0.275405  0  3.629732  0
N  N43  1  0.21155457  0.30672040  0.29745234  1  0  -0.445633  0  3.366922  0  0  -0.380032  0  3.719319  0  0  -0.392968  0  3.717833  0  0  -0.45226  -0.372002  0  3.719319  0
N  N44  1  0.58785811  0.30445661  0.92085973  1  0  -0.43989  0  3.337502  0  0  -0.372111  0  3.67841  0  0  -0.38486  0  3.676851  0  0  -0.445006  -0.364245  0  3.678697  0
N  N45  1  0.04579900  0.01635003  0.89412163  1  0  -0.310655  0  3.3124  0  0  -0.244062  0  3.595018  0  0  -0.255507  0  3.604458  0  0  -0.349171  -0.237091  0  3.588798  0
