# generated using pymatgen
data_Na3GaH6(CO2)6
_symmetry_space_group_name_H-M   'P 1'
_cell_length_a   6.27035517
_cell_length_b   13.77098437
_cell_length_c   14.64747815
_cell_angle_alpha   89.99953899
_cell_angle_beta   89.99987227
_cell_angle_gamma   90.00010643
_symmetry_Int_Tables_number   1
_chemical_formula_structural   Na3GaH6(CO2)6
_chemical_formula_sum   'Na12 Ga4 H24 C24 O48'
_cell_volume   1264.79454882
_cell_formula_units_Z   4
loop_
 _symmetry_equiv_pos_site_id
 _symmetry_equiv_pos_as_xyz
  1  'x, y, z'
loop_
 _atom_site_type_symbol
 _atom_site_label
 _atom_site_symmetry_multiplicity
 _atom_site_fract_x
 _atom_site_fract_y
 _atom_site_fract_z
 _atom_site_occupancy
 _atom_site_hle17_bader_spin_density
 _atom_site_hle17_ddec_charge
 _atom_site_hle17_ddec_spin_density
 _atom_site_hle17_ddec_sum_bond_order
 _atom_site_hle17_magmom
 _atom_site_hse06_10hf_bader_spin_density
 _atom_site_hse06_10hf_ddec_charge
 _atom_site_hse06_10hf_ddec_spin_density
 _atom_site_hse06_10hf_ddec_sum_bond_order
 _atom_site_hse06_10hf_magmom
 _atom_site_hse06_bader_spin_density
 _atom_site_hse06_ddec_charge
 _atom_site_hse06_ddec_spin_density
 _atom_site_hse06_ddec_sum_bond_order
 _atom_site_hse06_magmom
 _atom_site_pbe_bader_spin_density
 _atom_site_pbe_cm5_charge
 _atom_site_pbe_ddec_charge
 _atom_site_pbe_ddec_spin_density
 _atom_site_pbe_ddec_sum_bond_order
 _atom_site_pbe_magmom
Na  Na0  1  0.27238876  0.21838395  0.50189842  1  0  0.913032  0  0.383726  0  0  0.869451  0  0.541767  0  0  0.881263  0  0.51809  0  0  0.69003  0.860735  0  0.55878  0
Na  Na1  1  0.22760209  0.21838544  0.99810331  1  0  0.91303  0  0.383719  0  0  0.869444  0  0.541741  0  0  0.881257  0  0.518062  0  0  0.690032  0.860728  0  0.558753  0
Na  Na2  1  0.77238929  0.28161641  0.49810275  1  0  0.913029  0  0.383724  0  0  0.869447  0  0.541759  0  0  0.881261  0  0.518084  0  0  0.690039  0.860734  0  0.558773  0
Na  Na3  1  0.72760688  0.28162069  0.00189722  1  0  0.91298  0  0.383773  0  0  0.869418  0  0.541802  0  0  0.881221  0  0.518131  0  0  0.690022  0.860703  0  0.558813  0
Na  Na4  1  0.72761134  0.78161768  0.49810157  1  0  0.913029  0  0.383697  0  0  0.869441  0  0.541743  0  0  0.881256  0  0.518066  0  0  0.690022  0.860729  0  0.558756  0
Na  Na5  1  0.77239163  0.78161547  0.00189941  1  0  0.913031  0  0.383721  0  0  0.869437  0  0.541774  0  0  0.881252  0  0.518093  0  0  0.690017  0.860716  0  0.558789  0
Na  Na6  1  0.22761081  0.71838305  0.50189655  1  0  0.913015  0  0.383734  0  0  0.869443  0  0.541763  0  0  0.881255  0  0.518087  0  0  0.690023  0.860729  0  0.558775  0
Na  Na7  1  0.27239641  0.71838312  0.99810413  1  0  0.913006  0  0.383743  0  0  0.869417  0  0.541791  0  0  0.881228  0  0.518114  0  0  0.690028  0.8607  0  0.558804  0
Na  Na8  1  0.75000177  0.92061826  0.25000099  1  0  0.903557  0  0.359402  0  0  0.845693  0  0.521385  0  0  0.859976  0  0.496978  0  0  0.665542  0.835259  0  0.538829  0
Na  Na9  1  0.25000254  0.57938177  0.74999984  1  0  0.903558  0  0.359391  0  0  0.845678  0  0.521394  0  0  0.859964  0  0.496984  0  0  0.665535  0.835243  0  0.538837  0
Na  Na10  1  0.24999833  0.07938047  0.75000104  1  0  0.903559  0  0.359403  0  0  0.845691  0  0.521389  0  0  0.859974  0  0.496981  0  0  0.665548  0.835257  0  0.538832  0
Na  Na11  1  0.75000395  0.42061842  0.24999946  1  0  0.903537  0  0.359443  0  0  0.84567  0  0.521443  0  0  0.859955  0  0.497033  0  0  0.665544  0.835236  0  0.538887  0
Ga  Ga12  1  0.25000283  0.06099322  0.25000037  1  0  1.537137  0  2.279456  0  0  1.39183  0  2.692669  0  0  1.453265  0  2.642145  0  0  0.571116  1.348822  0  2.726753  0
Ga  Ga13  1  0.74999785  0.43900421  0.75000014  1  0  1.537242  0  2.279456  0  0  1.391833  0  2.692796  0  0  1.45327  0  2.642263  0  0  0.57111  1.348823  0  2.726884  0
Ga  Ga14  1  0.75000046  0.93900260  0.74999893  1  0  1.537211  0  2.279509  0  0  1.391916  0  2.692699  0  0  1.453347  0  2.642172  0  0  0.571139  1.348907  0  2.726787  0
Ga  Ga15  1  0.25000384  0.56099089  0.25000121  1  0  1.537172  0  2.279522  0  0  1.39184  0  2.692786  0  0  1.453275  0  2.642257  0  0  0.571097  1.348832  0  2.726874  0
H  H16  1  0.16995924  0.94212627  0.42149554  1  0  0.010124  0  0.954417  0  0  0.019566  0  1.023322  0  0  0.019816  0  1.019575  0  0  0.122557  0.019165  0  1.026067  0
H  H17  1  0.33004201  0.94212926  0.07850332  1  0  0.010091  0  0.954427  0  0  0.019544  0  1.023319  0  0  0.019792  0  1.019573  0  0  0.122562  0.019143  0  1.026063  0
H  H18  1  0.66995684  0.55787369  0.57850468  1  0  0.01008  0  0.954419  0  0  0.019525  0  1.023323  0  0  0.019774  0  1.019576  0  0  0.122539  0.019124  0  1.026067  0
H  H19  1  0.83004732  0.55787083  0.92149265  1  0  0.010056  0  0.954486  0  0  0.019512  0  1.023373  0  0  0.019759  0  1.019629  0  0  0.122523  0.019111  0  1.026117  0
H  H20  1  0.83004086  0.05787101  0.57850308  1  0  0.01007  0  0.954451  0  0  0.019525  0  1.023336  0  0  0.019773  0  1.019592  0  0  0.122555  0.019125  0  1.026079  0
H  H21  1  0.66995012  0.05787310  0.92149530  1  0  0.010033  0  0.954445  0  0  0.019482  0  1.02336  0  0  0.019729  0  1.019615  0  0  0.122507  0.019081  0  1.026104  0
H  H22  1  0.33003848  0.44212868  0.42149667  1  0  0.010059  0  0.954514  0  0  0.019521  0  1.023385  0  0  0.019767  0  1.019645  0  0  0.122551  0.019121  0  1.026128  0
H  H23  1  0.16996075  0.44212862  0.07850869  1  0  0.01011  0  0.954465  0  0  0.019546  0  1.02338  0  0  0.019796  0  1.019631  0  0  0.122514  0.019146  0  1.026126  0
H  H24  1  0.48867875  0.24210395  0.22317243  1  0  0.011869  0  0.942261  0  0  0.020971  0  1.011969  0  0  0.02194  0  1.008025  0  0  0.124286  0.020023  0  1.014932  0
H  H25  1  0.01132287  0.24210424  0.27683035  1  0  0.011986  0  0.942302  0  0  0.021064  0  1.012004  0  0  0.022033  0  1.008065  0  0  0.124318  0.020116  0  1.01497  0
H  H26  1  0.98867448  0.25789442  0.77683059  1  0  0.011841  0  0.942237  0  0  0.020968  0  1.011943  0  0  0.021942  0  1.007997  0  0  0.124264  0.020015  0  1.014904  0
H  H27  1  0.51131730  0.25789662  0.72316969  1  0  0.011913  0  0.942237  0  0  0.020964  0  1.011993  0  0  0.021934  0  1.008051  0  0  0.124287  0.020019  0  1.014961  0
H  H28  1  0.51133411  0.75789769  0.77682755  1  0  0.011806  0  0.942299  0  0  0.021008  0  1.011913  0  0  0.02199  0  1.007963  0  0  0.124254  0.020055  0  1.014878  0
H  H29  1  0.98868042  0.75789594  0.72317168  1  0  0.01194  0  0.94225  0  0  0.020998  0  1.011989  0  0  0.021967  0  1.008047  0  0  0.124303  0.020049  0  1.014953  0
H  H30  1  0.01132402  0.74209850  0.22316940  1  0  0.011966  0  0.942217  0  0  0.021048  0  1.01193  0  0  0.02202  0  1.007985  0  0  0.124309  0.0201  0  1.014896  0
H  H31  1  0.48867483  0.74210429  0.27682892  1  0  0.011937  0  0.942265  0  0  0.021027  0  1.011973  0  0  0.021996  0  1.008032  0  0  0.124303  0.020079  0  1.014938  0
H  H32  1  0.71858675  0.07053966  0.40122751  1  0  0.020138  0  0.92773  0  0  0.027541  0  0.998192  0  0  0.028616  0  0.993263  0  0  0.125224  0.026534  0  1.001887  0
H  H33  1  0.78141175  0.07054243  0.09876723  1  0  0.020076  0  0.927679  0  0  0.027477  0  0.99816  0  0  0.028553  0  0.993226  0  0  0.125224  0.026476  0  1.001863  0
H  H34  1  0.21858656  0.42945993  0.59876893  1  0  0.02009  0  0.927698  0  0  0.027491  0  0.998173  0  0  0.028569  0  0.993237  0  0  0.125201  0.026484  0  1.001875  0
H  H35  1  0.28141153  0.42946520  0.90122984  1  0  0.020163  0  0.927667  0  0  0.027567  0  0.998131  0  0  0.028645  0  0.993197  0  0  0.125226  0.02656  0  1.001839  0
H  H36  1  0.28141654  0.92946125  0.59877179  1  0  0.020112  0  0.927719  0  0  0.027487  0  0.998208  0  0  0.028557  0  0.99329  0  0  0.125199  0.026484  0  1.001904  0
H  H37  1  0.21858197  0.92945775  0.90123002  1  0  0.020108  0  0.927733  0  0  0.027485  0  0.998222  0  0  0.028557  0  0.993299  0  0  0.125197  0.026482  0  1.00192  0
H  H38  1  0.78141992  0.57053735  0.40122969  1  0  0.020139  0  0.927615  0  0  0.027504  0  0.99813  0  0  0.02858  0  0.993199  0  0  0.125209  0.026499  0  1.001825  0
H  H39  1  0.71859176  0.57054080  0.09877356  1  0  0.02009  0  0.927769  0  0  0.027471  0  0.998252  0  0  0.028545  0  0.993324  0  0  0.125189  0.026469  0  1.00195  0
C  C40  1  0.33049403  0.92016577  0.39839601  1  0  0.614204  0  3.877289  0  0  0.545233  0  4.184901  0  0  0.578489  0  4.174962  0  0  0.168393  0.522698  0  4.191078  0
C  C41  1  0.16951033  0.92016407  0.10160643  1  0  0.614245  0  3.877395  0  0  0.545265  0  4.185017  0  0  0.57852  0  4.17508  0  0  0.168404  0.522731  0  4.191192  0
C  C42  1  0.83049477  0.57983214  0.60160201  1  0  0.614274  0  3.877115  0  0  0.545313  0  4.184709  0  0  0.578568  0  4.174771  0  0  0.168419  0.52278  0  4.190885  0
C  C43  1  0.66950947  0.57983008  0.89839857  1  0  0.614268  0  3.877232  0  0  0.545288  0  4.184846  0  0  0.578543  0  4.174907  0  0  0.168432  0.522756  0  4.191021  0
C  C44  1  0.66950448  0.07983223  0.60160261  1  0  0.614275  0  3.877299  0  0  0.545304  0  4.184901  0  0  0.578561  0  4.174959  0  0  0.168407  0.522771  0  4.191077  0
C  C45  1  0.83048340  0.07983684  0.89839492  1  0  0.614327  0  3.877355  0  0  0.545331  0  4.184995  0  0  0.578586  0  4.175057  0  0  0.168436  0.522798  0  4.19117  0
C  C46  1  0.16950214  0.42016586  0.39839524  1  0  0.614231  0  3.877617  0  0  0.545255  0  4.185216  0  0  0.57851  0  4.175279  0  0  0.168399  0.522721  0  4.191392  0
C  C47  1  0.33049541  0.42016647  0.10160415  1  0  0.614173  0  3.877431  0  0  0.545204  0  4.185031  0  0  0.578458  0  4.175094  0  0  0.168415  0.522667  0  4.19121  0
C  C48  1  0.49030363  0.23375274  0.29852332  1  0  0.584086  0  3.898368  0  0  0.515849  0  4.206815  0  0  0.548263  0  4.198616  0  0  0.158541  0.493939  0  4.211773  0
C  C49  1  0.00969316  0.23375440  0.20148089  1  0  0.584079  0  3.898072  0  0  0.515876  0  4.206487  0  0  0.548288  0  4.198289  0  0  0.158579  0.493963  0  4.211449  0
C  C50  1  0.99029981  0.26624854  0.70147697  1  0  0.584196  0  3.898282  0  0  0.515929  0  4.206718  0  0  0.548338  0  4.198524  0  0  0.158589  0.494026  0  4.211668  0
C  C51  1  0.50968722  0.26624646  0.79852120  1  0  0.584251  0  3.898267  0  0  0.516004  0  4.206707  0  0  0.548417  0  4.198508  0  0  0.158585  0.494087  0  4.211674  0
C  C52  1  0.50969966  0.76625108  0.70147735  1  0  0.584098  0  3.898411  0  0  0.515806  0  4.20683  0  0  0.548212  0  4.19864  0  0  0.158502  0.4939  0  4.211784  0
C  C53  1  0.99030853  0.76624796  0.79852182  1  0  0.58406  0  3.898222  0  0  0.515854  0  4.20666  0  0  0.548269  0  4.198456  0  0  0.15853  0.493945  0  4.21162  0
C  C54  1  0.00969232  0.73374947  0.29851960  1  0  0.584053  0  3.898182  0  0  0.515828  0  4.206615  0  0  0.548242  0  4.198413  0  0  0.158533  0.493917  0  4.211575  0
C  C55  1  0.49030331  0.73375299  0.20148015  1  0  0.584116  0  3.898112  0  0  0.515897  0  4.206534  0  0  0.54831  0  4.198333  0  0  0.158555  0.493984  0  4.211496  0
C  C56  1  0.88882598  0.08875635  0.38956461  1  0  0.608864  0  3.892488  0  0  0.539829  0  4.206044  0  0  0.572792  0  4.195296  0  0  0.164777  0.517465  0  4.212825  0
C  C57  1  0.61116781  0.08875670  0.11043341  1  0  0.608828  0  3.892712  0  0  0.539788  0  4.206289  0  0  0.572751  0  4.195544  0  0  0.164719  0.517414  0  4.21308  0
C  C58  1  0.38882884  0.41124266  0.61043372  1  0  0.608883  0  3.892548  0  0  0.539849  0  4.2061  0  0  0.572813  0  4.195354  0  0  0.164753  0.517481  0  4.212882  0
C  C59  1  0.11117396  0.41124716  0.88956791  1  0  0.608837  0  3.892275  0  0  0.539793  0  4.20585  0  0  0.572755  0  4.195104  0  0  0.164757  0.517422  0  4.212634  0
C  C60  1  0.11117572  0.91124239  0.61043947  1  0  0.608814  0  3.892871  0  0  0.539794  0  4.20644  0  0  0.572757  0  4.19569  0  0  0.164769  0.517426  0  4.213224  0
C  C61  1  0.38882272  0.91123986  0.88956316  1  0  0.608816  0  3.892705  0  0  0.539792  0  4.206264  0  0  0.572754  0  4.195518  0  0  0.164751  0.517421  0  4.21305  0
C  C62  1  0.61117445  0.58875534  0.38956421  1  0  0.608935  0  3.892411  0  0  0.539921  0  4.205973  0  0  0.572885  0  4.195225  0  0  0.164816  0.517556  0  4.212755  0
C  C63  1  0.88882933  0.58875666  0.11043481  1  0  0.608895  0  3.892561  0  0  0.539885  0  4.206079  0  0  0.572848  0  4.195332  0  0  0.164757  0.517512  0  4.212869  0
O  O64  1  0.40144085  0.95988151  0.32443497  1  0  -0.66172  0  2.134228  0  0  -0.595215  0  2.401223  0  0  -0.624702  0  2.38957  0  0  -0.313681  -0.574732  0  2.408504  0
O  O65  1  0.09857005  0.95987911  0.17556443  1  0  -0.661703  0  2.134286  0  0  -0.595211  0  2.401315  0  0  -0.624697  0  2.389663  0  0  -0.313699  -0.574731  0  2.408598  0
O  O66  1  0.90143784  0.54011429  0.67556298  1  0  -0.661717  0  2.134137  0  0  -0.595214  0  2.401156  0  0  -0.6247  0  2.389503  0  0  -0.313677  -0.574732  0  2.408437  0
O  O67  1  0.59856943  0.54011716  0.82443585  1  0  -0.661709  0  2.134117  0  0  -0.595208  0  2.401165  0  0  -0.624696  0  2.389513  0  0  -0.313674  -0.574727  0  2.408446  0
O  O68  1  0.59856563  0.04011795  0.67556365  1  0  -0.661687  0  2.134184  0  0  -0.595197  0  2.401194  0  0  -0.624681  0  2.389537  0  0  -0.313679  -0.574717  0  2.408477  0
O  O69  1  0.90142527  0.04012325  0.82443418  1  0  -0.661712  0  2.134157  0  0  -0.595229  0  2.401214  0  0  -0.624714  0  2.389561  0  0  -0.313715  -0.574747  0  2.408495  0
O  O70  1  0.09855747  0.45988081  0.32443905  1  0  -0.661679  0  2.13446  0  0  -0.59517  0  2.401473  0  0  -0.624654  0  2.389818  0  0  -0.313684  -0.574688  0  2.408755  0
O  O71  1  0.40144502  0.45988303  0.17556277  1  0  -0.661701  0  2.134206  0  0  -0.595208  0  2.401251  0  0  -0.624695  0  2.389599  0  0  -0.313691  -0.574726  0  2.408535  0
O  O72  1  0.37844530  0.16337849  0.33228098  1  0  -0.657359  0  2.129548  0  0  -0.595794  0  2.395815  0  0  -0.624898  0  2.385854  0  0  -0.293171  -0.575606  0  2.401944  0
O  O73  1  0.12156397  0.16337908  0.16772376  1  0  -0.657347  0  2.129266  0  0  -0.595798  0  2.395537  0  0  -0.624906  0  2.38558  0  0  -0.293169  -0.575609  0  2.40167  0
O  O74  1  0.87844195  0.33662124  0.66772282  1  0  -0.657409  0  2.12963  0  0  -0.595793  0  2.395872  0  0  -0.6249  0  2.385919  0  0  -0.293172  -0.575606  0  2.402  0
O  O75  1  0.62154218  0.33662623  0.83227959  1  0  -0.65761  0  2.129446  0  0  -0.595949  0  2.395698  0  0  -0.625056  0  2.385739  0  0  -0.293214  -0.575758  0  2.401828  0
O  O76  1  0.62156437  0.83662678  0.66772173  1  0  -0.65737  0  2.129759  0  0  -0.595792  0  2.396016  0  0  -0.624899  0  2.386063  0  0  -0.293106  -0.575602  0  2.402145  0
O  O77  1  0.87844570  0.83662473  0.83227759  1  0  -0.657449  0  2.12945  0  0  -0.595874  0  2.395705  0  0  -0.624981  0  2.385744  0  0  -0.293201  -0.575685  0  2.401835  0
O  O78  1  0.12155496  0.66337314  0.33227921  1  0  -0.657417  0  2.12955  0  0  -0.595833  0  2.395803  0  0  -0.624942  0  2.385847  0  0  -0.293165  -0.575641  0  2.401929  0
O  O79  1  0.37843559  0.66337758  0.16772244  1  0  -0.657401  0  2.12942  0  0  -0.595821  0  2.395657  0  0  -0.624928  0  2.3857  0  0  -0.293175  -0.575632  0  2.401788  0
O  O80  1  0.96912297  0.04698915  0.31841255  1  0  -0.679098  0  2.150004  0  0  -0.612976  0  2.420765  0  0  -0.641661  0  2.40816  0  0  -0.328909  -0.593027  0  2.428719  0
O  O81  1  0.53088181  0.04699536  0.18158715  1  0  -0.679039  0  2.150153  0  0  -0.612915  0  2.420891  0  0  -0.641596  0  2.408284  0  0  -0.328935  -0.592968  0  2.428852  0
O  O82  1  0.46912083  0.45300702  0.68158639  1  0  -0.679051  0  2.150016  0  0  -0.61293  0  2.420805  0  0  -0.641613  0  2.408197  0  0  -0.328911  -0.592983  0  2.42876  0
O  O83  1  0.03087575  0.45301205  0.81841288  1  0  -0.679073  0  2.149951  0  0  -0.612936  0  2.420715  0  0  -0.641623  0  2.408111  0  0  -0.328903  -0.592986  0  2.428668  0
O  O84  1  0.03088192  0.95300885  0.68158880  1  0  -0.679098  0  2.15022  0  0  -0.612957  0  2.420946  0  0  -0.641636  0  2.408335  0  0  -0.328952  -0.593011  0  2.428903  0
O  O85  1  0.46912148  0.95300773  0.81841215  1  0  -0.679087  0  2.150053  0  0  -0.612958  0  2.420794  0  0  -0.641639  0  2.408186  0  0  -0.328933  -0.59301  0  2.428751  0
O  O86  1  0.53088086  0.54699026  0.31841359  1  0  -0.679109  0  2.150095  0  0  -0.612979  0  2.420844  0  0  -0.641662  0  2.408237  0  0  -0.328922  -0.593032  0  2.4288  0
O  O87  1  0.96912754  0.54698886  0.18158642  1  0  -0.67909  0  2.149955  0  0  -0.612992  0  2.420751  0  0  -0.641676  0  2.408144  0  0  -0.328904  -0.593045  0  2.42871  0
O  O88  1  0.43240508  0.85869217  0.44304552  1  0  -0.667393  0  1.996632  0  0  -0.62378  0  2.252992  0  0  -0.644973  0  2.238678  0  0  -0.421421  -0.609023  0  2.262499  0
O  O89  1  0.06759584  0.85869439  0.05695465  1  0  -0.667399  0  1.996616  0  0  -0.623784  0  2.252978  0  0  -0.644977  0  2.238664  0  0  -0.421411  -0.609022  0  2.262481  0
O  O90  1  0.93240631  0.64130656  0.55695377  1  0  -0.667438  0  1.996534  0  0  -0.623824  0  2.252886  0  0  -0.645017  0  2.238572  0  0  -0.421433  -0.609067  0  2.262391  0
O  O91  1  0.56759819  0.64130185  0.94304702  1  0  -0.667396  0  1.996538  0  0  -0.623791  0  2.252918  0  0  -0.644984  0  2.238602  0  0  -0.421418  -0.60903  0  2.262421  0
O  O92  1  0.56759024  0.14130511  0.55695242  1  0  -0.66742  0  1.996545  0  0  -0.623829  0  2.25294  0  0  -0.645024  0  2.238626  0  0  -0.421432  -0.609069  0  2.262445  0
O  O93  1  0.93239629  0.14130870  0.94304601  1  0  -0.667425  0  1.996694  0  0  -0.623821  0  2.253085  0  0  -0.645013  0  2.23877  0  0  -0.42139  -0.60906  0  2.262588  0
O  O94  1  0.06758741  0.35869507  0.44304826  1  0  -0.667418  0  1.996624  0  0  -0.623822  0  2.253007  0  0  -0.645017  0  2.238695  0  0  -0.421444  -0.609061  0  2.262512  0
O  O95  1  0.43240511  0.35869471  0.05695159  1  0  -0.667342  0  1.99667  0  0  -0.62376  0  2.253067  0  0  -0.644951  0  2.238753  0  0  -0.421395  -0.608997  0  2.262571  0
O  O96  1  0.59625297  0.29193724  0.34585952  1  0  -0.647887  0  1.955587  0  0  -0.602878  0  2.205058  0  0  -0.623808  0  2.192464  0  0  -0.384501  -0.58838  0  2.213371  0
O  O97  1  0.90374962  0.29193601  0.15413764  1  0  -0.647949  0  1.955556  0  0  -0.602957  0  2.20503  0  0  -0.623883  0  2.192429  0  0  -0.384528  -0.588458  0  2.213344  0
O  O98  1  0.09624520  0.20806443  0.65413976  1  0  -0.64797  0  1.95562  0  0  -0.60297  0  2.205103  0  0  -0.623902  0  2.19251  0  0  -0.384516  -0.588472  0  2.213413  0
O  O99  1  0.40374082  0.20806446  0.84586136  1  0  -0.647861  0  1.955639  0  0  -0.602847  0  2.2051  0  0  -0.623777  0  2.192504  0  0  -0.384442  -0.588347  0  2.213415  0
O  O100  1  0.40375670  0.70806658  0.65413773  1  0  -0.647847  0  1.955564  0  0  -0.602863  0  2.205081  0  0  -0.623796  0  2.192492  0  0  -0.384457  -0.588365  0  2.213391  0
O  O101  1  0.09624889  0.70806490  0.84586234  1  0  -0.64782  0  1.955607  0  0  -0.602821  0  2.205075  0  0  -0.62375  0  2.192478  0  0  -0.384433  -0.588322  0  2.213386  0
O  O102  1  0.90374693  0.79193140  0.34585954  1  0  -0.647887  0  1.955496  0  0  -0.602881  0  2.204971  0  0  -0.62381  0  2.192373  0  0  -0.384494  -0.588385  0  2.213286  0
O  O103  1  0.59625130  0.79193354  0.15413794  1  0  -0.647934  0  1.955615  0  0  -0.602943  0  2.205094  0  0  -0.623872  0  2.192498  0  0  -0.384487  -0.588442  0  2.213406  0
O  O104  1  0.98097543  0.14483857  0.44307049  1  0  -0.669254  0  2.053962  0  0  -0.626574  0  2.316712  0  0  -0.647771  0  2.303769  0  0  -0.43047  -0.611848  0  2.325278  0
O  O105  1  0.51902018  0.14483784  0.05692505  1  0  -0.669202  0  2.054055  0  0  -0.626507  0  2.316773  0  0  -0.647702  0  2.303828  0  0  -0.430418  -0.611779  0  2.325342  0
O  O106  1  0.48097516  0.35516343  0.55692229  1  0  -0.669237  0  2.053916  0  0  -0.626574  0  2.316697  0  0  -0.647773  0  2.303757  0  0  -0.43045  -0.611847  0  2.325264  0
O  O107  1  0.01902103  0.35516593  0.94307635  1  0  -0.669229  0  2.053737  0  0  -0.626534  0  2.316467  0  0  -0.647729  0  2.303523  0  0  -0.430466  -0.611807  0  2.325036  0
O  O108  1  0.01903264  0.85516597  0.55692744  1  0  -0.66915  0  2.054057  0  0  -0.626506  0  2.316881  0  0  -0.647705  0  2.303939  0  0  -0.430409  -0.61178  0  2.325448  0
O  O109  1  0.48097195  0.85516379  0.94307493  1  0  -0.669165  0  2.054046  0  0  -0.626494  0  2.316817  0  0  -0.647693  0  2.303877  0  0  -0.430402  -0.611765  0  2.325381  0
O  O110  1  0.51902813  0.64483458  0.44307291  1  0  -0.669273  0  2.053847  0  0  -0.626614  0  2.31664  0  0  -0.647812  0  2.303697  0  0  -0.430485  -0.611888  0  2.325207  0
O  O111  1  0.98098067  0.64483570  0.05692432  1  0  -0.669197  0  2.053956  0  0  -0.626504  0  2.316665  0  0  -0.647701  0  2.303722  0  0  -0.430422  -0.611776  0  2.325231  0
