# generated using pymatgen
data_GdH12(C5O3)3
_symmetry_space_group_name_H-M   'P 1'
_cell_length_a   10.05932724
_cell_length_b   12.42342990
_cell_length_c   12.82325065
_cell_angle_alpha   101.13021931
_cell_angle_beta   89.99895576
_cell_angle_gamma   90.00058248
_symmetry_Int_Tables_number   1
_chemical_formula_structural   GdH12(C5O3)3
_chemical_formula_sum   'Gd4 H48 C60 O36'
_cell_volume   1572.39672688
_cell_formula_units_Z   4
loop_
 _symmetry_equiv_pos_site_id
 _symmetry_equiv_pos_as_xyz
  1  'x, y, z'
loop_
 _atom_site_type_symbol
 _atom_site_label
 _atom_site_symmetry_multiplicity
 _atom_site_fract_x
 _atom_site_fract_y
 _atom_site_fract_z
 _atom_site_occupancy
 _atom_site_hle17_bader_spin_density
 _atom_site_hle17_ddec_charge
 _atom_site_hle17_ddec_spin_density
 _atom_site_hle17_ddec_sum_bond_order
 _atom_site_hle17_magmom
 _atom_site_hse06_10hf_bader_spin_density
 _atom_site_hse06_10hf_ddec_charge
 _atom_site_hse06_10hf_ddec_spin_density
 _atom_site_hse06_10hf_ddec_sum_bond_order
 _atom_site_hse06_10hf_magmom
 _atom_site_hse06_bader_spin_density
 _atom_site_hse06_ddec_charge
 _atom_site_hse06_ddec_spin_density
 _atom_site_hse06_ddec_sum_bond_order
 _atom_site_hse06_magmom
 _atom_site_pbe_bader_spin_density
 _atom_site_pbe_cm5_charge
 _atom_site_pbe_ddec_charge
 _atom_site_pbe_ddec_spin_density
 _atom_site_pbe_ddec_sum_bond_order
 _atom_site_pbe_magmom
Gd  Gd0  1  0.72455088  0.40091516  0.92345215  1  0  2.189733  0  1.799717  0  0  2.104153  0  2.163243  0  0  2.158844  0  2.103359  0  0  1.472138  2.062462  0  2.210107  0
Gd  Gd1  1  0.22455763  0.59908013  0.57654961  1  0  2.189806  0  1.799605  0  0  2.104068  0  2.16332  0  0  2.158828  0  2.103336  0  0  1.472155  2.062368  0  2.210197  0
Gd  Gd2  1  0.27543977  0.59909602  0.07654268  1  0  2.189999  0  1.799395  0  0  2.104263  0  2.163118  0  0  2.158919  0  2.103291  0  0  1.472198  2.062588  0  2.209958  0
Gd  Gd3  1  0.77544694  0.40090263  0.42345870  1  0  2.189898  0  1.799486  0  0  2.104142  0  2.163206  0  0  2.158853  0  2.103292  0  0  1.472172  2.062444  0  2.210077  0
H  H4  1  0.87783112  0.69401911  0.11240186  1  0  0.102466  0  0.947325  0  0  0.11273  0  1.007862  0  0  0.115292  0  1.006368  0  0  0.111149  0.110711  0  1.00923  0
H  H5  1  0.37784066  0.30598433  0.38759521  1  0  0.102485  0  0.947439  0  0  0.11274  0  1.00798  0  0  0.115286  0  1.006506  0  0  0.111138  0.110719  0  1.009346  0
H  H6  1  0.12216549  0.30598946  0.88759788  1  0  0.102412  0  0.947402  0  0  0.112693  0  1.007921  0  0  0.115267  0  1.006413  0  0  0.111112  0.110674  0  1.009294  0
H  H7  1  0.62217187  0.69402277  0.61239798  1  0  0.102539  0  0.947247  0  0  0.112805  0  1.007768  0  0  0.115366  0  1.006279  0  0  0.111176  0.110785  0  1.009135  0
H  H8  1  0.00040332  0.78933865  0.27394153  1  0  0.105357  0  0.999343  0  0  0.115419  0  1.060874  0  0  0.117636  0  1.061152  0  0  0.106854  0.114119  0  1.060346  0
H  H9  1  0.50041579  0.21066525  0.22605624  1  0  0.10528  0  0.999479  0  0  0.115339  0  1.061021  0  0  0.117554  0  1.061301  0  0  0.106818  0.11404  0  1.060495  0
H  H10  1  0.99959429  0.21066996  0.72605666  1  0  0.105348  0  0.999507  0  0  0.115403  0  1.061033  0  0  0.117618  0  1.061317  0  0  0.10685  0.114104  0  1.060508  0
H  H11  1  0.49960369  0.78935329  0.77394092  1  0  0.10541  0  0.999192  0  0  0.115459  0  1.060736  0  0  0.117678  0  1.061009  0  0  0.10685  0.114159  0  1.060209  0
H  H12  1  0.64504462  0.79294385  0.46074787  1  0  0.117589  0  0.93582  0  0  0.131258  0  0.988372  0  0  0.134134  0  0.987889  0  0  0.112377  0.129086  0  0.98896  0
H  H13  1  0.14506123  0.20704507  0.03925250  1  0  0.117525  0  0.93591  0  0  0.131195  0  0.98846  0  0  0.134074  0  0.987975  0  0  0.112329  0.129026  0  0.989055  0
H  H14  1  0.35495697  0.20704649  0.53925503  1  0  0.117534  0  0.936001  0  0  0.131237  0  0.988498  0  0  0.134115  0  0.988012  0  0  0.112326  0.129064  0  0.989087  0
H  H15  1  0.85495527  0.79294960  0.96074273  1  0  0.11755  0  0.93599  0  0  0.131246  0  0.988496  0  0  0.134125  0  0.988009  0  0  0.112339  0.129075  0  0.989085  0
H  H16  1  0.52051579  0.70352946  0.29911120  1  0  0.115392  0  0.945696  0  0  0.122437  0  1.01041  0  0  0.126215  0  1.007292  0  0  0.113661  0.119959  0  1.01223  0
H  H17  1  0.02053066  0.29647035  0.20088933  1  0  0.115411  0  0.945692  0  0  0.122415  0  1.010432  0  0  0.126193  0  1.007317  0  0  0.113712  0.119948  0  1.012236  0
H  H18  1  0.47948679  0.29646582  0.70089197  1  0  0.11542  0  0.945709  0  0  0.122491  0  1.010385  0  0  0.126269  0  1.007269  0  0  0.113707  0.12002  0  1.012194  0
H  H19  1  0.97948186  0.70352763  0.79910583  1  0  0.115425  0  0.945658  0  0  0.122452  0  1.010399  0  0  0.126232  0  1.007281  0  0  0.113684  0.119984  0  1.012209  0
H  H20  1  0.98014860  0.86255497  0.65862356  1  0  0.122295  0  0.947428  0  0  0.131276  0  1.008067  0  0  0.134555  0  1.007075  0  0  0.112184  0.128982  0  1.008813  0
H  H21  1  0.48016209  0.13744018  0.84137225  1  0  0.122308  0  0.947293  0  0  0.131304  0  1.007944  0  0  0.134579  0  1.006956  0  0  0.112197  0.129004  0  1.008684  0
H  H22  1  0.01985597  0.13745265  0.34138066  1  0  0.122215  0  0.947401  0  0  0.131304  0  1.007949  0  0  0.134582  0  1.006958  0  0  0.112164  0.129007  0  1.008692  0
H  H23  1  0.51984646  0.86255459  0.15861911  1  0  0.122282  0  0.947354  0  0  0.131327  0  1.007935  0  0  0.134604  0  1.006946  0  0  0.112194  0.129031  0  1.008678  0
H  H24  1  0.91573867  0.02126652  0.80197479  1  0  0.099663  0  0.936333  0  0  0.113059  0  0.990673  0  0  0.115992  0  0.988932  0  0  0.107884  0.110955  0  0.991968  0
H  H25  1  0.41573836  0.97872989  0.69802297  1  0  0.09962  0  0.936361  0  0  0.113027  0  0.990687  0  0  0.115962  0  0.988936  0  0  0.107848  0.110921  0  0.991978  0
H  H26  1  0.08427187  0.97874362  0.19802763  1  0  0.099698  0  0.936362  0  0  0.113129  0  0.990656  0  0  0.116044  0  0.988935  0  0  0.107864  0.111022  0  0.991958  0
H  H27  1  0.58426721  0.02125980  0.30197355  1  0  0.099676  0  0.9364  0  0  0.113074  0  0.990722  0  0  0.116005  0  0.988984  0  0  0.107862  0.110969  0  0.992011  0
H  H28  1  0.69037929  0.15766731  0.57220127  1  0  0.113877  0  0.936799  0  0  0.12647  0  0.991693  0  0  0.129708  0  0.989102  0  0  0.115243  0.124114  0  0.993583  0
H  H29  1  0.19038171  0.84233021  0.92780301  1  0  0.113944  0  0.936743  0  0  0.126504  0  0.991658  0  0  0.129742  0  0.989071  0  0  0.11529  0.124153  0  0.993549  0
H  H30  1  0.30961335  0.84233617  0.42780364  1  0  0.11388  0  0.936766  0  0  0.126412  0  0.991725  0  0  0.129648  0  0.989142  0  0  0.115236  0.124067  0  0.993621  0
H  H31  1  0.80961491  0.15767016  0.07219500  1  0  0.113921  0  0.93679  0  0  0.126459  0  0.991728  0  0  0.129696  0  0.989142  0  0  0.115281  0.12411  0  0.993618  0
H  H32  1  0.74993797  0.99974820  0.43261175  1  0  0.115731  0  0.962262  0  0  0.123259  0  1.027191  0  0  0.126423  0  1.026311  0  0  0.105997  0.121001  0  1.027937  0
H  H33  1  0.24994732  0.00024699  0.06739082  1  0  0.115655  0  0.962199  0  0  0.12316  0  1.027185  0  0  0.126326  0  1.026303  0  0  0.105959  0.120903  0  1.027938  0
H  H34  1  0.25005268  0.00025198  0.56739323  1  0  0.115744  0  0.962225  0  0  0.123227  0  1.027196  0  0  0.12639  0  1.026316  0  0  0.10598  0.120971  0  1.027938  0
H  H35  1  0.75005426  0.99975431  0.93260348  1  0  0.115628  0  0.962236  0  0  0.123146  0  1.027197  0  0  0.126309  0  1.026318  0  0  0.10594  0.120892  0  1.027934  0
H  H36  1  0.69390067  0.32076869  0.13700448  1  0  0.456717  0  0.837004  0  0  0.425637  0  0.899954  0  0  0.436772  0  0.883748  0  0  0.30392  0.417726  0  0.911432  0
H  H37  1  0.19390556  0.67923196  0.36299847  1  0  0.456775  0  0.83693  0  0  0.425719  0  0.899833  0  0  0.436852  0  0.883631  0  0  0.303944  0.417809  0  0.911309  0
H  H38  1  0.30610092  0.67923414  0.86299404  1  0  0.456719  0  0.837011  0  0  0.425625  0  0.899978  0  0  0.436758  0  0.883776  0  0  0.303892  0.417716  0  0.911453  0
H  H39  1  0.80610299  0.32076409  0.63700642  1  0  0.456687  0  0.837056  0  0  0.425581  0  0.900046  0  0  0.436716  0  0.883842  0  0  0.303848  0.41767  0  0.911524  0
H  H40  1  0.56127223  0.30001335  0.06662277  1  0  0.441851  0  0.833113  0  0  0.411754  0  0.901101  0  0  0.420999  0  0.887527  0  0  0.319533  0.405209  0  0.910697  0
H  H41  1  0.06126874  0.69996854  0.43337729  1  0  0.441889  0  0.833101  0  0  0.411757  0  0.901122  0  0  0.421013  0  0.887529  0  0  0.319545  0.405212  0  0.91072  0
H  H42  1  0.43873035  0.69999196  0.93337550  1  0  0.44189  0  0.833101  0  0  0.4118  0  0.901046  0  0  0.421043  0  0.887477  0  0  0.31952  0.405255  0  0.910643  0
H  H43  1  0.93872986  0.30000220  0.56661834  1  0  0.441874  0  0.833068  0  0  0.411784  0  0.90106  0  0  0.421028  0  0.887488  0  0  0.319533  0.405238  0  0.910657  0
H  H44  1  0.57493917  0.49079724  0.74771295  1  0  0.454907  0  0.806283  0  0  0.428727  0  0.872426  0  0  0.438188  0  0.858458  0  0  0.321876  0.421846  0  0.882639  0
H  H45  1  0.07490877  0.50918035  0.75227390  1  0  0.454948  0  0.806161  0  0  0.428777  0  0.872334  0  0  0.438238  0  0.858367  0  0  0.32193  0.421898  0  0.882528  0
H  H46  1  0.42501768  0.50921759  0.25229904  1  0  0.454945  0  0.806171  0  0  0.428794  0  0.872284  0  0  0.438253  0  0.858321  0  0  0.321909  0.421915  0  0.882469  0
H  H47  1  0.92500633  0.49077159  0.24768577  1  0  0.454916  0  0.806233  0  0  0.428774  0  0.872305  0  0  0.438232  0  0.858344  0  0  0.321928  0.421897  0  0.882496  0
H  H48  1  0.70813116  0.55637652  0.76744935  1  0  0.424213  0  0.853703  0  0  0.399574  0  0.921723  0  0  0.406524  0  0.912091  0  0  0.312161  0.394646  0  0.927626  0
H  H49  1  0.20813023  0.44364203  0.73257317  1  0  0.42419  0  0.853785  0  0  0.399541  0  0.921778  0  0  0.406494  0  0.91214  0  0  0.31213  0.394611  0  0.927733  0
H  H50  1  0.29183365  0.44362971  0.23254521  1  0  0.424184  0  0.8538  0  0  0.399583  0  0.921673  0  0  0.406535  0  0.912037  0  0  0.312238  0.394654  0  0.927607  0
H  H51  1  0.79183557  0.55637443  0.26746959  1  0  0.424229  0  0.853692  0  0  0.399619  0  0.92163  0  0  0.40657  0  0.911994  0  0  0.312255  0.394689  0  0.927535  0
C  C52  1  0.62080471  0.62940841  0.10156400  1  0  0.74668  0  3.854204  0  0  0.698671  0  4.145622  0  0  0.735668  0  4.132474  0  0  0.242954  0.673414  0  4.153911  0
C  C53  1  0.12081381  0.37059112  0.39843583  1  0  0.74671  0  3.854142  0  0  0.69865  0  4.145671  0  0  0.735653  0  4.132515  0  0  0.242925  0.673393  0  4.15395  0
C  C54  1  0.37918694  0.37059843  0.89843849  1  0  0.746519  0  3.854323  0  0  0.698501  0  4.145743  0  0  0.735495  0  4.132605  0  0  0.242835  0.673247  0  4.154026  0
C  C55  1  0.87919375  0.62939930  0.60156396  1  0  0.746517  0  3.854374  0  0  0.698529  0  4.14576  0  0  0.735526  0  4.132616  0  0  0.24288  0.673286  0  4.154023  0
C  C56  1  0.69209304  0.69203958  0.19591387  1  0  -0.128694  0  3.803491  0  0  -0.105321  0  4.033416  0  0  -0.11476  0  4.054759  0  0  -0.026716  -0.099397  0  4.01933  0
C  C57  1  0.19210261  0.30796206  0.30408308  1  0  -0.128824  0  3.803611  0  0  -0.105467  0  4.033574  0  0  -0.114911  0  4.054907  0  0  -0.026794  -0.099541  0  4.019481  0
C  C58  1  0.30790656  0.30795991  0.80408629  1  0  -0.128772  0  3.803571  0  0  -0.105342  0  4.033435  0  0  -0.114785  0  4.05479  0  0  -0.02672  -0.099423  0  4.019349  0
C  C59  1  0.80790693  0.69204008  0.69591062  1  0  -0.128793  0  3.803681  0  0  -0.10543  0  4.033604  0  0  -0.11487  0  4.05495  0  0  -0.026811  -0.09951  0  4.019514  0
C  C60  1  0.82710331  0.71705545  0.18846088  1  0  -0.052005  0  3.764261  0  0  -0.074383  0  4.010748  0  0  -0.072138  0  4.029769  0  0  -0.07952  -0.07565  0  3.998029  0
C  C61  1  0.32711536  0.28294764  0.31153916  1  0  -0.052024  0  3.764245  0  0  -0.07441  0  4.010752  0  0  -0.072147  0  4.029766  0  0  -0.079513  -0.075683  0  3.998043  0
C  C62  1  0.17289331  0.28294895  0.81154032  1  0  -0.05198  0  3.764275  0  0  -0.074373  0  4.010727  0  0  -0.072138  0  4.029749  0  0  -0.079546  -0.075648  0  3.998023  0
C  C63  1  0.67289915  0.71706018  0.68845808  1  0  -0.052123  0  3.764415  0  0  -0.074474  0  4.010874  0  0  -0.072232  0  4.029897  0  0  -0.07948  -0.075741  0  3.998159  0
C  C64  1  0.89580100  0.76943227  0.27772764  1  0  -0.17021  0  3.748311  0  0  -0.191041  0  3.998464  0  0  -0.196484  0  4.017693  0  0  -0.097194  -0.187594  0  3.985279  0
C  C65  1  0.39581553  0.23056875  0.22227100  1  0  -0.169953  0  3.748199  0  0  -0.19086  0  3.998285  0  0  -0.196301  0  4.017507  0  0  -0.097035  -0.187419  0  3.985105  0
C  C66  1  0.10419462  0.23057214  0.72227356  1  0  -0.170147  0  3.748333  0  0  -0.190997  0  3.998378  0  0  -0.196439  0  4.017611  0  0  -0.097115  -0.187557  0  3.985202  0
C  C67  1  0.60420395  0.76944241  0.77772460  1  0  -0.170206  0  3.748242  0  0  -0.191069  0  3.998362  0  0  -0.196512  0  4.0176  0  0  -0.097236  -0.187623  0  3.985178  0
C  C68  1  0.83009083  0.79492566  0.37508094  1  0  0.280226  0  3.77834  0  0  0.269263  0  4.03843  0  0  0.281083  0  4.053172  0  0  0.091521  0.261218  0  4.028512  0
C  C69  1  0.33010637  0.20507006  0.12491750  1  0  0.279979  0  3.778186  0  0  0.269231  0  4.037969  0  0  0.281059  0  4.052716  0  0  0.091435  0.261187  0  4.028056  0
C  C70  1  0.16990678  0.20507626  0.62492052  1  0  0.280265  0  3.778293  0  0  0.269504  0  4.038172  0  0  0.281324  0  4.052905  0  0  0.091531  0.261454  0  4.028253  0
C  C71  1  0.66991212  0.79493285  0.87507792  1  0  0.28026  0  3.77823  0  0  0.269462  0  4.038173  0  0  0.281253  0  4.052919  0  0  0.091588  0.261414  0  4.028256  0
C  C72  1  0.69463919  0.77306622  0.38392535  1  0  -0.172574  0  3.728788  0  0  -0.192617  0  3.980587  0  0  -0.198995  0  4.000505  0  0  -0.090839  -0.188396  0  3.967278  0
C  C73  1  0.19465521  0.22692867  0.11607715  1  0  -0.172296  0  3.728879  0  0  -0.192448  0  3.980584  0  0  -0.198829  0  4.000505  0  0  -0.090745  -0.188236  0  3.967286  0
C  C74  1  0.30536240  0.22692744  0.61607669  1  0  -0.172572  0  3.728902  0  0  -0.19269  0  3.980648  0  0  -0.199068  0  4.000565  0  0  -0.090843  -0.18847  0  3.967339  0
C  C75  1  0.80536228  0.77307571  0.88392482  1  0  -0.172541  0  3.728871  0  0  -0.192642  0  3.980599  0  0  -0.199024  0  4.000527  0  0  -0.090796  -0.188421  0  3.967295  0
C  C76  1  0.62572679  0.72264783  0.29365969  1  0  -0.036322  0  3.716333  0  0  -0.059202  0  3.964158  0  0  -0.056251  0  3.981767  0  0  -0.073023  -0.060856  0  3.951821  0
C  C77  1  0.12574228  0.27735253  0.20634103  1  0  -0.036372  0  3.716453  0  0  -0.059182  0  3.964291  0  0  -0.056233  0  3.98191  0  0  -0.07305  -0.060844  0  3.951953  0
C  C78  1  0.37427480  0.27734667  0.70634175  1  0  -0.03632  0  3.716406  0  0  -0.059224  0  3.96423  0  0  -0.05628  0  3.981853  0  0  -0.073049  -0.060885  0  3.951887  0
C  C79  1  0.87427223  0.72265197  0.79365706  1  0  -0.036294  0  3.716264  0  0  -0.059127  0  3.964065  0  0  -0.056184  0  3.981686  0  0  -0.073037  -0.060787  0  3.951727  0
C  C80  1  0.86534550  0.92076584  0.53940248  1  0  0.292708  0  3.767024  0  0  0.277704  0  4.033362  0  0  0.290089  0  4.048536  0  0  0.09189  0.269434  0  4.022941  0
C  C81  1  0.36536037  0.07922940  0.96059807  1  0  0.292576  0  3.767201  0  0  0.27756  0  4.033549  0  0  0.289955  0  4.048728  0  0  0.09183  0.269298  0  4.023125  0
C  C82  1  0.13465012  0.07923768  0.46060087  1  0  0.292506  0  3.767164  0  0  0.277539  0  4.033511  0  0  0.289922  0  4.048682  0  0  0.091808  0.269273  0  4.023082  0
C  C83  1  0.63464619  0.92076849  0.03940018  1  0  0.292518  0  3.767072  0  0  0.277554  0  4.033444  0  0  0.289912  0  4.048618  0  0  0.091778  0.269283  0  4.023028  0
C  C84  1  0.91401754  0.92671286  0.64249504  1  0  -0.17323  0  3.726518  0  0  -0.195955  0  3.986763  0  0  -0.202718  0  4.007299  0  0  -0.097272  -0.191691  0  3.9731  0
C  C85  1  0.41402784  0.07328261  0.85750644  1  0  -0.173214  0  3.726512  0  0  -0.195991  0  3.986792  0  0  -0.202752  0  4.007323  0  0  -0.097299  -0.191722  0  3.973111  0
C  C86  1  0.08598603  0.07329476  0.35750918  1  0  -0.173133  0  3.726242  0  0  -0.195961  0  3.986504  0  0  -0.202725  0  4.007038  0  0  -0.09735  -0.191692  0  3.97283  0
C  C87  1  0.58597772  0.92671284  0.14249052  1  0  -0.173241  0  3.726514  0  0  -0.196037  0  3.98678  0  0  -0.202804  0  4.007327  0  0  -0.097345  -0.191771  0  3.973113  0
C  C88  1  0.87740104  0.01484006  0.72147054  1  0  -0.039107  0  3.735911  0  0  -0.063222  0  3.985846  0  0  -0.06054  0  4.005459  0  0  -0.078533  -0.064767  0  3.972686  0
C  C89  1  0.37740783  0.98515773  0.77852961  1  0  -0.039064  0  3.735922  0  0  -0.063167  0  3.985842  0  0  -0.060485  0  4.005462  0  0  -0.078486  -0.064707  0  3.972669  0
C  C90  1  0.12260552  0.98517091  0.27853204  1  0  -0.039103  0  3.735854  0  0  -0.063243  0  3.985791  0  0  -0.060552  0  4.005413  0  0  -0.078402  -0.064787  0  3.972631  0
C  C91  1  0.62259872  0.01483520  0.22146916  1  0  -0.039055  0  3.735906  0  0  -0.063143  0  3.985814  0  0  -0.060465  0  4.005437  0  0  -0.078426  -0.064684  0  3.972645  0
C  C92  1  0.79609125  0.09883070  0.69744489  1  0  -0.105654  0  3.7905  0  0  -0.084002  0  4.027429  0  0  -0.094516  0  4.050937  0  0  -0.032516  -0.077237  0  4.011606  0
C  C93  1  0.29609840  0.90116585  0.80255458  1  0  -0.105645  0  3.790527  0  0  -0.083998  0  4.02746  0  0  -0.094509  0  4.050964  0  0  -0.032491  -0.077234  0  4.011649  0
C  C94  1  0.20390835  0.90117783  0.30255640  1  0  -0.105828  0  3.790465  0  0  -0.084146  0  4.027437  0  0  -0.094656  0  4.05094  0  0  -0.032518  -0.077387  0  4.01163  0
C  C95  1  0.70390617  0.09882875  0.19744298  1  0  -0.105681  0  3.790433  0  0  -0.084035  0  4.027374  0  0  -0.094549  0  4.050885  0  0  -0.032492  -0.077268  0  4.011556  0
C  C96  1  0.75008043  0.09177086  0.59291458  1  0  -0.031986  0  3.722437  0  0  -0.057178  0  3.968776  0  0  -0.053282  0  3.986364  0  0  -0.076898  -0.059417  0  3.956634  0
C  C97  1  0.25008716  0.90822701  0.90708815  1  0  -0.032111  0  3.722551  0  0  -0.057277  0  3.968903  0  0  -0.053382  0  3.986491  0  0  -0.076896  -0.059516  0  3.956772  0
C  C98  1  0.24991519  0.90823506  0.40709162  1  0  -0.031818  0  3.722265  0  0  -0.056963  0  3.968593  0  0  -0.053069  0  3.986181  0  0  -0.076816  -0.059215  0  3.956473  0
C  C99  1  0.74991642  0.09176932  0.09290666  1  0  -0.03209  0  3.72253  0  0  -0.057231  0  3.968885  0  0  -0.053338  0  3.986475  0  0  -0.076925  -0.059473  0  3.956753  0
C  C100  1  0.78339020  0.00279527  0.51386726  1  0  -0.193031  0  3.752678  0  0  -0.212861  0  4.008497  0  0  -0.219706  0  4.027707  0  0  -0.102033  -0.20837  0  3.995375  0
C  C101  1  0.28340113  0.99720281  0.98613427  1  0  -0.192781  0  3.752641  0  0  -0.212619  0  4.008478  0  0  -0.219467  0  4.02769  0  0  -0.101984  -0.208129  0  3.995356  0
C  C102  1  0.21660244  0.99720974  0.48614187  1  0  -0.193077  0  3.752827  0  0  -0.212853  0  4.008629  0  0  -0.219694  0  4.027833  0  0  -0.102059  -0.208362  0  3.99551  0
C  C103  1  0.71660344  0.00279764  0.01386063  1  0  -0.19282  0  3.752748  0  0  -0.212662  0  4.008594  0  0  -0.219506  0  4.027808  0  0  -0.10199  -0.208172  0  3.99548  0
C  C104  1  0.77165589  0.20010719  0.77797000  1  0  0.631404  0  3.948847  0  0  0.584423  0  4.250774  0  0  0.618579  0  4.242862  0  0  0.193442  0.561582  0  4.254521  0
C  C105  1  0.27166866  0.79988671  0.72203159  1  0  0.631378  0  3.94903  0  0  0.584403  0  4.25094  0  0  0.618559  0  4.243033  0  0  0.193429  0.561563  0  4.254692  0
C  C106  1  0.22834371  0.79989970  0.22203094  1  0  0.631732  0  3.94841  0  0  0.584671  0  4.250429  0  0  0.618824  0  4.242509  0  0  0.193491  0.561833  0  4.254183  0
C  C107  1  0.72834784  0.20010369  0.27796899  1  0  0.631561  0  3.948573  0  0  0.584552  0  4.250535  0  0  0.618707  0  4.242627  0  0  0.193503  0.561712  0  4.254282  0
C  C108  1  0.99369906  0.47548566  0.05115821  1  0  0.541393  0  3.963812  0  0  0.496683  0  4.274735  0  0  0.526202  0  4.26634  0  0  0.212059  0.476563  0  4.280322  0
C  C109  1  0.49370790  0.52451096  0.44883890  1  0  0.541286  0  3.964208  0  0  0.496701  0  4.274968  0  0  0.526226  0  4.266577  0  0  0.212064  0.476583  0  4.280548  0
C  C110  1  0.00629954  0.52452685  0.94881818  1  0  0.541513  0  3.964482  0  0  0.497113  0  4.275019  0  0  0.526638  0  4.266626  0  0  0.212242  0.476989  0  4.280607  0
C  C111  1  0.50629766  0.47546414  0.55117793  1  0  0.541566  0  3.964245  0  0  0.497044  0  4.274895  0  0  0.52657  0  4.266504  0  0  0.212254  0.476919  0  4.280478  0
O  O112  1  0.68967862  0.57266337  0.02812715  1  0  -0.73403  0  2.044851  0  0  -0.693029  0  2.301154  0  0  -0.72017  0  2.290041  0  0  -0.403121  -0.67356  0  2.308498  0
O  O113  1  0.18968370  0.42733316  0.47187499  1  0  -0.73416  0  2.044939  0  0  -0.693085  0  2.301207  0  0  -0.720236  0  2.290078  0  0  -0.403131  -0.673622  0  2.308549  0
O  O114  1  0.31030805  0.42734450  0.97186776  1  0  -0.734024  0  2.044943  0  0  -0.693014  0  2.301292  0  0  -0.720133  0  2.290156  0  0  -0.403078  -0.673551  0  2.308635  0
O  O115  1  0.81031888  0.57265461  0.52813127  1  0  -0.733981  0  2.044881  0  0  -0.692987  0  2.301243  0  0  -0.720115  0  2.290102  0  0  -0.403096  -0.67352  0  2.308577  0
O  O116  1  0.49471282  0.63633489  0.10142513  1  0  -0.739369  0  2.070496  0  0  -0.693696  0  2.33373  0  0  -0.72044  0  2.319841  0  0  -0.418139  -0.674754  0  2.342794  0
O  O117  1  0.99472210  0.36366498  0.39857422  1  0  -0.739259  0  2.070467  0  0  -0.693561  0  2.333696  0  0  -0.720313  0  2.319797  0  0  -0.418085  -0.674625  0  2.342759  0
O  O118  1  0.50527882  0.36367265  0.89858220  1  0  -0.73913  0  2.07048  0  0  -0.693519  0  2.33377  0  0  -0.720271  0  2.319882  0  0  -0.418005  -0.674581  0  2.342835  0
O  O119  1  0.00528346  0.63632473  0.60142152  1  0  -0.739188  0  2.070555  0  0  -0.693545  0  2.33384  0  0  -0.720312  0  2.319949  0  0  -0.418038  -0.674608  0  2.342896  0
O  O120  1  0.90877918  0.83343294  0.46313366  1  0  -0.303531  0  2.36104  0  0  -0.227004  0  2.582065  0  0  -0.246296  0  2.584848  0  0  -0.141634  -0.213371  0  2.579725  0
O  O121  1  0.40879833  0.16655902  0.03686678  1  0  -0.303618  0  2.361181  0  0  -0.227059  0  2.58199  0  0  -0.24636  0  2.58475  0  0  -0.141674  -0.213427  0  2.57964  0
O  O122  1  0.09121843  0.16657213  0.53687314  1  0  -0.303434  0  2.361124  0  0  -0.227101  0  2.582189  0  0  -0.246396  0  2.584992  0  0  -0.141613  -0.213469  0  2.579852  0
O  O123  1  0.59121817  0.83343242  0.96312621  1  0  -0.303488  0  2.361045  0  0  -0.227093  0  2.58206  0  0  -0.246317  0  2.584807  0  0  -0.141604  -0.213455  0  2.579717  0
O  O124  1  0.78625212  0.20297072  0.87716243  1  0  -0.675826  0  1.921986  0  0  -0.638513  0  2.155518  0  0  -0.662434  0  2.145862  0  0  -0.365569  -0.621687  0  2.161441  0
O  O125  1  0.28627816  0.79702159  0.62283940  1  0  -0.675881  0  1.92203  0  0  -0.638566  0  2.155573  0  0  -0.662493  0  2.145908  0  0  -0.365652  -0.621735  0  2.161501  0
O  O126  1  0.21374549  0.79704187  0.12284128  1  0  -0.675957  0  1.921638  0  0  -0.63864  0  2.155271  0  0  -0.662545  0  2.145595  0  0  -0.365659  -0.621812  0  2.161196  0
O  O127  1  0.71374729  0.20295812  0.37715969  1  0  -0.675888  0  1.921706  0  0  -0.638597  0  2.155325  0  0  -0.662504  0  2.145637  0  0  -0.365655  -0.621764  0  2.161242  0
O  O128  1  0.73962190  0.28890349  0.74511896  1  0  -0.724172  0  2.053144  0  0  -0.673854  0  2.294484  0  0  -0.699602  0  2.282803  0  0  -0.376813  -0.655422  0  2.301016  0
O  O129  1  0.23962083  0.71109439  0.75488157  1  0  -0.72414  0  2.0532  0  0  -0.673815  0  2.294536  0  0  -0.699584  0  2.282885  0  0  -0.376785  -0.655375  0  2.301058  0
O  O130  1  0.26037273  0.71110590  0.25488095  1  0  -0.724375  0  2.053127  0  0  -0.674058  0  2.294562  0  0  -0.699794  0  2.28287  0  0  -0.376853  -0.655627  0  2.301097  0
O  O131  1  0.76038175  0.28889929  0.24511969  1  0  -0.724266  0  2.05308  0  0  -0.673933  0  2.294443  0  0  -0.699679  0  2.282759  0  0  -0.376825  -0.6555  0  2.300972  0
O  O132  1  0.90223225  0.40627008  0.05275725  1  0  -0.637197  0  2.035283  0  0  -0.596163  0  2.276266  0  0  -0.619714  0  2.267226  0  0  -0.357338  -0.579628  0  2.282505  0
O  O133  1  0.40224001  0.59372193  0.44724017  1  0  -0.637176  0  2.035416  0  0  -0.596141  0  2.276293  0  0  -0.619703  0  2.267252  0  0  -0.357343  -0.579604  0  2.282522  0
O  O134  1  0.09776238  0.59374554  0.94722604  1  0  -0.637162  0  2.035735  0  0  -0.596128  0  2.276476  0  0  -0.619674  0  2.267431  0  0  -0.357303  -0.57961  0  2.282737  0
O  O135  1  0.59776257  0.40625082  0.55277227  1  0  -0.637154  0  2.035716  0  0  -0.596098  0  2.276506  0  0  -0.619653  0  2.267463  0  0  -0.357326  -0.579574  0  2.28276  0
O  O136  1  0.07567476  0.50974554  0.12582153  1  0  -0.666756  0  2.010639  0  0  -0.625135  0  2.250282  0  0  -0.6494  0  2.241542  0  0  -0.364662  -0.608101  0  2.256217  0
O  O137  1  0.57568523  0.49024803  0.37417613  1  0  -0.666709  0  2.011069  0  0  -0.62508  0  2.250554  0  0  -0.649355  0  2.241813  0  0  -0.364633  -0.608044  0  2.256488  0
O  O138  1  0.92432484  0.49025875  0.87415390  1  0  -0.666824  0  2.010963  0  0  -0.625383  0  2.250649  0  0  -0.649647  0  2.241874  0  0  -0.364623  -0.608337  0  2.256582  0
O  O139  1  0.42432033  0.50972956  0.62584046  1  0  -0.666846  0  2.010853  0  0  -0.625301  0  2.250479  0  0  -0.64959  0  2.241739  0  0  -0.364661  -0.60826  0  2.256412  0
O  O140  1  0.64338721  0.34220861  0.07669460  1  0  -0.903918  0  1.865389  0  0  -0.862743  0  2.062923  0  0  -0.881623  0  2.030328  0  0  -0.643599  -0.849009  0  2.085819  0
O  O141  1  0.14340132  0.65779412  0.42331340  1  0  -0.90401  0  1.865246  0  0  -0.862805  0  2.062725  0  0  -0.881699  0  2.03012  0  0  -0.643629  -0.849068  0  2.085625  0
O  O142  1  0.35661438  0.65779912  0.92330574  1  0  -0.904012  0  1.865425  0  0  -0.862799  0  2.062944  0  0  -0.881676  0  2.030354  0  0  -0.643569  -0.849063  0  2.085838  0
O  O143  1  0.85661716  0.34220022  0.57669425  1  0  -0.903977  0  1.8654  0  0  -0.862752  0  2.062973  0  0  -0.881641  0  2.030375  0  0  -0.643552  -0.849018  0  2.085868  0
O  O144  1  0.64622575  0.51186328  0.79966244  1  0  -0.864678  0  1.891975  0  0  -0.826712  0  2.092643  0  0  -0.843948  0  2.065008  0  0  -0.621559  -0.814251  0  2.111318  0
O  O145  1  0.14622417  0.48813563  0.70034275  1  0  -0.864655  0  1.891976  0  0  -0.82666  0  2.092624  0  0  -0.843908  0  2.064992  0  0  -0.621564  -0.814199  0  2.111318  0
O  O146  1  0.35374203  0.48814609  0.20033825  1  0  -0.86472  0  1.892038  0  0  -0.826729  0  2.092728  0  0  -0.843984  0  2.065148  0  0  -0.621628  -0.814272  0  2.111408  0
O  O147  1  0.85375356  0.51185868  0.29966567  1  0  -0.864743  0  1.891966  0  0  -0.82675  0  2.092658  0  0  -0.844013  0  2.065075  0  0  -0.621676  -0.814292  0  2.111322  0
