# generated using pymatgen
data_ZnH9C12N3O4
_symmetry_space_group_name_H-M   'P 1'
_cell_length_a   13.18269998
_cell_length_b   13.65877835
_cell_length_c   20.34858040
_cell_angle_alpha   89.99991672
_cell_angle_beta   90.00056914
_cell_angle_gamma   90.00000505
_symmetry_Int_Tables_number   1
_chemical_formula_structural   ZnH9C12N3O4
_chemical_formula_sum   'Zn8 H72 C96 N24 O32'
_cell_volume   3663.95678118
_cell_formula_units_Z   8
loop_
 _symmetry_equiv_pos_site_id
 _symmetry_equiv_pos_as_xyz
  1  'x, y, z'
loop_
 _atom_site_type_symbol
 _atom_site_label
 _atom_site_symmetry_multiplicity
 _atom_site_fract_x
 _atom_site_fract_y
 _atom_site_fract_z
 _atom_site_occupancy
 _atom_site_pbe_bader_charge
 _atom_site_pbe_bader_spin_density
 _atom_site_pbe_cm5_charge
 _atom_site_pbe_ddec_charge
 _atom_site_pbe_ddec_spin_density
 _atom_site_pbe_ddec_sum_bond_order
 _atom_site_pbe_magmom
Zn  Zn0  1  0.16415462  0.42927379  0.30737115  1  1.321617  0  0.685498  0.871085  0  2.352654  0
Zn  Zn1  1  0.33584783  0.07072729  0.80736941  1  1.320702  0  0.685517  0.871129  0  2.352747  0
Zn  Zn2  1  0.33584927  0.92927564  0.69262683  1  1.321715  0  0.685581  0.871148  0  2.35267  0
Zn  Zn3  1  0.16415148  0.57072507  0.19263040  1  1.320786  0  0.685577  0.871143  0  2.352673  0
Zn  Zn4  1  0.83584471  0.57072676  0.69262765  1  1.321598  0  0.685516  0.871176  0  2.352745  0
Zn  Zn5  1  0.66415150  0.92927546  0.19262889  1  1.321744  0  0.685646  0.871271  0  2.352524  0
Zn  Zn6  1  0.66415840  0.07072564  0.30737245  1  1.320667  0  0.685539  0.87127  0  2.352676  0
Zn  Zn7  1  0.83584481  0.42927767  0.80737233  1  1.320771  0  0.685609  0.871255  0  2.352527  0
H  H8  1  0.42187084  0.75048193  0.26103149  1  0.119191  0  0.117889  0.133943  0  0.986217  0
H  H9  1  0.07813172  0.74953035  0.76103135  1  0.119211  0  0.117867  0.133904  0  0.986197  0
H  H10  1  0.07813532  0.25047915  0.73897109  1  0.119198  0  0.117887  0.133889  0  0.986265  0
H  H11  1  0.42186079  0.24951768  0.23897025  1  0.119191  0  0.117919  0.133929  0  0.986211  0
H  H12  1  0.57815049  0.24949519  0.73897123  1  0.119187  0  0.117942  0.133903  0  0.986255  0
H  H13  1  0.92186989  0.25047752  0.23897088  1  0.119206  0  0.117891  0.133919  0  0.986211  0
H  H14  1  0.92184808  0.74950310  0.26102819  1  0.119103  0  0.117958  0.133963  0  0.986268  0
H  H15  1  0.57814082  0.75048946  0.76103100  1  0.119192  0  0.117928  0.133948  0  0.986242  0
H  H16  1  0.49282205  0.89059530  0.44433142  1  0.072366  0  0.109311  0.120345  0  1.01059  0
H  H17  1  0.00716358  0.60941805  0.94432653  1  0.072759  0  0.109225  0.120192  0  1.010676  0
H  H18  1  0.00717578  0.39060022  0.55567398  1  0.072433  0  0.10928  0.120304  0  1.010573  0
H  H19  1  0.49283422  0.10940945  0.05567225  1  0.072629  0  0.10929  0.120305  0  1.010623  0
H  H20  1  0.50719549  0.10939354  0.55566787  1  0.072763  0  0.109329  0.120392  0  1.010703  0
H  H21  1  0.99283272  0.39058396  0.05566980  1  0.072457  0  0.10927  0.120257  0  1.010627  0
H  H22  1  0.99280990  0.60940033  0.44433071  1  0.072441  0  0.109306  0.120351  0  1.010658  0
H  H23  1  0.50717345  0.89059110  0.94433145  1  0.072367  0  0.109277  0.120291  0  1.010648  0
H  H24  1  0.29568561  0.63744966  0.44096064  1  0.097592  0  0.109892  0.120431  0  1.012687  0
H  H25  1  0.20431286  0.86255710  0.94096367  1  0.097492  0  0.109884  0.120463  0  1.01273  0
H  H26  1  0.20430308  0.13744874  0.55903566  1  0.097689  0  0.109875  0.120365  0  1.012786  0
H  H27  1  0.29568648  0.36254775  0.05903536  1  0.097564  0  0.109881  0.120391  0  1.012726  0
H  H28  1  0.70431296  0.36255088  0.55904306  1  0.097619  0  0.109843  0.120313  0  1.012826  0
H  H29  1  0.79567889  0.13744930  0.05904004  1  0.097515  0  0.109876  0.12045  0  1.012687  0
H  H30  1  0.79568487  0.86255034  0.44095773  1  0.097588  0  0.109842  0.120343  0  1.012776  0
H  H31  1  0.70431740  0.63745207  0.94096196  1  0.097523  0  0.109888  0.120436  0  1.01271  0
H  H32  1  0.35521337  0.98826282  0.50368199  1  0.050301  0  0.105405  0.155826  0  0.977336  0
H  H33  1  0.14478071  0.51173976  0.00367812  1  0.050196  0  0.105421  0.155819  0  0.977292  0
H  H34  1  0.14477461  0.48826495  0.49631839  1  0.050089  0  0.105394  0.155792  0  0.977307  0
H  H35  1  0.35522314  0.01173791  0.99631782  1  0.050162  0  0.105432  0.155857  0  0.977303  0
H  H36  1  0.64478445  0.01173993  0.49631877  1  0.05029  0  0.105419  0.155847  0  0.977326  0
H  H37  1  0.85521862  0.48826005  0.99631822  1  0.050245  0  0.105445  0.155855  0  0.9773  0
H  H38  1  0.85521866  0.51173852  0.50368139  1  0.050228  0  0.105432  0.155843  0  0.977281  0
H  H39  1  0.64478074  0.98826410  0.00367999  1  0.050182  0  0.105416  0.155823  0  0.977303  0
H  H40  1  0.25172361  0.97712559  0.55931798  1  0.118978  0  0.106441  0.166526  0  1.03434  0
H  H41  1  0.24827511  0.52287321  0.05931181  1  0.119174  0  0.106464  0.16654  0  1.034258  0
H  H42  1  0.24826740  0.47713152  0.44068389  1  0.119286  0  0.10643  0.166523  0  1.034251  0
H  H43  1  0.25172875  0.02287147  0.94068411  1  0.119311  0  0.106458  0.166572  0  1.034288  0
H  H44  1  0.74827875  0.02286983  0.44068475  1  0.119018  0  0.106441  0.166553  0  1.03432  0
H  H45  1  0.75172346  0.47712734  0.94068453  1  0.119055  0  0.106432  0.166489  0  1.034324  0
H  H46  1  0.75172587  0.52287196  0.55931490  1  0.119077  0  0.106425  0.166482  0  1.034343  0
H  H47  1  0.74827665  0.97713201  0.05931320  1  0.119323  0  0.106436  0.166489  0  1.034318  0
H  H48  1  0.24865231  0.91729383  0.48030855  1  0.095733  0  0.102288  0.14673  0  0.987253  0
H  H49  1  0.25134069  0.58270919  0.98030380  1  0.095672  0  0.102318  0.146785  0  0.987222  0
H  H50  1  0.25133717  0.41729958  0.51969337  1  0.095831  0  0.102271  0.146746  0  0.987262  0
H  H51  1  0.24866242  0.08270577  0.01969256  1  0.095841  0  0.102254  0.146747  0  0.987258  0
H  H52  1  0.75134853  0.08270452  0.51969319  1  0.095548  0  0.102281  0.146706  0  0.987239  0
H  H53  1  0.74865712  0.41729502  0.01969352  1  0.095735  0  0.102326  0.14679  0  0.987168  0
H  H54  1  0.74865382  0.58269950  0.48030395  1  0.095541  0  0.102279  0.14673  0  0.98718  0
H  H55  1  0.75134222  0.91729697  0.98030476  1  0.095727  0  0.102287  0.146744  0  0.987184  0
H  H56  1  0.40966149  0.55539391  0.53826465  1  0.04876  0  0.101161  0.14306  0  0.994562  0
H  H57  1  0.09033919  0.94460713  0.03826785  1  0.049026  0  0.101136  0.143017  0  0.994587  0
H  H58  1  0.09034010  0.05539465  0.46173420  1  0.048733  0  0.101128  0.143004  0  0.994603  0
H  H59  1  0.40965712  0.44460756  0.96173159  1  0.048958  0  0.101161  0.143044  0  0.994447  0
H  H60  1  0.59034240  0.44461103  0.46173464  1  0.048601  0  0.101216  0.143143  0  0.994526  0
H  H61  1  0.90965331  0.05539122  0.96173045  1  0.048891  0  0.101153  0.143007  0  0.994502  0
H  H62  1  0.90965999  0.94461029  0.53826755  1  0.048921  0  0.101183  0.143085  0  0.99452  0
H  H63  1  0.59034145  0.55539445  0.03826721  1  0.049001  0  0.101128  0.143017  0  0.994575  0
H  H64  1  0.50468344  0.58591927  0.59717372  1  0.113576  0  0.117343  0.175826  0  0.957033  0
H  H65  1  0.99531738  0.91408168  0.09717564  1  0.113522  0  0.117342  0.175792  0  0.957041  0
H  H66  1  0.99531739  0.08591725  0.40282636  1  0.113566  0  0.11733  0.175785  0  0.957028  0
H  H67  1  0.50467742  0.41408293  0.90282313  1  0.11354  0  0.117328  0.175795  0  0.957002  0
H  H68  1  0.49532575  0.41408127  0.40282508  1  0.113516  0  0.117275  0.175756  0  0.957069  0
H  H69  1  0.00467361  0.08591740  0.90282315  1  0.113456  0  0.117309  0.175769  0  0.956993  0
H  H70  1  0.00467739  0.91407818  0.59717783  1  0.113445  0  0.117314  0.175748  0  0.957038  0
H  H71  1  0.49532191  0.58592128  0.09717664  1  0.113467  0  0.11733  0.175761  0  0.957028  0
H  H72  1  0.51978365  0.61905117  0.51253443  1  0.060961  0  0.101028  0.141711  0  0.994669  0
H  H73  1  0.98021739  0.88094850  0.01253678  1  0.06111  0  0.101067  0.141766  0  0.994634  0
H  H74  1  0.98021719  0.11905043  0.48746513  1  0.060991  0  0.101033  0.141688  0  0.994699  0
H  H75  1  0.51977891  0.38095104  0.98746399  1  0.061088  0  0.10106  0.141763  0  0.994577  0
H  H76  1  0.48022402  0.38094572  0.48746436  1  0.060716  0  0.101078  0.141766  0  0.994565  0
H  H77  1  0.01977663  0.11904838  0.98746348  1  0.06114  0  0.10103  0.141727  0  0.994599  0
H  H78  1  0.01978063  0.88095086  0.51253711  1  0.061093  0  0.101051  0.14176  0  0.99454  0
H  H79  1  0.48021966  0.61905317  0.01253628  1  0.061073  0  0.101054  0.141748  0  0.994536  0
C  C80  1  0.29546766  0.60955932  0.30954854  1  1.605163  0  0.216612  0.5929  0  4.185459  0
C  C81  1  0.20452350  0.89045652  0.80955056  1  1.605393  0  0.216492  0.592725  0  4.185334  0
C  C82  1  0.20453014  0.10954933  0.69044386  1  1.604666  0  0.216486  0.592706  0  4.185625  0
C  C83  1  0.29547433  0.39045127  0.19044697  1  1.604706  0  0.216585  0.592773  0  4.185437  0
C  C84  1  0.70452940  0.39043757  0.69045812  1  1.605247  0  0.216659  0.592994  0  4.185168  0
C  C85  1  0.79547659  0.10954549  0.19044725  1  1.604684  0  0.216547  0.592788  0  4.18543  0
C  C86  1  0.79546616  0.89044097  0.30954560  1  1.605323  0  0.2166  0.592956  0  4.185222  0
C  C87  1  0.70452956  0.60954855  0.80955428  1  1.60465  0  0.216649  0.592943  0  4.185413  0
C  C88  1  0.35397038  0.68539476  0.34729924  1  -0.005851  0  -0.009112  -0.006802  0  3.965727  0
C  C89  1  0.14602590  0.81461880  0.84730046  1  -0.006275  0  -0.009161  -0.007049  0  3.96609  0
C  C90  1  0.14602742  0.18539363  0.65270046  1  -0.005402  0  -0.009136  -0.006922  0  3.965848  0
C  C91  1  0.35396964  0.31460705  0.15269911  1  -0.005425  0  -0.00911  -0.006847  0  3.965799  0
C  C92  1  0.64604033  0.31459627  0.65270447  1  -0.005517  0  -0.009128  -0.006951  0  3.965717  0
C  C93  1  0.85397267  0.18539127  0.15270178  1  -0.005417  0  -0.009142  -0.006928  0  3.965942  0
C  C94  1  0.85396432  0.81460033  0.34729686  1  -0.005962  0  -0.009083  -0.00688  0  3.965876  0
C  C95  1  0.64603121  0.68539716  0.84729919  1  -0.005292  0  -0.009144  -0.00686  0  3.965848  0
C  C96  1  0.41396391  0.75396169  0.31426614  1  0.116399  0  -0.061042  -0.087627  0  3.875034  0
C  C97  1  0.08603111  0.74605121  0.81426507  1  0.116804  0  -0.060957  -0.08739  0  3.875053  0
C  C98  1  0.08603845  0.25395975  0.68573497  1  0.11636  0  -0.061  -0.087429  0  3.875093  0
C  C99  1  0.41396215  0.24604012  0.18573260  1  0.116474  0  -0.061021  -0.087479  0  3.87524  0
C  C100  1  0.58605286  0.24601982  0.68573561  1  0.116582  0  -0.06109  -0.087486  0  3.87484  0
C  C101  1  0.91396670  0.25395593  0.18573373  1  0.116522  0  -0.06106  -0.087548  0  3.875257  0
C  C102  1  0.91394950  0.74603055  0.31426235  1  0.116508  0  -0.061124  -0.087658  0  3.875043  0
C  C103  1  0.58604249  0.75396409  0.81426668  1  0.116197  0  -0.061072  -0.087602  0  3.875156  0
C  C104  1  0.46413752  0.82730862  0.34939009  1  -0.070452  0  -0.0097  -0.006046  0  3.962939  0
C  C105  1  0.03585652  0.67270493  0.84938729  1  -0.070781  0  -0.009782  -0.006168  0  3.9629  0
C  C106  1  0.03586334  0.32730822  0.65061291  1  -0.070476  0  -0.009745  -0.006114  0  3.962922  0
C  C107  1  0.46414128  0.17269759  0.15061241  1  -0.070615  0  -0.009752  -0.006174  0  3.963148  0
C  C108  1  0.53587850  0.17267801  0.65061018  1  -0.070337  0  -0.009791  -0.006015  0  3.962972  0
C  C109  1  0.96414432  0.32729855  0.15061150  1  -0.070749  0  -0.009716  -0.006072  0  3.962948  0
C  C110  1  0.96412613  0.67268354  0.34938883  1  -0.07037  0  -0.009811  -0.005995  0  3.962769  0
C  C111  1  0.53586184  0.82730809  0.84938982  1  -0.070311  0  -0.009705  -0.006073  0  3.962891  0
C  C112  1  0.45337848  0.83288299  0.41760808  1  0.017115  0  -0.080147  -0.178608  0  3.953337  0
C  C113  1  0.04661053  0.66713042  0.91760683  1  0.016669  0  -0.080022  -0.178242  0  3.953212  0
C  C114  1  0.04662010  0.33288566  0.58239590  1  0.016976  0  -0.0801  -0.178551  0  3.953382  0
C  C115  1  0.45338651  0.16712102  0.08239337  1  0.01685  0  -0.080135  -0.178567  0  3.953243  0
C  C116  1  0.54663374  0.16710585  0.58239170  1  0.01654  0  -0.080074  -0.178684  0  3.953537  0
C  C117  1  0.95338804  0.33287086  0.08239245  1  0.016902  0  -0.080064  -0.178353  0  3.95328  0
C  C118  1  0.95337089  0.66711196  0.41760634  1  0.01704  0  -0.080054  -0.178592  0  3.953418  0
C  C119  1  0.54661888  0.83288026  0.91760837  1  0.017081  0  -0.080118  -0.178551  0  3.953417  0
C  C120  1  0.39319986  0.76441929  0.45016744  1  0.26713  0  0.082655  0.163009  0  4.068264  0
C  C121  1  0.10679421  0.73558893  0.95016602  1  0.26675  0  0.082665  0.162818  0  4.068548  0
C  C122  1  0.10679416  0.26442277  0.54983366  1  0.267171  0  0.082654  0.162911  0  4.068391  0
C  C123  1  0.39320361  0.23558106  0.04983313  1  0.267173  0  0.082728  0.163115  0  4.068204  0
C  C124  1  0.60680934  0.23557541  0.54983283  1  0.266911  0  0.082606  0.162971  0  4.068313  0
C  C125  1  0.89320361  0.26441382  0.04983326  1  0.267114  0  0.082669  0.162826  0  4.068532  0
C  C126  1  0.89319530  0.73557925  0.45016612  1  0.266728  0  0.082577  0.162895  0  4.068325  0
C  C127  1  0.60679952  0.76442022  0.95016763  1  0.267138  0  0.082621  0.162964  0  4.068259  0
C  C128  1  0.34383868  0.69020624  0.41566663  1  -0.040764  0  -0.080627  -0.179765  0  3.947132  0
C  C129  1  0.15615864  0.80980278  0.91566693  1  -0.040246  0  -0.080642  -0.179762  0  3.947514  0
C  C130  1  0.15615533  0.19020599  0.58433208  1  -0.040793  0  -0.080627  -0.179678  0  3.947246  0
C  C131  1  0.34383917  0.30979337  0.08433166  1  -0.040773  0  -0.080706  -0.17985  0  3.947301  0
C  C132  1  0.65616975  0.30978918  0.58433708  1  -0.040666  0  -0.080569  -0.179609  0  3.947254  0
C  C133  1  0.84383689  0.19020363  0.08433383  1  -0.040558  0  -0.08065  -0.179794  0  3.947311  0
C  C134  1  0.84383338  0.80979236  0.41566425  1  -0.040322  0  -0.080602  -0.17968  0  3.947278  0
C  C135  1  0.65616471  0.69020572  0.91566763  1  -0.040754  0  -0.080648  -0.17982  0  3.947079  0
C  C136  1  0.53178804  0.89933853  0.31477852  1  1.599123  0  0.214137  0.589472  0  4.188954  0
C  C137  1  0.96820547  0.60067074  0.81477614  1  1.599024  0  0.214239  0.589655  0  4.189236  0
C  C138  1  0.96820751  0.39933516  0.68522617  1  1.598908  0  0.214221  0.589615  0  4.188966  0
C  C139  1  0.53179991  0.10066988  0.18522344  1  1.598919  0  0.214159  0.58964  0  4.189287  0
C  C140  1  0.46821660  0.10064811  0.68521388  1  1.599096  0  0.213996  0.589252  0  4.189358  0
C  C141  1  0.03180068  0.39932688  0.18522315  1  1.599421  0  0.214075  0.589382  0  4.189296  0
C  C142  1  0.03178120  0.60065001  0.31477951  1  1.599363  0  0.214116  0.589489  0  4.189102  0
C  C143  1  0.46820549  0.89933287  0.81477437  1  1.599509  0  0.21411  0.589471  0  4.189079  0
C  C144  1  0.34218302  0.85019844  0.55319751  1  0.993742  0  0.236051  0.345063  0  3.940165  0
C  C145  1  0.15781560  0.64980184  0.05319457  1  0.993651  0  0.236037  0.345001  0  3.940099  0
C  C146  1  0.15781404  0.35020068  0.44680350  1  0.993553  0  0.2361  0.345049  0  3.940227  0
C  C147  1  0.34218372  0.14980083  0.94680320  1  0.993466  0  0.236067  0.344985  0  3.940215  0
C  C148  1  0.65782465  0.14980357  0.44680374  1  0.993644  0  0.236101  0.345107  0  3.940026  0
C  C149  1  0.84218221  0.35019798  0.94680423  1  0.993663  0  0.236087  0.345016  0  3.940017  0
C  C150  1  0.84217771  0.64980279  0.55319431  1  0.993632  0  0.236101  0.345008  0  3.940126  0
C  C151  1  0.65781865  0.85020119  0.05319510  1  0.993666  0  0.23608  0.345011  0  3.940107  0
C  C152  1  0.41511432  0.70645351  0.56742387  1  0.95814  0  0.223935  0.320197  0  3.985607  0
C  C153  1  0.08488529  0.79354674  0.06742523  1  0.958756  0  0.223978  0.32023  0  3.98559  0
C  C154  1  0.08488501  0.20645431  0.43257679  1  0.958293  0  0.223924  0.320047  0  3.985625  0
C  C155  1  0.41511253  0.29354942  0.93257584  1  0.958302  0  0.223988  0.320239  0  3.985478  0
C  C156  1  0.58489791  0.29354997  0.43257787  1  0.958613  0  0.223998  0.320261  0  3.985421  0
C  C157  1  0.91510797  0.20645088  0.93257553  1  0.958594  0  0.224018  0.320301  0  3.98544  0
C  C158  1  0.91510749  0.79354990  0.56742250  1  0.958545  0  0.223982  0.320197  0  3.985543  0
C  C159  1  0.58489135  0.70645332  0.06742394  1  0.958584  0  0.223946  0.320078  0  3.985632  0
C  C160  1  0.29657833  0.93810018  0.52222563  1  -0.084573  0  -0.228161  -0.474747  0  3.948896  0
C  C161  1  0.20341831  0.56190163  0.02222208  1  -0.084564  0  -0.228208  -0.474771  0  3.948888  0
C  C162  1  0.20341419  0.43810383  0.47777480  1  -0.084683  0  -0.228096  -0.474665  0  3.948763  0
C  C163  1  0.29658555  0.06189908  0.97777381  1  -0.084674  0  -0.228178  -0.474824  0  3.948952  0
C  C164  1  0.70342404  0.06189890  0.47777513  1  -0.084436  0  -0.22817  -0.474782  0  3.9489  0
C  C165  1  0.79658102  0.43809965  0.97777573  1  -0.08459  0  -0.228205  -0.474749  0  3.948833  0
C  C166  1  0.79657907  0.56189892  0.52222350  1  -0.084436  0  -0.228148  -0.474686  0  3.948809  0
C  C167  1  0.70341985  0.93810293  0.02222351  1  -0.084888  0  -0.228121  -0.47465  0  3.948769  0
C  C168  1  0.46512520  0.61142892  0.55299359  1  -0.059029  0  -0.221086  -0.453229  0  3.947288  0
C  C169  1  0.03487646  0.88857209  0.05299649  1  -0.059603  0  -0.221083  -0.453174  0  3.947294  0
C  C170  1  0.03487639  0.11142749  0.44700569  1  -0.059251  0  -0.221033  -0.453048  0  3.947259  0
C  C171  1  0.46511985  0.38857328  0.94700349  1  -0.059334  0  -0.221116  -0.453243  0  3.947099  0
C  C172  1  0.53488475  0.38857382  0.44700570  1  -0.059037  0  -0.221123  -0.453318  0  3.947089  0
C  C173  1  0.96511680  0.11142553  0.94700328  1  -0.05969  0  -0.221061  -0.453124  0  3.946985  0
C  C174  1  0.96511915  0.88857232  0.55299605  1  -0.059642  0  -0.221108  -0.453239  0  3.947131  0
C  C175  1  0.53488100  0.61143020  0.05299628  1  -0.059699  0  -0.221065  -0.453127  0  3.947195  0
N  N176  1  0.35056419  0.83201446  0.61698234  1  -0.771683  0  -0.235409  -0.224663  0  3.458314  0
N  N177  1  0.14943238  0.66798129  0.11698080  1  -0.771359  0  -0.235453  -0.224618  0  3.458145  0
N  N178  1  0.14943742  0.33201538  0.38301918  1  -0.771447  0  -0.235478  -0.224765  0  3.458319  0
N  N179  1  0.35056239  0.16798554  0.88301646  1  -0.771403  0  -0.235431  -0.224657  0  3.458196  0
N  N180  1  0.64944728  0.16798682  0.38301793  1  -0.771417  0  -0.235565  -0.224833  0  3.458174  0
N  N181  1  0.85056089  0.33201706  0.88301898  1  -0.771401  0  -0.235526  -0.224765  0  3.458188  0
N  N182  1  0.85055432  0.66798664  0.61698060  1  -0.77131  0  -0.235539  -0.224767  0  3.458251  0
N  N183  1  0.64943845  0.83201940  0.11698184  1  -0.77144  0  -0.235578  -0.224839  0  3.458223  0
N  N184  1  0.39652980  0.74240542  0.62627557  1  -0.657206  0  -0.227496  -0.245509  0  3.109045  0
N  N185  1  0.10346918  0.75759105  0.12627511  1  -0.657763  0  -0.227514  -0.245567  0  3.109092  0
N  N186  1  0.10347408  0.24240488  0.37372506  1  -0.657306  0  -0.227495  -0.245456  0  3.109039  0
N  N187  1  0.39652560  0.25759605  0.87372304  1  -0.657355  0  -0.227535  -0.245561  0  3.108949  0
N  N188  1  0.60348546  0.25759953  0.37372421  1  -0.657315  0  -0.227478  -0.245498  0  3.109014  0
N  N189  1  0.89652256  0.24240511  0.87372368  1  -0.657378  0  -0.227506  -0.245574  0  3.108979  0
N  N190  1  0.89651843  0.75759713  0.62627472  1  -0.657283  0  -0.22751  -0.245509  0  3.109139  0
N  N191  1  0.60347753  0.74240889  0.12627674  1  -0.657263  0  -0.227446  -0.245397  0  3.108944  0
N  N192  1  0.38209113  0.77186936  0.51990002  1  -1.292973  0  -0.219466  -0.139981  0  3.700061  0
N  N193  1  0.11790775  0.72813392  0.01989969  1  -1.292939  0  -0.219477  -0.139965  0  3.70008  0
N  N194  1  0.11790289  0.27187227  0.48010106  1  -1.292908  0  -0.219452  -0.139782  0  3.699916  0
N  N195  1  0.38209310  0.22813210  0.98009898  1  -1.293169  0  -0.21949  -0.139923  0  3.700048  0
N  N196  1  0.61791806  0.22813265  0.48010024  1  -1.293097  0  -0.219461  -0.139887  0  3.700191  0
N  N197  1  0.88209006  0.27186517  0.98009959  1  -1.29295  0  -0.219453  -0.139871  0  3.69995  0
N  N198  1  0.88208810  0.72813121  0.51989871  1  -1.293068  0  -0.219416  -0.139767  0  3.700054  0
N  N199  1  0.61791230  0.77186918  0.01990031  1  -1.292991  0  -0.219402  -0.139798  0  3.700135  0
O  O200  1  0.27111249  0.53198866  0.34046024  1  -1.173712  0  -0.316647  -0.561179  0  2.342036  0
O  O201  1  0.22887080  0.96802931  0.84046135  1  -1.174142  0  -0.316577  -0.561085  0  2.341986  0
O  O202  1  0.22888455  0.03198972  0.65953666  1  -1.173955  0  -0.316568  -0.561019  0  2.342541  0
O  O203  1  0.27113007  0.46802339  0.15954102  1  -1.174017  0  -0.316693  -0.561126  0  2.342196  0
O  O204  1  0.72888609  0.46801043  0.65954052  1  -1.173641  0  -0.316634  -0.561259  0  2.341831  0
O  O205  1  0.77111867  0.03198808  0.15953941  1  -1.174024  0  -0.316546  -0.561055  0  2.342495  0
O  O206  1  0.77110947  0.96801010  0.34046213  1  -1.173801  0  -0.316634  -0.56125  0  2.341948  0
O  O207  1  0.72887609  0.53198814  0.84045925  1  -1.173849  0  -0.316689  -0.561128  0  2.342454  0
O  O208  1  0.27368563  0.63150717  0.25065492  1  -1.163054  0  -0.3106  -0.534438  0  2.324264  0
O  O209  1  0.22631221  0.86851026  0.75065562  1  -1.162905  0  -0.310579  -0.534366  0  2.324154  0
O  O210  1  0.22631368  0.13150145  0.74934532  1  -1.162749  0  -0.310546  -0.534389  0  2.323884  0
O  O211  1  0.27369168  0.36850049  0.24934390  1  -1.162903  0  -0.310505  -0.534331  0  2.324042  0
O  O212  1  0.72629928  0.36850363  0.74935125  1  -1.163355  0  -0.310619  -0.534425  0  2.324247  0
O  O213  1  0.77370684  0.13149029  0.24935202  1  -1.16278  0  -0.310663  -0.534475  0  2.323701  0
O  O214  1  0.77368944  0.86849983  0.25065298  1  -1.163212  0  -0.310559  -0.534383  0  2.324266  0
O  O215  1  0.72630993  0.63150006  0.75065293  1  -1.162839  0  -0.310576  -0.5345  0  2.323842  0
O  O216  1  0.56095835  0.97295489  0.34811309  1  -1.167793  0  -0.321342  -0.554367  0  2.313843  0
O  O217  1  0.93903264  0.52706456  0.84810912  1  -1.167545  0  -0.321254  -0.554295  0  2.314546  0
O  O218  1  0.93904176  0.47295232  0.65189103  1  -1.16768  0  -0.321353  -0.554364  0  2.313955  0
O  O219  1  0.56096515  0.02705792  0.15189299  1  -1.167664  0  -0.321261  -0.554244  0  2.314352  0
O  O220  1  0.43903795  0.02704859  0.65188079  1  -1.167995  0  -0.321211  -0.554179  0  2.314426  0
O  O221  1  0.06097958  0.47293232  0.15188771  1  -1.167648  0  -0.321149  -0.554123  0  2.31427  0
O  O222  1  0.06095150  0.52704457  0.34811611  1  -1.167906  0  -0.32128  -0.554342  0  2.314084  0
O  O223  1  0.43902356  0.97294337  0.84811613  1  -1.167649  0  -0.321279  -0.554276  0  2.313771  0
O  O224  1  0.55484964  0.87899271  0.25584034  1  -1.168334  0  -0.308874  -0.539277  0  2.34741  0
O  O225  1  0.94515133  0.62101377  0.75583238  1  -1.168303  0  -0.308984  -0.539452  0  2.347143  0
O  O226  1  0.94513985  0.37898555  0.74416191  1  -1.16831  0  -0.30894  -0.539395  0  2.34743  0
O  O227  1  0.55486772  0.12102449  0.24416226  1  -1.168213  0  -0.308952  -0.539524  0  2.34739  0
O  O228  1  0.44515425  0.12099686  0.74415845  1  -1.168233  0  -0.308829  -0.539226  0  2.347257  0
O  O229  1  0.05485180  0.37898532  0.24416444  1  -1.168608  0  -0.308928  -0.539285  0  2.347295  0
O  O230  1  0.05484355  0.62099597  0.25584082  1  -1.168417  0  -0.308876  -0.539341  0  2.347463  0
O  O231  1  0.44515665  0.87899729  0.75583850  1  -1.168853  0  -0.308856  -0.539266  0  2.347667  0
