# generated using pymatgen
data_AgPH19C23IN
_symmetry_space_group_name_H-M   'P 1'
_cell_length_a   9.14225581
_cell_length_b   9.64578884
_cell_length_c   12.96205260
_cell_angle_alpha   105.46151504
_cell_angle_beta   109.31534242
_cell_angle_gamma   92.18755008
_symmetry_Int_Tables_number   1
_chemical_formula_structural   AgPH19C23IN
_chemical_formula_sum   'Ag2 P2 H38 C46 I2 N2'
_cell_volume   1029.59073367
_cell_formula_units_Z   2
loop_
 _symmetry_equiv_pos_site_id
 _symmetry_equiv_pos_as_xyz
  1  'x, y, z'
loop_
 _atom_site_type_symbol
 _atom_site_label
 _atom_site_symmetry_multiplicity
 _atom_site_fract_x
 _atom_site_fract_y
 _atom_site_fract_z
 _atom_site_occupancy
 _atom_site_hle17_bader_spin_density
 _atom_site_hle17_ddec_charge
 _atom_site_hle17_ddec_spin_density
 _atom_site_hle17_ddec_sum_bond_order
 _atom_site_hle17_magmom
 _atom_site_hse06_10hf_bader_spin_density
 _atom_site_hse06_10hf_ddec_charge
 _atom_site_hse06_10hf_ddec_spin_density
 _atom_site_hse06_10hf_ddec_sum_bond_order
 _atom_site_hse06_10hf_magmom
 _atom_site_hse06_bader_spin_density
 _atom_site_hse06_ddec_charge
 _atom_site_hse06_ddec_spin_density
 _atom_site_hse06_ddec_sum_bond_order
 _atom_site_hse06_magmom
 _atom_site_pbe_bader_spin_density
 _atom_site_pbe_cm5_charge
 _atom_site_pbe_ddec_charge
 _atom_site_pbe_ddec_spin_density
 _atom_site_pbe_ddec_sum_bond_order
 _atom_site_pbe_magmom
Ag  Ag0  1  0.04572609  0.98616048  0.89659027  1  0  0.197977  0  2.068168  0  0  0.091731  0  2.589891  0  0  0.108405  0  2.547502  0  0  0.293988  0.080458  0  2.619193  0
Ag  Ag1  1  0.95427393  0.01384167  0.10340775  1  0  0.19798  0  2.068175  0  0  0.091737  0  2.58989  0  0  0.10841  0  2.5475  0  0  0.29399  0.080463  0  2.619183  0
P  P2  1  0.00192553  0.78391437  0.72947758  1  0  0.310252  0  3.720301  0  0  0.259228  0  4.178282  0  0  0.270689  0  4.173149  0  0  -0.016144  0.251339  0  4.18168  0
P  P3  1  0.99807432  0.21608671  0.27052174  1  0  0.310228  0  3.720316  0  0  0.259212  0  4.178301  0  0  0.270669  0  4.17316  0  0  -0.016139  0.251321  0  4.181694  0
H  H4  1  0.05184832  0.30633919  0.86444695  1  0  0.067824  0  0.96966  0  0  0.073365  0  1.041222  0  0  0.075619  0  1.040045  0  0  0.103434  0.071668  0  1.042027  0
H  H5  1  0.94815153  0.69366188  0.13555159  1  0  0.067825  0  0.969635  0  0  0.073365  0  1.041207  0  0  0.075619  0  1.040032  0  0  0.103433  0.071671  0  1.042009  0
H  H6  1  0.23431959  0.52574245  0.90507051  1  0  0.101578  0  0.973453  0  0  0.110034  0  1.039776  0  0  0.112845  0  1.03933  0  0  0.101938  0.107553  0  1.041424  0
H  H7  1  0.76568342  0.47425646  0.09492912  1  0  0.101567  0  0.973417  0  0  0.110021  0  1.03974  0  0  0.112832  0  1.039292  0  0  0.101941  0.107532  0  1.041397  0
H  H8  1  0.61072730  0.30034042  0.05706609  1  0  0.100044  0  0.990834  0  0  0.108826  0  1.055898  0  0  0.111569  0  1.055618  0  0  0.095651  0.106809  0  1.056293  0
H  H9  1  0.38927472  0.69965959  0.94293506  1  0  0.100056  0  0.990886  0  0  0.10884  0  1.055954  0  0  0.111593  0  1.055646  0  0  0.095675  0.106824  0  1.05635  0
H  H10  1  0.41203246  0.09179780  0.00826256  1  0  0.069757  0  0.956953  0  0  0.076439  0  1.027987  0  0  0.078879  0  1.026043  0  0  0.102639  0.074597  0  1.029717  0
H  H11  1  0.58796707  0.90820114  0.99173858  1  0  0.069714  0  0.957018  0  0  0.076396  0  1.028059  0  0  0.078835  0  1.026115  0  0  0.102636  0.074556  0  1.029788  0
H  H12  1  0.29417186  0.94596448  0.77102740  1  0  0.081648  0  0.975566  0  0  0.08977  0  1.04664  0  0  0.092499  0  1.045118  0  0  0.093549  0.087565  0  1.048351  0
H  H13  1  0.70582900  0.05403554  0.22897426  1  0  0.081659  0  0.975585  0  0  0.08979  0  1.046642  0  0  0.092522  0  1.045117  0  0  0.093561  0.087586  0  1.048349  0
H  H14  1  0.54620765  0.87899849  0.75384720  1  0  0.078009  0  1.006488  0  0  0.086419  0  1.074645  0  0  0.089692  0  1.07289  0  0  0.079805  0.08399  0  1.07604  0
H  H15  1  0.45379320  0.12100153  0.24615446  1  0  0.078024  0  1.006454  0  0  0.086408  0  1.07463  0  0  0.089692  0  1.072865  0  0  0.079792  0.083985  0  1.076018  0
H  H16  1  0.58234126  0.61808581  0.69784631  1  0  0.08447  0  0.997686  0  0  0.093949  0  1.061482  0  0  0.095045  0  1.063761  0  0  0.094053  0.093085  0  1.060011  0
H  H17  1  0.41765960  0.38191421  0.30215535  1  0  0.084404  0  0.997746  0  0  0.093951  0  1.061472  0  0  0.095046  0  1.06375  0  0  0.094052  0.093088  0  1.060004  0
H  H18  1  0.36621400  0.42567360  0.66158941  1  0  0.084511  0  0.970434  0  0  0.093926  0  1.03369  0  0  0.095845  0  1.034596  0  0  0.096356  0.092461  0  1.033307  0
H  H19  1  0.63378570  0.57432642  0.33841198  1  0  0.084467  0  0.970503  0  0  0.09392  0  1.033715  0  0  0.09584  0  1.034622  0  0  0.096357  0.092459  0  1.033329  0
H  H20  1  0.11170762  0.49272979  0.67199095  1  0  0.084968  0  0.984922  0  0  0.094841  0  1.050553  0  0  0.096675  0  1.051558  0  0  0.09508  0.093535  0  1.049894  0
H  H21  1  0.88829207  0.50727022  0.32800889  1  0  0.084984  0  0.98488  0  0  0.094854  0  1.050517  0  0  0.096688  0  1.051522  0  0  0.095078  0.09355  0  1.049854  0
H  H22  1  0.95311201  0.66850425  0.90164886  1  0  0.080349  0  1.000109  0  0  0.084488  0  1.078896  0  0  0.087836  0  1.07683  0  0  0.082507  0.082233  0  1.080239  0
H  H23  1  0.04688520  0.33149467  0.09835019  1  0  0.080374  0  1.000098  0  0  0.084544  0  1.07886  0  0  0.087873  0  1.076809  0  0  0.082527  0.082285  0  1.08021  0
H  H24  1  0.81057819  0.43586302  0.89104160  1  0  0.081998  0  0.984495  0  0  0.090893  0  1.049517  0  0  0.093326  0  1.04954  0  0  0.087552  0.088654  0  1.050587  0
H  H25  1  0.18941935  0.56413807  0.10895795  1  0  0.081965  0  0.984553  0  0  0.090856  0  1.049575  0  0  0.093289  0  1.049598  0  0  0.087561  0.088612  0  1.050652  0
H  H26  1  0.66314331  0.25790260  0.70402687  1  0  0.080991  0  0.973688  0  0  0.088639  0  1.04057  0  0  0.091618  0  1.039091  0  0  0.089314  0.086873  0  1.040965  0
H  H27  1  0.33685389  0.74209631  0.29597142  1  0  0.081024  0  0.973668  0  0  0.08869  0  1.040534  0  0  0.09167  0  1.039053  0  0  0.089323  0.086918  0  1.040932  0
H  H28  1  0.65242790  0.31184989  0.52278169  1  0  0.086119  0  0.960406  0  0  0.098039  0  1.019007  0  0  0.100166  0  1.019471  0  0  0.097744  0.09664  0  1.018529  0
H  H29  1  0.34757163  0.68814903  0.47721790  1  0  0.086126  0  0.96039  0  0  0.098043  0  1.018996  0  0  0.100171  0  1.019459  0  0  0.097742  0.09664  0  1.01852  0
H  H30  1  0.79795151  0.53925301  0.53279698  1  0  0.085395  0  0.992738  0  0  0.094798  0  1.058762  0  0  0.096437  0  1.060068  0  0  0.095109  0.093695  0  1.057708  0
H  H31  1  0.20204670  0.46074482  0.46720132  1  0  0.085378  0  0.992759  0  0  0.094774  0  1.058788  0  0  0.096416  0  1.060094  0  0  0.095074  0.093667  0  1.05774  0
H  H32  1  0.71345055  0.89478288  0.64168768  1  0  0.084136  0  0.969649  0  0  0.092512  0  1.038914  0  0  0.095487  0  1.03725  0  0  0.092689  0.090263  0  1.040141  0
H  H33  1  0.28654897  0.10521602  0.35831037  1  0  0.084151  0  0.969681  0  0  0.092534  0  1.038931  0  0  0.095509  0  1.037268  0  0  0.092687  0.090287  0  1.040152  0
H  H34  1  0.56768265  0.93095792  0.45327051  1  0  0.080468  0  0.960237  0  0  0.095169  0  1.015105  0  0  0.097603  0  1.014187  0  0  0.097873  0.093359  0  1.015857  0
H  H35  1  0.43231671  0.06903990  0.54672729  1  0  0.080443  0  0.960253  0  0  0.095134  0  1.015131  0  0  0.097567  0  1.01421  0  0  0.097875  0.093325  0  1.015882  0
H  H36  1  0.68027972  0.87906184  0.29897154  1  0  0.084693  0  0.961205  0  0  0.097247  0  1.019794  0  0  0.099794  0  1.018866  0  0  0.097716  0.095369  0  1.020591  0
H  H37  1  0.31972097  0.12093707  0.70102755  1  0  0.084684  0  0.961198  0  0  0.097302  0  1.019718  0  0  0.099849  0  1.018789  0  0  0.097734  0.095415  0  1.020527  0
H  H38  1  0.94370324  0.79789163  0.33537941  1  0  0.085309  0  0.95757  0  0  0.097806  0  1.016648  0  0  0.100135  0  1.016462  0  0  0.099633  0.09616  0  1.01688  0
H  H39  1  0.05629628  0.20210727  0.66461864  1  0  0.085336  0  0.957541  0  0  0.097827  0  1.016629  0  0  0.100156  0  1.016444  0  0  0.099645  0.096183  0  1.016867  0
H  H40  1  0.08446132  0.75314741  0.51958073  1  0  0.086387  0  0.979579  0  0  0.095777  0  1.044715  0  0  0.097631  0  1.0457  0  0  0.096433  0.094466  0  1.043949  0
H  H41  1  0.91553953  0.24685258  0.48041783  1  0  0.086392  0  0.979599  0  0  0.095787  0  1.044722  0  0  0.097638  0  1.04571  0  0  0.096444  0.094475  0  1.043963  0
C  C42  1  0.17762865  0.30936284  0.90577831  1  0  0.110389  0  3.721466  0  0  0.085564  0  3.967156  0  0  0.090682  0  3.985841  0  0  0.037285  0.082087  0  3.954577  0
C  C43  1  0.82237121  0.69063824  0.09422101  1  0  0.110359  0  3.721539  0  0  0.085514  0  3.967249  0  0  0.090634  0  3.985933  0  0  0.03726  0.082032  0  3.954666  0
C  C44  1  0.28124908  0.43258305  0.92966634  1  0  -0.146961  0  3.698683  0  0  -0.163229  0  3.940186  0  0  -0.169743  0  3.961415  0  0  -0.079802  -0.159482  0  3.927542  0
C  C45  1  0.71875079  0.56741805  0.07033530  1  0  -0.146988  0  3.698478  0  0  -0.163219  0  3.939981  0  0  -0.169732  0  3.961207  0  0  -0.079805  -0.159467  0  3.927341  0
C  C46  1  0.44256977  0.43542545  0.98572689  1  0  0.093037  0  3.730624  0  0  0.105513  0  3.957001  0  0  0.109122  0  3.977704  0  0  0.011725  0.10339  0  3.942973  0
C  C47  1  0.55743026  0.56457674  0.01427499  1  0  0.093231  0  3.730469  0  0  0.105642  0  3.956902  0  0  0.109253  0  3.977605  0  0  0.01179  0.103525  0  3.94287  0
C  C48  1  0.48893994  0.30913553  0.01379216  1  0  -0.142986  0  3.716555  0  0  -0.160669  0  3.957376  0  0  -0.167242  0  3.97957  0  0  -0.082587  -0.156585  0  3.942686  0
C  C49  1  0.51106025  0.69086775  0.98620998  1  0  -0.143122  0  3.716643  0  0  -0.160801  0  3.957498  0  0  -0.167375  0  3.9797  0  0  -0.082657  -0.156722  0  3.942813  0
C  C50  1  0.37769168  0.19010904  0.98592486  1  0  0.118028  0  3.720118  0  0  0.090616  0  3.968292  0  0  0.096095  0  3.987024  0  0  0.038286  0.086774  0  3.956698  0
C  C51  1  0.62230570  0.80989098  0.01407522  1  0  0.118063  0  3.720177  0  0  0.090643  0  3.96835  0  0  0.096121  0  3.987084  0  0  0.038263  0.086802  0  3.956758  0
C  C52  1  0.18501068  0.72403198  0.72022687  1  0  -0.09787  0  3.775812  0  0  -0.057455  0  4.011958  0  0  -0.062793  0  4.03701  0  0  -0.028911  -0.053966  0  3.994777  0
C  C53  1  0.81498902  0.27596804  0.27977452  1  0  -0.097852  0  3.775864  0  0  -0.057469  0  4.012053  0  0  -0.062782  0  4.03707  0  0  -0.028937  -0.053984  0  3.994878  0
C  C54  1  0.30920855  0.83187807  0.74401913  1  0  -0.085003  0  3.757835  0  0  -0.103824  0  4.001888  0  0  -0.105312  0  4.02416  0  0  -0.090335  -0.102471  0  3.98659  0
C  C55  1  0.69079115  0.16812196  0.25598303  1  0  -0.085031  0  3.757944  0  0  -0.103844  0  4.001974  0  0  -0.10534  0  4.024243  0  0  -0.090334  -0.102487  0  3.986674  0
C  C56  1  0.45037622  0.79388259  0.73391673  1  0  -0.07661  0  3.778168  0  0  -0.084736  0  4.016756  0  0  -0.088144  0  4.038282  0  0  -0.096804  -0.082214  0  4.001815  0
C  C57  1  0.54962464  0.20611745  0.26608647  1  0  -0.07663  0  3.778199  0  0  -0.084737  0  4.016809  0  0  -0.088153  0  4.03833  0  0  -0.096829  -0.082221  0  4.00187  0
C  C58  1  0.47115254  0.64765094  0.70393977  1  0  -0.059892  0  3.743656  0  0  -0.071893  0  3.982687  0  0  -0.072285  0  4.003828  0  0  -0.088513  -0.071433  0  3.968226  0
C  C59  1  0.52884816  0.35234800  0.29606241  1  0  -0.059861  0  3.743651  0  0  -0.071927  0  3.982696  0  0  -0.072318  0  4.003838  0  0  -0.088509  -0.071473  0  3.968244  0
C  C60  1  0.35014466  0.53992260  0.68376447  1  0  -0.067961  0  3.758342  0  0  -0.076422  0  4.001634  0  0  -0.078664  0  4.021924  0  0  -0.090924  -0.074683  0  3.987687  0
C  C61  1  0.64985487  0.46007635  0.31623744  1  0  -0.067911  0  3.758317  0  0  -0.076398  0  4.001613  0  0  -0.07864  0  4.021903  0  0  -0.090927  -0.07466  0  3.987669  0
C  C62  1  0.20679653  0.57763881  0.69054380  1  0  -0.086108  0  3.752077  0  0  -0.106647  0  3.994957  0  0  -0.107523  0  4.016096  0  0  -0.090293  -0.105682  0  3.98022  0
C  C63  1  0.79320316  0.42236121  0.30945759  1  0  -0.086108  0  3.752032  0  0  -0.106638  0  3.994929  0  0  -0.10752  0  4.016061  0  0  -0.090255  -0.105673  0  3.980193  0
C  C64  1  0.88694699  0.61790368  0.71787086  1  0  -0.098085  0  3.76181  0  0  -0.056309  0  3.994706  0  0  -0.06213  0  4.019973  0  0  -0.026906  -0.05248  0  3.977436  0
C  C65  1  0.11305270  0.38209632  0.28212898  1  0  -0.098119  0  3.761827  0  0  -0.056343  0  3.994727  0  0  -0.062165  0  4.019991  0  0  -0.026911  -0.052516  0  3.977458  0
C  C66  1  0.88874581  0.58901135  0.81885628  1  0  -0.077563  0  3.738557  0  0  -0.094033  0  3.975397  0  0  -0.095439  0  3.99706  0  0  -0.089118  -0.09286  0  3.960288  0
C  C67  1  0.11125273  0.41098866  0.18114329  1  0  -0.077573  0  3.73854  0  0  -0.094073  0  3.975364  0  0  -0.095463  0  3.997043  0  0  -0.089134  -0.092897  0  3.960258  0
C  C68  1  0.80865630  0.45932548  0.81291531  1  0  -0.072488  0  3.769864  0  0  -0.079862  0  4.007704  0  0  -0.082826  0  4.029853  0  0  -0.095328  -0.077814  0  3.992602  0
C  C69  1  0.19134256  0.54067669  0.18708399  1  0  -0.072388  0  3.769967  0  0  -0.079756  0  4.007812  0  0  -0.08272  0  4.029956  0  0  -0.095315  -0.07771  0  3.992713  0
C  C70  1  0.72473325  0.35868252  0.70689638  1  0  -0.063953  0  3.766197  0  0  -0.076073  0  4.008001  0  0  -0.076684  0  4.028005  0  0  -0.0898  -0.075058  0  3.993294  0
C  C71  1  0.27526512  0.64131640  0.29310217  1  0  -0.064088  0  3.766305  0  0  -0.076235  0  4.008126  0  0  -0.076848  0  4.02813  0  0  -0.089855  -0.075212  0  3.993409  0
C  C72  1  0.71999996  0.38820317  0.60613124  1  0  -0.074537  0  3.763645  0  0  -0.082539  0  4.004427  0  0  -0.085208  0  4.025332  0  0  -0.091297  -0.080665  0  3.989821  0
C  C73  1  0.28000073  0.61179574  0.39386862  1  0  -0.074493  0  3.763556  0  0  -0.082491  0  4.004343  0  0  -0.085161  0  4.02525  0  0  -0.091266  -0.080611  0  3.989726  0
C  C74  1  0.80157335  0.51701056  0.61161437  1  0  -0.078077  0  3.745136  0  0  -0.09767  0  3.985219  0  0  -0.097998  0  4.006095  0  0  -0.08807  -0.096872  0  3.970492  0
C  C75  1  0.19842734  0.48298837  0.38838627  1  0  -0.078045  0  3.745146  0  0  -0.097633  0  3.985215  0  0  -0.097966  0  4.006096  0  0  -0.088052  -0.096836  0  3.970488  0
C  C76  1  0.90649887  0.81693870  0.59190465  1  0  -0.090446  0  3.754414  0  0  -0.049611  0  3.989402  0  0  -0.054886  0  4.014716  0  0  -0.025101  -0.046651  0  3.972658  0
C  C77  1  0.09350214  0.18306238  0.40809494  1  0  -0.090282  0  3.754407  0  0  -0.049462  0  3.989414  0  0  -0.054736  0  4.01473  0  0  -0.025051  -0.046487  0  3.972651  0
C  C78  1  0.76187988  0.87027527  0.57330711  1  0  -0.079647  0  3.751623  0  0  -0.098041  0  3.992512  0  0  -0.099401  0  4.01464  0  0  -0.08827  -0.096699  0  3.977602  0
C  C79  1  0.23812213  0.12972472  0.42669250  1  0  -0.079754  0  3.751719  0  0  -0.098153  0  3.992601  0  0  -0.099515  0  4.014729  0  0  -0.088253  -0.096813  0  3.97768  0
C  C80  1  0.68111240  0.89189498  0.46812661  1  0  -0.076545  0  3.78349  0  0  -0.086429  0  4.026962  0  0  -0.089292  0  4.049131  0  0  -0.093208  -0.084872  0  4.012192  0
C  C81  1  0.31888696  0.10810284  0.53187119  1  0  -0.076446  0  3.783558  0  0  -0.086319  0  4.027048  0  0  -0.089177  0  4.049216  0  0  -0.09323  -0.084768  0  4.012276  0
C  C82  1  0.74494273  0.86394525  0.38150446  1  0  -0.066116  0  3.766092  0  0  -0.081184  0  4.015014  0  0  -0.081826  0  4.035558  0  0  -0.089426  -0.080569  0  4.001208  0
C  C83  1  0.25505779  0.13605258  0.61849438  1  0  -0.066177  0  3.766144  0  0  -0.081298  0  4.01507  0  0  -0.08194  0  4.035615  0  0  -0.089443  -0.08067  0  4.001268  0
C  C84  1  0.89137023  0.81679976  0.40135597  1  0  -0.063821  0  3.764601  0  0  -0.075022  0  4.011075  0  0  -0.077568  0  4.032752  0  0  -0.089628  -0.073285  0  3.99643  0
C  C85  1  0.10863046  0.18319914  0.59864235  1  0  -0.063824  0  3.764626  0  0  -0.075027  0  4.011115  0  0  -0.077573  0  4.032793  0  0  -0.089654  -0.073295  0  3.996479  0
C  C86  1  0.97138862  0.79228911  0.50568997  1  0  -0.073378  0  3.740878  0  0  -0.092956  0  3.981344  0  0  -0.093995  0  4.003653  0  0  -0.085549  -0.09213  0  3.966303  0
C  C87  1  0.02861256  0.20771305  0.49430986  1  0  -0.073464  0  3.741005  0  0  -0.093033  0  3.981451  0  0  -0.094072  0  4.003762  0  0  -0.085579  -0.092211  0  3.966418  0
I  I88  1  0.77905436  0.11907252  0.91113411  1  0  -0.469118  0  1.266776  0  0  -0.403242  0  1.651346  0  0  -0.4223  0  1.623455  0  0  -0.225311  -0.388352  0  1.670842  0
I  I89  1  0.22094516  0.88092639  0.08886471  1  0  -0.469123  0  1.266746  0  0  -0.403237  0  1.651307  0  0  -0.4223  0  1.623425  0  0  -0.225317  -0.388349  0  1.670798  0
N  N90  1  0.22384727  0.18874857  0.93296637  1  0  -0.271209  0  3.269409  0  0  -0.197769  0  3.543306  0  0  -0.212468  0  3.558711  0  0  -0.339048  -0.188223  0  3.53389  0
N  N91  1  0.77614995  0.81125037  0.06703424  1  0  -0.271114  0  3.269441  0  0  -0.197664  0  3.543338  0  0  -0.212359  0  3.558734  0  0  -0.338976  -0.188113  0  3.533919  0
