# generated using pymatgen
data_CuH16C11S4N2Cl
_symmetry_space_group_name_H-M   'P 1'
_cell_length_a   8.82514928
_cell_length_b   9.36228732
_cell_length_c   10.10577154
_cell_angle_alpha   68.61702026
_cell_angle_beta   73.17824026
_cell_angle_gamma   89.11518843
_symmetry_Int_Tables_number   1
_chemical_formula_structural   CuH16C11S4N2Cl
_chemical_formula_sum   'Cu2 H32 C22 S8 N4 Cl2'
_cell_volume   740.41966078
_cell_formula_units_Z   2
loop_
 _symmetry_equiv_pos_site_id
 _symmetry_equiv_pos_as_xyz
  1  'x, y, z'
loop_
 _atom_site_type_symbol
 _atom_site_label
 _atom_site_symmetry_multiplicity
 _atom_site_fract_x
 _atom_site_fract_y
 _atom_site_fract_z
 _atom_site_occupancy
 _atom_site_hle17_bader_spin_density
 _atom_site_hle17_ddec_charge
 _atom_site_hle17_ddec_spin_density
 _atom_site_hle17_ddec_sum_bond_order
 _atom_site_hle17_magmom
 _atom_site_hse06_10hf_bader_spin_density
 _atom_site_hse06_10hf_ddec_charge
 _atom_site_hse06_10hf_ddec_spin_density
 _atom_site_hse06_10hf_ddec_sum_bond_order
 _atom_site_hse06_10hf_magmom
 _atom_site_hse06_bader_spin_density
 _atom_site_hse06_ddec_charge
 _atom_site_hse06_ddec_spin_density
 _atom_site_hse06_ddec_sum_bond_order
 _atom_site_hse06_magmom
 _atom_site_pbe_bader_spin_density
 _atom_site_pbe_cm5_charge
 _atom_site_pbe_ddec_charge
 _atom_site_pbe_ddec_spin_density
 _atom_site_pbe_ddec_sum_bond_order
 _atom_site_pbe_magmom
Cu  Cu0  1  0.83674184  0.49510294  0.53662628  1  0  0.259986  0  2.212442  0  0  0.181686  0  2.726035  0  0  0.18594  0  2.67626  0  0  0.303336  0.181467  0  2.757833  0
Cu  Cu1  1  0.16326728  0.50490319  0.46337010  1  0  0.26001  0  2.212475  0  0  0.181724  0  2.726061  0  0  0.185962  0  2.676282  0  0  0.303358  0.181511  0  2.757854  0
H  H2  1  0.76776012  0.10898136  0.59525886  1  0  0.115027  0  0.94724  0  0  0.125576  0  1.006432  0  0  0.129403  0  1.003587  0  0  0.104625  0.122341  0  1.009642  0
H  H3  1  0.23223152  0.89101777  0.40473570  1  0  0.115104  0  0.947359  0  0  0.1256  0  1.006633  0  0  0.129414  0  1.003783  0  0  0.104631  0.122363  0  1.009835  0
H  H4  1  0.86637831  0.84573869  0.67834047  1  0  0.117458  0  0.977939  0  0  0.126055  0  1.040767  0  0  0.129705  0  1.038754  0  0  0.095606  0.122844  0  1.04369  0
H  H5  1  0.13360545  0.15425123  0.32166625  1  0  0.117428  0  0.978144  0  0  0.126018  0  1.040944  0  0  0.129667  0  1.038933  0  0  0.095568  0.122816  0  1.043853  0
H  H6  1  0.93503214  0.53561372  0.20232577  1  0  0.098765  0  0.994165  0  0  0.112023  0  1.060569  0  0  0.113739  0  1.060117  0  0  0.080591  0.110607  0  1.061199  0
H  H7  1  0.06496906  0.46438432  0.79767549  1  0  0.098765  0  0.994173  0  0  0.112032  0  1.060564  0  0  0.113745  0  1.060112  0  0  0.080604  0.110621  0  1.061179  0
H  H8  1  0.95175163  0.73924013  0.15300353  1  0  0.095226  0  0.976914  0  0  0.102164  0  1.05436  0  0  0.103502  0  1.053506  0  0  0.095773  0.10086  0  1.055538  0
H  H9  1  0.04824874  0.26076137  0.84699677  1  0  0.095227  0  0.97698  0  0  0.102152  0  1.054439  0  0  0.103487  0  1.053582  0  0  0.095762  0.100847  0  1.055618  0
H  H10  1  0.64606856  0.51826715  0.26571010  1  0  0.083021  0  0.979877  0  0  0.091738  0  1.056652  0  0  0.092987  0  1.05698  0  0  0.083253  0.091501  0  1.055285  0
H  H11  1  0.35393343  0.48172630  0.73429548  1  0  0.083058  0  0.979827  0  0  0.09177  0  1.056627  0  0  0.093018  0  1.056956  0  0  0.08326  0.09153  0  1.055264  0
H  H12  1  0.64570706  0.72073468  0.17973624  1  0  0.077729  0  0.995671  0  0  0.087245  0  1.069642  0  0  0.087493  0  1.071674  0  0  0.085403  0.087208  0  1.067753  0
H  H13  1  0.35429119  0.27925759  0.82026777  1  0  0.077709  0  0.99565  0  0  0.087226  0  1.069648  0  0  0.087478  0  1.071687  0  0  0.085421  0.087189  0  1.067759  0
H  H14  1  0.77463642  0.85431676  0.45962652  1  0  0.08831  0  0.949026  0  0  0.102424  0  1.014949  0  0  0.103243  0  1.015655  0  0  0.088805  0.101612  0  1.01504  0
H  H15  1  0.22536681  0.14569049  0.54036710  1  0  0.088261  0  0.949085  0  0  0.102391  0  1.014992  0  0  0.103212  0  1.015698  0  0  0.088782  0.101581  0  1.015084  0
H  H16  1  0.85257150  0.87583969  0.26969158  1  0  0.100589  0  0.94427  0  0  0.115651  0  1.005658  0  0  0.116181  0  1.007321  0  0  0.097611  0.115224  0  1.004705  0
H  H17  1  0.14742873  0.12416178  0.73030284  1  0  0.100589  0  0.944291  0  0  0.115655  0  1.00568  0  0  0.116186  0  1.007341  0  0  0.097604  0.11523  0  1.004724  0
H  H18  1  0.57939499  0.93644001  0.23752790  1  0  0.070814  0  0.947459  0  0  0.086923  0  1.014197  0  0  0.087381  0  1.015177  0  0  0.085326  0.086461  0  1.013682  0
H  H19  1  0.42060780  0.06356376  0.76246307  1  0  0.070858  0  0.947514  0  0  0.086952  0  1.014263  0  0  0.087418  0  1.015234  0  0  0.085347  0.086491  0  1.013746  0
H  H20  1  0.51206495  0.92900393  0.42289129  1  0  0.060737  0  0.958511  0  0  0.077629  0  1.026052  0  0  0.078002  0  1.027119  0  0  0.081801  0.07724  0  1.025564  0
H  H21  1  0.48793632  0.07099638  0.57710225  1  0  0.060753  0  0.958433  0  0  0.077654  0  1.025993  0  0  0.078026  0  1.027063  0  0  0.081799  0.077263  0  1.02551  0
H  H22  1  0.78547276  0.15376659  0.16764265  1  0  0.086186  0  0.981241  0  0  0.094016  0  1.059338  0  0  0.095388  0  1.059136  0  0  0.090292  0.09267  0  1.060042  0
H  H23  1  0.21453009  0.84623720  0.83235126  1  0  0.086188  0  0.981193  0  0  0.094025  0  1.059281  0  0  0.095399  0  1.05908  0  0  0.090308  0.092676  0  1.059986  0
H  H24  1  0.72413273  0.14837160  0.35207692  1  0  0.085383  0  0.930764  0  0  0.105893  0  0.986279  0  0  0.10666  0  0.986223  0  0  0.091429  0.104831  0  0.987051  0
H  H25  1  0.27587193  0.85162644  0.64791945  1  0  0.085427  0  0.930667  0  0  0.105906  0  0.986233  0  0  0.106674  0  0.986176  0  0  0.09142  0.104844  0  0.987007  0
H  H26  1  0.52122966  0.14252363  0.05938981  1  0  0.090386  0  0.952641  0  0  0.103628  0  1.017147  0  0  0.104228  0  1.018483  0  0  0.093314  0.103344  0  1.016019  0
H  H27  1  0.47877199  0.85747902  0.94060877  1  0  0.090391  0  0.952652  0  0  0.103633  0  1.017175  0  0  0.104233  0  1.018512  0  0  0.093316  0.10335  0  1.016046  0
H  H28  1  0.41846315  0.30950548  0.03716465  1  0  0.079914  0  0.973458  0  0  0.093923  0  1.04234  0  0  0.094749  0  1.043042  0  0  0.087723  0.093386  0  1.041816  0
H  H29  1  0.58153729  0.69049717  0.96283327  1  0  0.079884  0  0.973477  0  0  0.093899  0  1.042373  0  0  0.094724  0  1.043074  0  0  0.087708  0.093363  0  1.041849  0
H  H30  1  0.78446097  0.33573007  0.94425106  1  0  0.101358  0  0.971696  0  0  0.110453  0  1.044774  0  0  0.112212  0  1.044382  0  0  0.098831  0.108929  0  1.046376  0
H  H31  1  0.21553867  0.66426450  0.05575080  1  0  0.101298  0  0.971718  0  0  0.110419  0  1.044662  0  0  0.112171  0  1.044282  0  0  0.098801  0.108894  0  1.046263  0
H  H32  1  0.66020080  0.48174587  0.88508905  1  0  0.096765  0  0.945999  0  0  0.111044  0  1.011957  0  0  0.112494  0  1.011641  0  0  0.093112  0.109603  0  1.013304  0
H  H33  1  0.33980445  0.51825567  0.11491587  1  0  0.096768  0  0.945997  0  0  0.11102  0  1.011961  0  0  0.112466  0  1.011648  0  0  0.093117  0.109579  0  1.013307  0
C  C34  1  0.76468464  0.13658524  0.80114687  1  0  0.133336  0  3.774254  0  0  0.137901  0  4.044375  0  0  0.143506  0  4.061844  0  0  0.109216  0.13313  0  4.033385  0
C  C35  1  0.23531231  0.86341854  0.19884962  1  0  0.133263  0  3.774565  0  0  0.137835  0  4.04467  0  0  0.143452  0  4.062117  0  0  0.109243  0.133066  0  4.033678  0
C  C36  1  0.79017407  0.05776566  0.70236479  1  0  -0.087528  0  3.722298  0  0  -0.109717  0  3.973574  0  0  -0.110577  0  3.989868  0  0  -0.074395  -0.109707  0  3.964521  0
C  C37  1  0.20983183  0.94221973  0.29764248  1  0  -0.08745  0  3.721796  0  0  -0.109621  0  3.973064  0  0  -0.110463  0  3.98933  0  0  -0.074295  -0.109605  0  3.964015  0
C  C38  1  0.84348254  0.91452379  0.74778683  1  0  -0.098279  0  3.697966  0  0  -0.118416  0  3.946082  0  0  -0.119932  0  3.961518  0  0  -0.075612  -0.118236  0  3.938076  0
C  C39  1  0.15650950  0.08549848  0.25221757  1  0  -0.098273  0  3.697279  0  0  -0.1184  0  3.945353  0  0  -0.119909  0  3.960779  0  0  -0.075593  -0.118226  0  3.937356  0
C  C40  1  0.86338488  0.85603485  0.89135127  1  0  0.138047  0  3.785307  0  0  0.140937  0  4.059606  0  0  0.148664  0  4.07579  0  0  0.11393  0.133756  0  4.049325  0
C  C41  1  0.13661259  0.14396202  0.10864843  1  0  0.137971  0  3.785465  0  0  0.140908  0  4.05967  0  0  0.148629  0  4.075862  0  0  0.113918  0.13373  0  4.04939  0
C  C42  1  0.88224837  0.64196538  0.15517012  1  0  -0.156965  0  3.681002  0  0  -0.191604  0  3.936281  0  0  -0.190636  0  3.946067  0  0  -0.162963  -0.192614  0  3.930224  0
C  C43  1  0.11775044  0.35803265  0.84483079  1  0  -0.156932  0  3.680974  0  0  -0.191568  0  3.936293  0  0  -0.190586  0  3.946066  0  0  -0.162971  -0.192577  0  3.930247  0
C  C44  1  0.70737117  0.63027703  0.24169993  1  0  -0.144535  0  3.680302  0  0  -0.174818  0  3.92962  0  0  -0.176205  0  3.943238  0  0  -0.163314  -0.174189  0  3.919778  0
C  C45  1  0.29262532  0.36972101  0.75830359  1  0  -0.14451  0  3.680071  0  0  -0.174763  0  3.929328  0  0  -0.176164  0  3.942957  0  0  -0.163291  -0.174132  0  3.919489  0
C  C46  1  0.74324676  0.84774940  0.36429547  1  0  -0.13547  0  3.599489  0  0  -0.16741  0  3.853263  0  0  -0.168312  0  3.866881  0  0  -0.152709  -0.166441  0  3.843829  0
C  C47  1  0.25675337  0.15225092  0.63570035  1  0  -0.135368  0  3.599456  0  0  -0.16733  0  3.853238  0  0  -0.16823  0  3.866855  0  0  -0.152665  -0.166369  0  3.84381  0
C  C48  1  0.61766478  0.95575968  0.32456696  1  0  -0.100282  0  3.710439  0  0  -0.142083  0  3.969365  0  0  -0.143636  0  3.985468  0  0  -0.17402  -0.140928  0  3.957905  0
C  C49  1  0.38233407  0.04423949  0.67543059  1  0  -0.100454  0  3.710523  0  0  -0.142211  0  3.969377  0  0  -0.143772  0  3.985485  0  0  -0.174062  -0.141051  0  3.957915  0
C  C50  1  0.68284108  0.12463248  0.26855185  1  0  -0.140183  0  3.648373  0  0  -0.173998  0  3.909597  0  0  -0.173493  0  3.921206  0  0  -0.153643  -0.17371  0  3.900959  0
C  C51  1  0.31716038  0.87536900  0.73144421  1  0  -0.140102  0  3.648212  0  0  -0.173942  0  3.909531  0  0  -0.173439  0  3.921145  0  0  -0.153619  -0.173652  0  3.900885  0
C  C52  1  0.53001725  0.26235679  0.05136322  1  0  -0.144527  0  3.690497  0  0  -0.177479  0  3.946733  0  0  -0.178055  0  3.96027  0  0  -0.159899  -0.176484  0  3.936915  0
C  C53  1  0.46998317  0.73764472  0.94863905  1  0  -0.14448  0  3.690472  0  0  -0.17744  0  3.946624  0  0  -0.178019  0  3.960162  0  0  -0.15987  -0.176447  0  3.936808  0
C  C54  1  0.67136887  0.35763810  0.91980102  1  0  -0.136413  0  3.639276  0  0  -0.174282  0  3.900622  0  0  -0.174257  0  3.911052  0  0  -0.151646  -0.174621  0  3.895216  0
C  C55  1  0.32863270  0.64236340  0.08019995  1  0  -0.136388  0  3.639321  0  0  -0.174165  0  3.900656  0  0  -0.174133  0  3.911084  0  0  -0.151649  -0.174501  0  3.895246  0
S  S56  1  0.68332607  0.31503549  0.75506372  1  0  0.045517  0  2.80765  0  0  0.049988  0  3.241881  0  0  0.05385  0  3.224921  0  0  0.003866  0.04808  0  3.253517  0
S  S57  1  0.31667432  0.68496602  0.24493757  1  0  0.045527  0  2.807781  0  0  0.049973  0  3.241971  0  0  0.053836  0  3.224986  0  0  0.003856  0.04806  0  3.253607  0
S  S58  1  0.90932280  0.66530413  0.96355050  1  0  0.017428  0  2.4137  0  0  0.020093  0  2.765703  0  0  0.013423  0  2.767281  0  0  0.037465  0.024475  0  2.766841  0
S  S59  1  0.09067627  0.33469621  0.03645055  1  0  0.017399  0  2.41367  0  0  0.020053  0  2.76565  0  0  0.013381  0  2.767224  0  0  0.037441  0.024439  0  2.766786  0
S  S60  1  0.67351381  0.64522329  0.42220235  1  0  0.022167  0  2.764209  0  0  0.039314  0  3.207069  0  0  0.03914  0  3.194528  0  0  -0.041247  0.039999  0  3.214535  0
S  S61  1  0.32649241  0.35477708  0.57779875  1  0  0.022061  0  2.764086  0  0  0.039179  0  3.207007  0  0  0.039008  0  3.194456  0  0  -0.041317  0.039864  0  3.214476  0
S  S62  1  0.53749988  0.26163971  0.22923591  1  0  -0.037142  0  2.280183  0  0  -0.02092  0  2.628243  0  0  -0.026051  0  2.628938  0  0  -0.029173  -0.018079  0  2.627753  0
S  S63  1  0.46250161  0.73836064  0.77076647  1  0  -0.037224  0  2.280092  0  0  -0.02098  0  2.628167  0  0  -0.026108  0  2.628861  0  0  -0.029192  -0.018142  0  2.627681  0
N  N64  1  0.79490959  0.07978713  0.93166064  1  0  -0.191271  0  3.060402  0  0  -0.161332  0  3.340405  0  0  -0.166334  0  3.354229  0  0  -0.19149  -0.157052  0  3.331046  0
N  N65  1  0.20508664  0.92020860  0.06834274  1  0  -0.191176  0  3.060218  0  0  -0.16125  0  3.340216  0  0  -0.166254  0  3.354036  0  0  -0.191477  -0.15697  0  3.330859  0
N  N66  1  0.84233687  0.93843446  0.97811044  1  0  -0.183794  0  3.032819  0  0  -0.161848  0  3.320079  0  0  -0.167053  0  3.332933  0  0  -0.192206  -0.15709  0  3.310995  0
N  N67  1  0.15765909  0.06156936  0.02189422  1  0  -0.183821  0  3.032893  0  0  -0.161905  0  3.32017  0  0  -0.167112  0  3.333027  0  0  -0.192252  -0.157149  0  3.311088  0
Cl  Cl68  1  0.00272322  0.65121756  0.58414781  1  0  -0.507764  0  1.304933  0  0  -0.442437  0  1.648435  0  0  -0.457388  0  1.619148  0  0  -0.298999  -0.430452  0  1.66809  0
Cl  Cl69  1  0.99728439  0.34878512  0.41585114  1  0  -0.507754  0  1.304961  0  0  -0.44241  0  1.648426  0  0  -0.457357  0  1.619131  0  0  -0.299006  -0.430454  0  1.668139  0
