# generated using pymatgen
data_AlH17C18N2O9
_symmetry_space_group_name_H-M   'P 1'
_cell_length_a   6.63965173
_cell_length_b   20.31004664
_cell_length_c   27.12100830
_cell_angle_alpha   89.72078419
_cell_angle_beta   90.61685789
_cell_angle_gamma   90.53588359
_symmetry_Int_Tables_number   1
_chemical_formula_structural   AlH17C18N2O9
_chemical_formula_sum   'Al4 H68 C72 N8 O36'
_cell_volume   3656.89877727
_cell_formula_units_Z   4
loop_
 _symmetry_equiv_pos_site_id
 _symmetry_equiv_pos_as_xyz
  1  'x, y, z'
loop_
 _atom_site_type_symbol
 _atom_site_label
 _atom_site_symmetry_multiplicity
 _atom_site_fract_x
 _atom_site_fract_y
 _atom_site_fract_z
 _atom_site_occupancy
 _atom_site_pbe_bader_charge
 _atom_site_pbe_bader_spin_density
 _atom_site_pbe_cm5_charge
 _atom_site_pbe_ddec_charge
 _atom_site_pbe_ddec_spin_density
 _atom_site_pbe_ddec_sum_bond_order
 _atom_site_pbe_magmom
Al  Al0  1  0.76680230  0.74685207  0.75135279  1  2.500511  0  0.397554  1.628028  0  2.582884  0
Al  Al1  1  0.22441961  0.25183976  0.24823416  1  2.494967  0  0.397627  1.631122  0  2.583056  0
Al  Al2  1  0.26940652  0.75047794  0.75028525  1  2.498179  0  0.395368  1.6325  0  2.590108  0
Al  Al3  1  0.72391342  0.25007164  0.25042916  1  2.503404  0  0.394789  1.633542  0  2.593177  0
H  H4  1  0.78674543  0.63467874  0.52070125  1  0.075058  0  0.107568  0.111451  0  1.000617  0
H  H5  1  0.34385288  0.42072303  0.44496329  1  0.114049  0  0.109767  0.12162  0  1.022345  0
H  H6  1  0.17846713  0.39763239  0.02590294  1  0.110529  0  0.109085  0.11597  0  1.011227  0
H  H7  1  0.81188334  0.59818094  0.97127612  1  0.079142  0  0.105621  0.104846  0  1.033495  0
H  H8  1  0.18236408  0.91221620  0.95309168  1  0.113719  0  0.112544  0.127398  0  1.008423  0
H  H9  1  0.83045781  0.09600131  0.04908651  1  0.097427  0  0.111116  0.126286  0  1.012675  0
H  H10  1  0.81364283  0.08670986  0.45336721  1  0.119648  0  0.11298  0.128051  0  1.007029  0
H  H11  1  0.16430041  0.90418823  0.54893045  1  0.11484  0  0.11033  0.12506  0  1.014359  0
H  H12  1  0.77618045  0.69637216  0.60074406  1  0.071301  0  0.113127  0.122855  0  0.976263  0
H  H13  1  0.30383180  0.35710216  0.36814065  1  0.096187  0  0.110496  0.12008  0  1.010359  0
H  H14  1  0.20333185  0.32564145  0.10123823  1  0.078332  0  0.112054  0.119718  0  0.980548  0
H  H15  1  0.79306899  0.66989287  0.89610031  1  0.068663  0  0.110993  0.120071  0  0.978981  0
H  H16  1  0.20630885  0.84785158  0.87617193  1  0.108315  0  0.10922  0.117975  0  1.020331  0
H  H17  1  0.79352079  0.15584719  0.12797222  1  0.145439  0  0.114127  0.126337  0  1.006296  0
H  H18  1  0.78773534  0.15001559  0.37530999  1  0.131318  0  0.110271  0.119669  0  1.014962  0
H  H19  1  0.20133247  0.84589264  0.62911048  1  0.117063  0  0.113275  0.124447  0  1.008741  0
H  H20  1  0.45219640  0.43688298  0.29865962  1  0.074896  0  0.108097  0.112279  0  0.990542  0
H  H21  1  0.70397154  0.41755402  0.28028010  1  0.097435  0  0.103162  0.108807  0  1.028237  0
H  H22  1  0.65289122  0.49491430  0.30894638  1  0.049128  0  0.094974  0.089808  0  1.002401  0
H  H23  1  0.54644638  0.56479002  0.69732515  1  0.02749  0  0.104319  0.110373  0  0.979535  0
H  H24  1  0.49024819  0.63844090  0.66415385  1  0.089197  0  0.09962  0.107684  0  1.023051  0
H  H25  1  0.54174811  0.56330954  0.63136267  1  0.035175  0  0.091289  0.086945  0  1.039893  0
H  H26  1  0.34102649  0.50966033  0.75850727  1  0.077042  0  0.109396  0.119352  0  0.98582  0
H  H27  1  0.09272830  0.53975605  0.76749684  1  0.071483  0  0.097405  0.099279  0  0.99329  0
H  H28  1  0.17688158  0.46782895  0.80094685  1  0.038619  0  0.097197  0.094694  0  0.99174  0
H  H29  1  0.42117438  0.43849765  0.20525321  1  0.051987  0  0.102469  0.108821  0  0.982933  0
H  H30  1  0.47800735  0.36688672  0.17040826  1  0.071603  0  0.100773  0.110771  0  1.025336  0
H  H31  1  0.42532074  0.44401388  0.13947690  1  0.057191  0  0.090762  0.087779  0  1.038683  0
H  H32  1  0.01212974  0.11509424  0.20342632  1  0.124436  0  0.108597  0.124279  0  1.028228  0
H  H33  1  0.22766380  0.06275145  0.20004338  1  0.051992  0  0.09557  0.088719  0  1.015363  0
H  H34  1  0.98641066  0.03303734  0.17889611  1  0.040192  0  0.091966  0.085863  0  1.000921  0
H  H35  1  0.80377734  0.91741239  0.78837325  1  0.086913  0  0.098374  0.098081  0  1.038049  0
H  H36  1  0.06211899  0.92906950  0.80678492  1  0.058062  0  0.110024  0.118402  0  0.97714  0
H  H37  1  0.87816581  0.98911098  0.82302843  1  0.041374  0  0.093903  0.086512  0  1.010934  0
H  H38  1  0.98523976  0.88258721  0.70623124  1  0.125234  0  0.10829  0.124461  0  1.033431  0
H  H39  1  0.76694692  0.93394179  0.70236234  1  0.043809  0  0.095295  0.087656  0  1.016776  0
H  H40  1  0.00667296  0.96567583  0.68293107  1  0.052225  0  0.092901  0.087949  0  0.997188  0
H  H41  1  0.19087962  0.08331633  0.28663803  1  0.07426  0  0.098617  0.096496  0  1.03701  0
H  H42  1  0.93243137  0.07080774  0.30330625  1  0.032919  0  0.110461  0.119032  0  0.977767  0
H  H43  1  0.11717843  0.01057312  0.32026778  1  0.033805  0  0.092804  0.084835  0  1.009846  0
H  H44  1  0.58262540  0.53466739  0.38256161  1  0.049657  0  0.092947  0.089934  0  1.024384  0
H  H45  1  0.72674229  0.57668444  0.43011592  1  0.053877  0  0.088007  0.076348  0  1.039757  0
H  H46  1  0.47159555  0.54986003  0.44105094  1  0.054583  0  0.102689  0.109281  0  0.992187  0
H  H47  1  0.45743817  0.54488081  0.53037475  1  0.046052  0  0.095945  0.092119  0  1.01421  0
H  H48  1  0.40891995  0.45903031  0.52069426  1  0.10104  0  0.098234  0.098696  0  1.044453  0
H  H49  1  0.57734416  0.48531541  0.56936004  1  0.082759  0  0.102045  0.110211  0  0.977614  0
H  H50  1  0.56000595  0.50859108  0.94272686  1  0.052108  0  0.090848  0.087501  0  1.035964  0
H  H51  1  0.56381524  0.52250213  0.87713029  1  0.080129  0  0.095717  0.098123  0  1.032328  0
H  H52  1  0.59393332  0.44083666  0.90172754  1  0.065142  0  0.107698  0.11809  0  0.965218  0
H  H53  1  0.51075726  0.48931491  0.03064860  1  0.06468  0  0.100693  0.099616  0  1.017384  0
H  H54  1  0.61874723  0.57033277  0.03319978  1  0.070706  0  0.09497  0.09101  0  1.03276  0
H  H55  1  0.40102724  0.55006733  0.06961066  1  0.091398  0  0.104624  0.11359  0  0.972667  0
H  H56  1  0.04102980  0.98449263  0.10462306  1  0.057482  0  0.091121  0.086962  0  1.027482  0
H  H57  1  0.20315532  0.94131562  0.06266866  1  0.054019  0  0.08901  0.079004  0  1.033551  0
H  H58  1  0.95594321  0.96624076  0.04307885  1  0.081322  0  0.104089  0.117772  0  0.996595  0
H  H59  1  0.80180996  0.06377549  0.93355498  1  0.078723  0  0.091053  0.081991  0  1.034425  0
H  H60  1  0.98004295  0.02350764  0.89383361  1  0.014666  0  0.089583  0.085591  0  1.025553  0
H  H61  1  0.04609659  0.04168477  0.95673613  1  0.098052  0  0.105976  0.121467  0  0.996433  0
H  H62  1  0.96227341  0.01329112  0.60528606  1  0.045851  0  0.091458  0.088455  0  1.025185  0
H  H63  1  0.79583409  0.05673443  0.56326049  1  0.072115  0  0.090351  0.081602  0  1.033167  0
H  H64  1  0.04065021  0.03166810  0.54351723  1  0.072165  0  0.104467  0.118948  0  0.993045  0
H  H65  1  0.18957017  0.93560929  0.43288656  1  0.069485  0  0.089889  0.079601  0  1.036949  0
H  H66  1  0.01097625  0.97696406  0.39257664  1  0.040795  0  0.089456  0.085674  0  1.024114  0
H  H67  1  0.94690911  0.95840111  0.45531057  1  0.083023  0  0.10561  0.120482  0  0.994256  0
H  H68  1  0.50642579  0.66819961  0.77266971  1  0.625952  0  0.353531  0.434717  0  0.851642  0
H  H69  1  0.47637939  0.32931698  0.27266870  1  0.607394  0  0.346024  0.416491  0  0.887521  0
H  H70  1  0.01726075  0.81943393  0.78294301  1  0.609547  0  0.343371  0.409771  0  0.896584  0
H  H71  1  0.97934516  0.17999994  0.28140261  1  0.619208  0  0.344265  0.410852  0  0.896094  0
C  C72  1  0.52558397  0.82659419  0.68336579  1  1.557264  0  0.264919  0.644644  0  4.099075  0
C  C73  1  0.47082218  0.17249839  0.31881092  1  1.568308  0  0.263761  0.654785  0  4.085063  0
C  C74  1  0.47251949  0.17443425  0.18126181  1  1.564039  0  0.266211  0.648653  0  4.094109  0
C  C75  1  0.51940526  0.82558729  0.82046577  1  1.568366  0  0.26463  0.653329  0  4.084717  0
C  C76  1  0.02005314  0.66619434  0.81609100  1  1.573569  0  0.267402  0.658234  0  4.093882  0
C  C77  1  0.97125106  0.32795286  0.18131443  1  1.593659  0  0.274572  0.662156  0  4.079339  0
C  C78  1  0.97762843  0.33338527  0.31518582  1  1.557659  0  0.264832  0.656805  0  4.082467  0
C  C79  1  0.01823982  0.67770526  0.68038765  1  1.600043  0  0.277749  0.666898  0  4.079216  0
C  C80  1  0.01217331  0.63814428  0.63404321  1  0.026172  0  -0.009378  -0.106367  0  3.960055  0
C  C81  1  0.98969220  0.37917698  0.35794382  1  -0.024332  0  -0.026586  -0.150302  0  3.970047  0
C  C82  1  0.96258966  0.37460452  0.13866360  1  -0.030341  0  -0.014282  -0.120321  0  3.959879  0
C  C83  1  0.03306224  0.62042056  0.85913536  1  0.003944  0  -0.018045  -0.128407  0  3.968501  0
C  C84  1  0.52045946  0.86912251  0.86471940  1  -0.016093  0  -0.027181  -0.151709  0  3.967675  0
C  C85  1  0.47877826  0.13316740  0.13596382  1  -0.049722  0  -0.02706  -0.156482  0  3.977454  0
C  C86  1  0.47270283  0.12908116  0.36345887  1  -0.031737  0  -0.026282  -0.150634  0  3.966988  0
C  C87  1  0.51744089  0.86747320  0.63761601  1  -0.013324  0  -0.028714  -0.15869  0  3.988395  0
C  C88  1  0.14522594  0.58557595  0.62825378  1  0.519941  0  0.083852  0.13899  0  4.032628  0
C  C89  1  0.82396824  0.41378647  0.37710814  1  0.507644  0  0.08778  0.152083  0  3.999105  0
C  C90  1  0.81973946  0.42493554  0.13666743  1  0.573339  0  0.085102  0.144538  0  4.030558  0
C  C91  1  0.17482175  0.56937657  0.86166799  1  0.521686  0  0.082813  0.136846  0  4.02071  0
C  C92  1  0.69236783  0.90277374  0.88363292  1  0.514735  0  0.086417  0.151336  0  3.995276  0
C  C93  1  0.30962321  0.10079386  0.11451636  1  0.565906  0  0.088994  0.149291  0  4.024068  0
C  C94  1  0.30098061  0.09600697  0.38234946  1  0.576236  0  0.086881  0.15107  0  3.995026  0
C  C95  1  0.68700523  0.89866223  0.61609387  1  0.517595  0  0.088224  0.147145  0  4.029755  0
C  C96  1  0.14988887  0.54963605  0.58367990  1  0.587129  0  0.091698  0.100083  0  3.993999  0
C  C97  1  0.84557914  0.44987123  0.42139545  1  0.558565  0  0.082666  0.084372  0  3.986637  0
C  C98  1  0.80245862  0.46519609  0.09383205  1  0.530954  0  0.095112  0.099052  0  3.988616  0
C  C99  1  0.18256077  0.52769576  0.90347645  1  0.548734  0  0.08838  0.094909  0  4.004261  0
C  C100  1  0.67992690  0.93935893  0.92774415  1  0.556617  0  0.083451  0.08422  0  4.002186  0
C  C101  1  0.33004950  0.06640955  0.06957781  1  0.557294  0  0.08154  0.083193  0  4.002055  0
C  C102  1  0.31464873  0.05975831  0.42686509  1  0.539032  0  0.084416  0.08611  0  4.002953  0
C  C103  1  0.66646502  0.93235840  0.57056095  1  0.5972  0  0.081148  0.084031  0  4.005391  0
C  C104  1  0.01568084  0.56803573  0.54458317  1  0.301089  0  0.077162  0.064482  0  4.043736  0
C  C105  1  0.03488894  0.45260519  0.44596017  1  0.321238  0  0.087499  0.088811  0  4.056333  0
C  C106  1  0.93725475  0.45550978  0.05424242  1  0.37515  0  0.076884  0.069207  0  4.062013  0
C  C107  1  0.04946066  0.53826608  0.94304239  1  0.367988  0  0.082479  0.085914  0  4.051399  0
C  C108  1  0.49321349  0.94351099  0.95223326  1  0.287056  0  0.087822  0.086169  0  4.060839  0
C  C109  1  0.51999591  0.06373060  0.04669168  1  0.284729  0  0.085436  0.082727  0  4.066615  0
C  C110  1  0.50246503  0.05554700  0.45185886  1  0.314058  0  0.087481  0.083839  0  4.061237  0
C  C111  1  0.47575627  0.93536632  0.54707631  1  0.312184  0  0.084983  0.082359  0  4.066538  0
C  C112  1  0.88593228  0.62188560  0.55151017  1  0.006416  0  -0.08734  -0.147135  0  4.021917  0
C  C113  1  0.19814395  0.41835862  0.42617869  1  0.035372  0  -0.089366  -0.152098  0  3.989603  0
C  C114  1  0.08084320  0.40462260  0.05741524  1  -0.010455  0  -0.093108  -0.154382  0  4.018552  0
C  C115  1  0.91043577  0.59017765  0.94011796  1  -0.039746  0  -0.090601  -0.152679  0  4.02238  0
C  C116  1  0.32470195  0.90916806  0.93364964  1  0.058698  0  -0.087736  -0.146871  0  3.980009  0
C  C117  1  0.68530498  0.09772542  0.06738155  1  0.054723  0  -0.091179  -0.154567  0  3.99012  0
C  C118  1  0.67068698  0.08956112  0.43341552  1  -0.018666  0  -0.086283  -0.145015  0  3.976351  0
C  C119  1  0.30996975  0.90232002  0.56776655  1  -0.029624  0  -0.092315  -0.155485  0  3.988082  0
C  C120  1  0.87976620  0.65568882  0.59564739  1  -0.002934  0  -0.089528  -0.100211  0  4.025507  0
C  C121  1  0.17607854  0.38341504  0.38287278  1  -0.018987  0  -0.086957  -0.076095  0  4.010737  0
C  C122  1  0.09410706  0.36526400  0.09885465  1  -0.016331  0  -0.088047  -0.093519  0  4.034882  0
C  C123  1  0.90121566  0.62998096  0.89872253  1  0.026323  0  -0.086364  -0.085225  0  4.016147  0
C  C124  1  0.33826367  0.87373785  0.89046477  1  -0.038862  0  -0.087441  -0.078812  0  4.013088  0
C  C125  1  0.66471835  0.13043941  0.11156755  1  -0.044024  0  -0.086076  -0.076284  0  4.00252  0
C  C126  1  0.65604148  0.12448063  0.38964975  1  -0.023345  0  -0.08524  -0.075352  0  4.00457  0
C  C127  1  0.33062629  0.87044376  0.61268323  1  -0.000813  0  -0.085856  -0.07496  0  4.000482  0
C  C128  1  0.61273105  0.44216560  0.30807697  1  0.326019  0  -0.137663  -0.180404  0  3.901002  0
C  C129  1  0.47303732  0.58469848  0.66417143  1  0.414863  0  -0.142047  -0.168387  0  3.885968  0
C  C130  1  0.22221481  0.51598091  0.78566735  1  0.372939  0  -0.133929  -0.162646  0  3.889834  0
C  C131  1  0.49418253  0.42055809  0.17195000  1  0.384026  0  -0.145924  -0.172992  0  3.889014  0
C  C132  1  0.08530790  0.07668601  0.18204388  1  0.341132  0  -0.141202  -0.172125  0  3.894632  0
C  C133  1  0.90477972  0.93624057  0.81743868  1  0.355846  0  -0.138371  -0.175813  0  3.905662  0
C  C134  1  0.91010804  0.92136798  0.68498219  1  0.335895  0  -0.139894  -0.171458  0  3.888878  0
C  C135  1  0.08959773  0.06355617  0.31493469  1  0.395606  0  -0.1381  -0.176499  0  3.907485  0
C  C136  1  0.61259306  0.53837254  0.42239072  1  0.384371  0  -0.141773  -0.170946  0  3.923417  0
C  C137  1  0.43927491  0.49676596  0.54849232  1  0.335629  0  -0.139608  -0.172311  0  3.909202  0
C  C138  1  0.51890671  0.48815290  0.90647032  1  0.368315  0  -0.141617  -0.17268  0  3.894602  0
C  C139  1  0.54238427  0.53173186  0.05453272  1  0.342373  0  -0.136848  -0.177145  0  3.914254  0
C  C140  1  0.08697678  0.97918870  0.06604492  1  0.35724  0  -0.143675  -0.170466  0  3.904335  0
C  C141  1  0.92305899  0.02747876  0.93160574  1  0.359662  0  -0.14294  -0.172158  0  3.899865  0
C  C142  1  0.91202470  0.01877712  0.56675738  1  0.362747  0  -0.143396  -0.173169  0  3.903099  0
C  C143  1  0.06951374  0.97239399  0.43051449  1  0.364262  0  -0.143063  -0.172151  0  3.906656  0
N  N144  1  0.98359987  0.53751883  0.49854041  1  -0.452879  0  -0.142998  -0.11349  0  3.309255  0
N  N145  1  0.07550446  0.48403535  0.49119110  1  -0.468149  0  -0.139144  -0.093256  0  3.289651  0
N  N146  1  0.92099347  0.49775735  0.01340705  1  -0.501766  0  -0.149332  -0.116735  0  3.313558  0
N  N147  1  0.06874126  0.49576884  0.98388752  1  -0.480517  0  -0.151312  -0.120962  0  3.277407  0
N  N148  1  0.46215364  0.97686098  0.99693639  1  -0.412725  0  -0.127464  -0.087625  0  3.284909  0
N  N149  1  0.55571417  0.03091056  0.00192238  1  -0.464792  0  -0.125413  -0.082319  0  3.268472  0
N  N150  1  0.53432612  0.02203790  0.49687901  1  -0.448837  0  -0.126442  -0.084248  0  3.281532  0
N  N151  1  0.43983446  0.96815732  0.50182698  1  -0.448378  0  -0.126867  -0.086193  0  3.267545  0
O  O152  1  0.34666741  0.80542387  0.80540637  1  -1.266715  0  -0.241574  -0.603657  0  2.366208  0
O  O153  1  0.64246551  0.19090622  0.20003715  1  -1.26671  0  -0.234167  -0.585437  0  2.36542  0
O  O154  1  0.64246641  0.18784338  0.30092862  1  -1.259711  0  -0.240992  -0.603606  0  2.355433  0
O  O155  1  0.35931897  0.81666091  0.70558856  1  -1.261289  0  -0.237779  -0.592892  0  2.354028  0
O  O156  1  0.85230319  0.68590355  0.70238565  1  -1.259197  0  -0.228061  -0.583161  0  2.341222  0
O  O157  1  0.14483209  0.31807793  0.29542958  1  -1.261261  0  -0.244204  -0.611876  0  2.355747  0
O  O158  1  0.14461617  0.30824305  0.19502881  1  -1.253985  0  -0.228565  -0.57979  0  2.34583  0
O  O159  1  0.84518840  0.68707291  0.80415603  1  -1.25733  0  -0.240567  -0.601085  0  2.318935  0
O  O160  1  0.69374767  0.80275910  0.69721877  1  -1.254175  0  -0.230509  -0.576709  0  2.374117  0
O  O161  1  0.30213950  0.19212728  0.30165773  1  -1.257142  0  -0.240081  -0.602577  0  2.386336  0
O  O162  1  0.30304110  0.19162325  0.19829149  1  -1.251183  0  -0.230189  -0.581501  0  2.385679  0
O  O163  1  0.68607099  0.81066089  0.80061374  1  -1.258042  0  -0.238755  -0.603443  0  2.393525  0
O  O164  1  0.18404680  0.68203238  0.79518081  1  -1.254921  0  -0.234155  -0.600276  0  2.385645  0
O  O165  1  0.80561648  0.30987147  0.20021127  1  -1.25425  0  -0.225902  -0.580081  0  2.385846  0
O  O166  1  0.80546289  0.31108247  0.30183568  1  -1.259463  0  -0.239442  -0.60037  0  2.376939  0
O  O167  1  0.18772351  0.70131164  0.69371812  1  -1.251662  0  -0.223058  -0.572002  0  2.3554  0
O  O168  1  0.51517654  0.70715863  0.75179405  1  -1.42568  0  -0.446294  -0.983713  0  2.187429  0
O  O169  1  0.47594373  0.29148525  0.25097260  1  -1.413552  0  -0.447992  -0.978734  0  2.214538  0
O  O170  1  0.01722904  0.78989069  0.75484957  1  -1.41571  0  -0.447357  -0.972266  0  2.202113  0
O  O171  1  0.97482626  0.20966554  0.25317458  1  -1.425037  0  -0.447209  -0.973885  0  2.199894  0
O  O172  1  0.63476715  0.41332694  0.35632484  1  -1.072767  0  -0.195285  -0.16868  0  2.604817  0
O  O173  1  0.26265576  0.56659515  0.66760355  1  -1.082403  0  -0.206809  -0.193397  0  2.569756  0
O  O174  1  0.30599435  0.55734774  0.82391195  1  -1.078628  0  -0.205561  -0.184599  0  2.566609  0
O  O175  1  0.70468045  0.43856297  0.17682783  1  -1.075957  0  -0.209043  -0.189504  0  2.560278  0
O  O176  1  0.11965328  0.10121404  0.13294017  1  -1.080789  0  -0.187503  -0.154776  0  2.616637  0
O  O177  1  0.87968643  0.90028392  0.86269856  1  -1.071253  0  -0.198231  -0.172368  0  2.59805  0
O  O178  1  0.87700866  0.89844714  0.63541979  1  -1.083228  0  -0.187457  -0.154519  0  2.618947  0
O  O179  1  0.11310302  0.09814401  0.36067316  1  -1.072214  0  -0.196718  -0.169549  0  2.595408  0
O  O180  1  0.67807000  0.47648710  0.44244712  1  -1.067996  0  -0.200469  -0.173605  0  2.613964  0
O  O181  1  0.27788204  0.49789849  0.58358090  1  -1.071894  0  -0.194645  -0.157971  0  2.605622  0
O  O182  1  0.30539551  0.47407783  0.90447633  1  -1.077832  0  -0.204199  -0.176912  0  2.565284  0
O  O183  1  0.66171176  0.51290327  0.09685430  1  -1.075798  0  -0.183208  -0.136256  0  2.607062  0
O  O184  1  0.16188709  0.04082751  0.04671865  1  -1.077352  0  -0.200823  -0.180348  0  2.620491  0
O  O185  1  0.85159414  0.96445662  0.94918376  1  -1.078242  0  -0.200656  -0.179137  0  2.622248  0
O  O186  1  0.83441017  0.95720082  0.54787507  1  -1.076721  0  -0.201794  -0.180963  0  2.616566  0
O  O187  1  0.14378748  0.03492895  0.44816633  1  -1.080607  0  -0.200904  -0.178662  0  2.62158  0
