# generated using pymatgen
data_MnH8C10N2F3
_symmetry_space_group_name_H-M   'P 1'
_cell_length_a   3.97098315
_cell_length_b   7.99831269
_cell_length_c   7.99812648
_cell_angle_alpha   82.63861225
_cell_angle_beta   76.25291573
_cell_angle_gamma   76.25198523
_symmetry_Int_Tables_number   1
_chemical_formula_structural   MnH8C10N2F3
_chemical_formula_sum   'Mn1 H8 C10 N2 F3'
_cell_volume   238.99138737
_cell_formula_units_Z   1
loop_
 _symmetry_equiv_pos_site_id
 _symmetry_equiv_pos_as_xyz
  1  'x, y, z'
loop_
 _atom_site_type_symbol
 _atom_site_label
 _atom_site_symmetry_multiplicity
 _atom_site_fract_x
 _atom_site_fract_y
 _atom_site_fract_z
 _atom_site_occupancy
 _atom_site_pbe_cm5_charge
 _atom_site_pbe_ddec_charge
 _atom_site_pbe_ddec_spin_density
 _atom_site_pbe_ddec_sum_bond_order
 _atom_site_pbe_magmom
Mn  Mn0  1  0.99999691  0.99937467  0.00062757  1  0.741556  1.178113  -3.764697  3.022387  -3.659
H  H1  1  0.59999670  0.37519706  0.01638160  1  0.118575  0.087732  -0.000222  1.020729  0.0
H  H2  1  0.98624205  0.62304744  0.98030266  1  0.118928  0.087404  -0.000247  1.021723  0.0
H  H3  1  0.40000435  0.98361224  0.62479571  1  0.118598  0.087828  -0.000222  1.020541  0.0
H  H4  1  0.01374198  0.01969516  0.37696983  1  0.118934  0.087403  -0.000247  1.021682  0.0
H  H5  1  0.36863481  0.60488937  0.22755271  1  0.106186  0.134785  5.9e-05  1.041003  0.0
H  H6  1  0.20461584  0.39243789  0.77042355  1  0.106102  0.135392  6.1e-05  1.043041  0.0
H  H7  1  0.63138118  0.77243402  0.39510607  1  0.106213  0.134782  5.9e-05  1.041058  0.0
H  H8  1  0.79537878  0.22958259  0.60757229  1  0.106115  0.135455  6.1e-05  1.043119  0.0
C  C9  1  0.63770498  0.35067851  0.14872439  1  0.054261  0.095795  -0.003528  3.941281  -0.003
C  C10  1  0.13283143  0.64845488  0.84938643  1  0.053716  0.096802  -0.003589  3.945083  -0.003
C  C11  1  0.36229521  0.85127266  0.64931546  1  0.054234  0.095696  -0.003527  3.941266  -0.003
C  C12  1  0.86716409  0.15061589  0.35155010  1  0.05373  0.096851  -0.00359  3.945102  -0.003
C  C13  1  0.51290425  0.47705001  0.26612914  1  -0.078099  -0.173015  0.000681  3.905528  0.001
C  C14  1  0.25575269  0.52170243  0.73245625  1  -0.079051  -0.176068  0.000739  3.909333  0.001
C  C15  1  0.48710506  0.73386484  0.52294520  1  -0.078117  -0.17301  0.000681  3.905704  0.001
C  C16  1  0.74423167  0.26754570  0.47830563  1  -0.079099  -0.176271  0.000739  3.909551  0.001
C  C17  1  0.56517578  0.43524156  0.43519412  1  0.018261  0.116323  -0.003777  3.954568  -0.003
C  C18  1  0.43481159  0.56480644  0.56475769  1  0.018227  0.116313  -0.003776  3.95464  -0.003
N  N19  1  0.81362948  0.19081288  0.19005153  1  -0.316434  -0.243939  -0.020896  3.541988  -0.008
N  N20  1  0.18636889  0.80995533  0.80917923  1  -0.31643  -0.244025  -0.020896  3.541935  -0.008
F  F21  1  0.00000666  0.17326525  0.82673280  1  -0.313373  -0.486346  -0.03833  1.059203  -0.036
F  F22  1  0.00001794  0.82553129  0.17447397  1  -0.315416  -0.487795  -0.038783  1.052184  -0.037
F  F23  1  0.49999880  0.99893374  0.00106955  1  -0.317616  -0.526205  -0.096752  1.210963  -0.077
