# generated using pymatgen
data_CuPH4CO4
_symmetry_space_group_name_H-M   'P 1'
_cell_length_a   7.44458150
_cell_length_b   7.51046435
_cell_length_c   8.00741059
_cell_angle_alpha   89.97032828
_cell_angle_beta   116.38365291
_cell_angle_gamma   90.04400403
_symmetry_Int_Tables_number   1
_chemical_formula_structural   CuPH4CO4
_chemical_formula_sum   'Cu4 P4 H16 C4 O16'
_cell_volume   401.07796445
_cell_formula_units_Z   4
loop_
 _symmetry_equiv_pos_site_id
 _symmetry_equiv_pos_as_xyz
  1  'x, y, z'
loop_
 _atom_site_type_symbol
 _atom_site_label
 _atom_site_symmetry_multiplicity
 _atom_site_fract_x
 _atom_site_fract_y
 _atom_site_fract_z
 _atom_site_occupancy
 _atom_site_hle17_ddec_charge
 _atom_site_hle17_ddec_spin_density
 _atom_site_hle17_ddec_sum_bond_order
 _atom_site_hle17_magmom
 _atom_site_hse06_10hf_ddec_charge
 _atom_site_hse06_10hf_ddec_spin_density
 _atom_site_hse06_10hf_ddec_sum_bond_order
 _atom_site_hse06_10hf_magmom
 _atom_site_hse06_ddec_charge
 _atom_site_hse06_ddec_spin_density
 _atom_site_hse06_ddec_sum_bond_order
 _atom_site_hse06_magmom
 _atom_site_pbe_cm5_charge
 _atom_site_pbe_ddec_charge
 _atom_site_pbe_ddec_spin_density
 _atom_site_pbe_ddec_sum_bond_order
 _atom_site_pbe_magmom
Cu  Cu0  1  0.90183170  0.81056137  0.94211812  1  1.10287  -0.71919  1.618656  -0.546  1.113153  -0.818241  1.992522  -0.677  1.189898  -0.881002  1.937875  -0.759  0.741205  1.053893  -0.76319  2.043688  -0.616
Cu  Cu1  1  0.59788157  0.31063738  0.05758880  1  1.101553  0.754908  1.618614  0.54  1.112074  0.852585  1.99268  0.675  1.189267  0.932181  1.937757  0.758  0.739669  1.051262  0.775327  2.045158  0.607
Cu  Cu2  1  0.09760464  0.18929578  0.05716619  1  1.103537  -0.727001  1.617996  -0.552  1.113358  -0.82106  1.992161  -0.679  1.189895  -0.881715  1.93722  -0.759  0.741985  1.055189  -0.774112  2.042795  -0.624
Cu  Cu3  1  0.40274969  0.68919853  0.94309061  1  1.102253  -0.719141  1.617755  -0.546  1.112467  -0.818908  1.992099  -0.677  1.189517  -0.881495  1.93703  -0.758  0.740687  1.052551  -0.764495  2.044255  -0.617
P  P4  1  0.25298184  0.55313375  0.22115613  1  1.501635  -0.007237  4.760272  0.0  1.366398  -0.011396  5.266909  -0.005  1.422839  -0.00838  5.225013  -0.005  0.334283  1.326448  -0.01387  5.29326  -0.006
P  P5  1  0.24670772  0.05325462  0.77903892  1  1.50166  -0.000809  4.760068  0.0  1.366573  -0.00288  5.2669  -0.002  1.423014  -0.002248  5.224989  -0.002  0.334466  1.326557  -0.003427  5.293236  -0.002
P  P6  1  0.74680200  0.44689643  0.77880381  1  1.500939  -0.003572  4.762453  0.0  1.365871  -0.004085  5.269065  -0.002  1.422404  -0.002761  5.227193  -0.001  0.333916  1.325602  -0.005412  5.295365  -0.002
P  P7  1  0.75353586  0.94677039  0.22098828  1  1.50064  -0.001499  4.762939  0.001  1.365549  -0.003531  5.269283  -0.001  1.42208  -0.002436  5.227335  -0.001  0.333981  1.325292  -0.004562  5.295511  -0.002
H  H8  1  0.74238726  0.06685665  0.75102800  1  0.428325  0.000387  0.857304  0.002  0.403192  -0.000447  0.925344  0.0  0.413859  -0.000206  0.91054  0.0  0.297295  0.395439  -0.000664  0.93274  0.0
H  H9  1  0.75785525  0.56683572  0.24891877  1  0.428567  -0.000246  0.857742  -0.002  0.403542  0.0004  0.925232  0.0  0.414246  0.000253  0.910207  0.0  0.297282  0.39572  0.000501  0.93299  0.0
H  H10  1  0.25696209  0.93301387  0.24790471  1  0.428744  0.000402  0.857789  0.002  0.403338  -0.000424  0.925561  0.0  0.414001  -0.000187  0.910624  0.0  0.297484  0.39566  -0.000642  0.933241  0.0
H  H11  1  0.24274196  0.43304135  0.75214381  1  0.429088  0.000363  0.857936  0.002  0.403827  -0.000334  0.925078  0.0  0.414552  -0.000198  0.910046  0.0  0.297563  0.396048  -0.000442  0.933243  0.0
H  H12  1  0.56895493  0.93070599  0.73541276  1  0.429984  0.000352  0.874109  0.002  0.401602  -0.000342  0.934902  0.001  0.413776  -7.3e-05  0.917579  0.001  0.294062  0.392964  -0.000609  0.947162  0.0
H  H13  1  0.93077854  0.43028747  0.26455292  1  0.429912  -0.000869  0.874176  -0.002  0.401417  -0.000286  0.935169  -0.001  0.41361  -0.000274  0.917816  -0.001  0.293877  0.39275  -0.00031  0.947494  -0.001
H  H14  1  0.43061301  0.06921769  0.26415776  1  0.429882  0.000542  0.874068  0.002  0.401933  -9.5e-05  0.934234  0.0  0.414029  5.4e-05  0.917018  0.001  0.294305  0.393386  -0.000257  0.946339  0.0
H  H15  1  0.06960634  0.56964960  0.73591935  1  0.430082  0.000739  0.873945  0.002  0.402028  5.2e-05  0.934213  0.001  0.414249  0.000165  0.916829  0.001  0.29433  0.393368  -5.1e-05  0.946499  0.001
H  H16  1  0.53589963  0.69472030  0.45944497  1  0.141383  -0.000201  0.931599  0.0  0.157969  -0.000427  0.98227  -0.001  0.160177  -0.00026  0.982715  0.0  0.109942  0.156239  -0.000584  0.982326  -0.001
H  H17  1  0.96392220  0.19459122  0.54069595  1  0.141537  -0.000795  0.931026  -0.001  0.158073  -0.000576  0.98177  -0.001  0.160224  -0.000392  0.982254  0.0  0.11012  0.15649  -0.000709  0.981711  -0.001
H  H18  1  0.46318696  0.30578479  0.54112205  1  0.140982  -0.000178  0.931124  0.0  0.157349  -0.000397  0.982207  -0.001  0.159519  -0.000254  0.982701  0.0  0.110027  0.155687  -0.000524  0.982193  -0.001
H  H19  1  0.03701185  0.80594415  0.45879857  1  0.141711  0.000796  0.930376  0.001  0.157676  0.000571  0.981708  0.001  0.159769  0.000408  0.982242  0.0  0.11027  0.156162  0.000667  0.981591  0.001
H  H20  1  0.35884215  0.62700289  0.53938928  1  0.144833  0.000603  0.947812  0.0  0.157819  0.000189  1.004395  0.0  0.160716  0.000156  1.003742  0.0  0.108764  0.155761  0.000193  1.004947  0.0
H  H21  1  0.14117624  0.12750696  0.46079731  1  0.144786  -4.7e-05  0.94736  0.0  0.157661  -7e-05  1.004146  0.0  0.160497  -2.7e-05  1.003585  0.0  0.10862  0.155702  -0.000107  1.004582  0.0
H  H22  1  0.63986364  0.37297633  0.46044859  1  0.144994  0.000365  0.946839  0.001  0.157865  2.6e-05  1.003527  0.0  0.160686  -7e-06  1.002981  0.0  0.108929  0.155838  4.2e-05  1.004029  0.0
H  H23  1  0.86009149  0.87256102  0.53934361  1  0.145616  0.0002  0.946083  0.0  0.15799  0.000111  1.003167  0.0  0.160797  0.000105  1.002599  0.0  0.108961  0.156055  0.000107  1.003584  0.0
C  C24  1  0.43865314  0.58449994  0.45917680  1  -0.383013  -0.014185  3.653157  -0.015  -0.400081  -0.00827  3.886062  -0.009  -0.411332  -0.005271  3.897991  -0.006  -0.166444  -0.392343  -0.010801  3.878429  -0.011
C  C25  1  0.06125758  0.08461304  0.54085893  1  -0.381133  0.002625  3.650951  0.003  -0.399131  0.00067  3.884414  0.001  -0.410556  0.00044  3.896527  0.0  -0.165622  -0.39095  0.00085  3.876214  0.001
C  C26  1  0.56057528  0.41574566  0.54102879  1  -0.381416  -0.01288  3.652419  -0.013  -0.398488  -0.007443  3.885328  -0.008  -0.409785  -0.004819  3.897361  -0.005  -0.166147  -0.390529  -0.009711  3.877542  -0.01
C  C27  1  0.93955524  0.91568653  0.45895813  1  -0.381689  -0.003723  3.651089  -0.004  -0.398848  -0.001767  3.884621  -0.002  -0.410215  -0.001076  3.896644  -0.001  -0.165688  -0.390537  -0.002394  3.876324  -0.003
O  O28  1  0.13541203  0.73073192  0.16859904  1  -0.858273  -0.069535  2.08267  -0.097  -0.807458  -0.043775  2.38546  -0.065  -0.846023  -0.032589  2.361944  -0.051  -0.380225  -0.778925  -0.051515  2.40017  -0.073
O  O29  1  0.36376681  0.23126016  0.83149181  1  -0.857772  0.058002  2.084532  0.074  -0.807733  0.03988  2.387895  0.055  -0.84667  0.032264  2.364574  0.046  -0.379952  -0.778423  0.042014  2.402479  0.056
O  O30  1  0.86428682  0.26925710  0.83080656  1  -0.85787  -0.068059  2.082313  -0.093  -0.807478  -0.044444  2.385642  -0.064  -0.846112  -0.03365  2.362001  -0.051  -0.380152  -0.778531  -0.051555  2.40001  -0.072
O  O31  1  0.63656938  0.76870348  0.16912410  1  -0.857103  -0.057063  2.084286  -0.08  -0.807034  -0.037607  2.387699  -0.056  -0.846006  -0.029183  2.364234  -0.046  -0.379375  -0.777362  -0.041956  2.402026  -0.06
O  O32  1  0.35679667  0.50572157  0.09700334  1  -0.892787  -0.068319  2.110957  -0.094  -0.868002  -0.041044  2.460034  -0.06  -0.905286  -0.030633  2.430652  -0.047  -0.394975  -0.838448  -0.048166  2.478356  -0.068
O  O33  1  0.14264552  0.00566198  0.90299093  1  -0.892719  -0.067957  2.112223  -0.096  -0.868019  -0.040523  2.461106  -0.061  -0.905325  -0.02957  2.431882  -0.047  -0.394848  -0.838622  -0.04856  2.479303  -0.07
O  O34  1  0.64355683  0.49400377  0.90349484  1  -0.893006  0.070713  2.112815  0.088  -0.867896  0.044367  2.461801  0.059  -0.905352  0.034799  2.432523  0.048  -0.394412  -0.83782  0.049084  2.479846  0.064
O  O35  1  0.85696962  0.99413395  0.09644785  1  -0.892764  -0.065218  2.112471  -0.09  -0.867949  -0.04068  2.461317  -0.06  -0.905414  -0.030359  2.432167  -0.047  -0.394627  -0.838125  -0.047497  2.479334  -0.067
O  O36  1  0.11470367  0.39516344  0.21495125  1  -0.843232  -0.066506  2.050787  -0.092  -0.783904  -0.042401  2.33778  -0.062  -0.822246  -0.032004  2.315209  -0.049  -0.378568  -0.75618  -0.049434  2.352766  -0.069
O  O37  1  0.38518003  0.89563808  0.78547007  1  -0.843253  -0.065302  2.050777  -0.09  -0.783907  -0.042327  2.337643  -0.062  -0.822228  -0.032056  2.315005  -0.049  -0.378149  -0.75591  -0.048862  2.352698  -0.068
O  O38  1  0.88511538  0.60472699  0.78487079  1  -0.842282  -0.04723  2.052731  -0.066  -0.783378  -0.032089  2.339522  -0.047  -0.822081  -0.025464  2.317188  -0.04  -0.377944  -0.754809  -0.035125  2.354239  -0.05
O  O39  1  0.61503131  0.10422977  0.21470755  1  -0.842249  0.049858  2.052572  0.064  -0.783421  0.034465  2.339677  0.047  -0.821977  0.02833  2.317114  0.04  -0.377639  -0.754587  0.035844  2.354203  0.048
O  O40  1  0.69675383  0.94044755  0.72085804  1  -0.77368  -0.078677  1.910323  -0.106  -0.74143  -0.054711  2.124036  -0.078  -0.776552  -0.041487  2.092942  -0.063  -0.566894  -0.717121  -0.062588  2.143749  -0.086
O  O41  1  0.80293491  0.44029837  0.27898837  1  -0.77356  0.078826  1.910536  0.1  -0.741185  0.054994  2.123923  0.076  -0.776379  0.043092  2.092502  0.062  -0.566623  -0.716736  0.060305  2.144054  0.081
O  O42  1  0.30259347  0.05943491  0.27826864  1  -0.773418  -0.078083  1.911438  -0.105  -0.741425  -0.0544  2.125147  -0.078  -0.776665  -0.041339  2.093943  -0.063  -0.566792  -0.716929  -0.062559  2.144869  -0.086
O  O43  1  0.19765235  0.55958806  0.72187407  1  -0.774295  -0.076162  1.91157  -0.103  -0.741954  -0.053329  2.124889  -0.077  -0.777414  -0.040829  2.093438  -0.062  -0.56695  -0.717175  -0.060244  2.145284  -0.083
