# generated using pymatgen
data_CdH13C15NO5
_symmetry_space_group_name_H-M   'P 1'
_cell_length_a   18.09288803
_cell_length_b   18.09292211
_cell_length_c   18.09287007
_cell_angle_alpha   96.00370364
_cell_angle_beta   116.59645797
_cell_angle_gamma   116.59652270
_symmetry_Int_Tables_number   1
_chemical_formula_structural   CdH13C15NO5
_chemical_formula_sum   'Cd8 H104 C120 N8 O40'
_cell_volume   4377.44829110
_cell_formula_units_Z   8
loop_
 _symmetry_equiv_pos_site_id
 _symmetry_equiv_pos_as_xyz
  1  'x, y, z'
loop_
 _atom_site_type_symbol
 _atom_site_label
 _atom_site_symmetry_multiplicity
 _atom_site_fract_x
 _atom_site_fract_y
 _atom_site_fract_z
 _atom_site_occupancy
 _atom_site_pbe_bader_charge
 _atom_site_pbe_bader_spin_density
 _atom_site_pbe_cm5_charge
 _atom_site_pbe_ddec_charge
 _atom_site_pbe_ddec_spin_density
 _atom_site_pbe_ddec_sum_bond_order
 _atom_site_pbe_magmom
Cd  Cd0  1  0.83652329  0.14818183  0.67168148  1  1.257124  0  0.777304  0.938926  0  2.029662  0
Cd  Cd1  1  0.66348395  0.83516173  0.81166039  1  1.254797  0  0.777299  0.938951  0  2.029658  0
Cd  Cd2  1  0.47649664  0.81166001  0.14818060  1  1.255405  0  0.777304  0.938938  0  2.029713  0
Cd  Cd3  1  0.02350176  0.67168180  0.83516110  1  1.257067  0  0.777284  0.938927  0  2.029699  0
Cd  Cd4  1  0.16347874  0.85181786  0.32831982  1  1.257138  0  0.777316  0.938969  0  2.029651  0
Cd  Cd5  1  0.33651932  0.16484120  0.18833903  1  1.254802  0  0.777285  0.938913  0  2.0297  0
Cd  Cd6  1  0.52350023  0.18833986  0.85181840  1  1.255354  0  0.777272  0.938904  0  2.029723  0
Cd  Cd7  1  0.97649863  0.32831691  0.16483825  1  1.25713  0  0.777301  0.938923  0  2.029688  0
H  H8  1  0.95993025  0.07054766  0.71588444  1  0.608745  0  0.310267  0.391578  0  0.921531  0
H  H9  1  0.85784510  0.00086909  0.62746728  1  0.604139  0  0.328384  0.403252  0  0.874488  0
H  H10  1  0.63833087  0.08380063  0.63443585  1  0.061549  0  0.094141  0.138961  0  1.036362  0
H  H11  1  0.58685614  0.10464515  0.69125935  1  0.041316  0  0.093402  0.140106  0  1.025177  0
H  H12  1  0.69082589  0.09675408  0.74825672  1  0.121803  0  0.102949  0.170882  0  0.989549  0
H  H13  1  0.98632486  0.35749907  0.73613209  1  0.074352  0  0.100382  0.156295  0  0.990705  0
H  H14  1  0.94568696  0.42257534  0.68527373  1  0.033602  0  0.097153  0.147755  0  0.992853  0
H  H15  1  0.88265671  0.30669557  0.62312339  1  0.099904  0  0.098835  0.153688  0  1.014156  0
H  H16  1  0.88996298  0.44563023  0.97681045  1  0.085028  0  0.102533  0.114582  0  1.023221  0
H  H17  1  0.88614759  0.55111298  0.07052559  1  0.069606  0  0.100992  0.106534  0  1.004386  0
H  H18  1  0.77679008  0.60505437  0.99974250  1  0.071499  0  0.100135  0.098699  0  1.013891  0
H  H19  1  0.67425735  0.55474903  0.83399034  1  0.06895  0  0.103763  0.109598  0  0.991103  0
H  H20  1  0.67916800  0.44906945  0.73928888  1  0.095092  0  0.103207  0.1058  0  0.998535  0
H  H21  1  0.54008295  0.75595741  0.61062074  1  0.603573  0  0.310243  0.391569  0  0.921583  0
H  H22  1  0.64216973  0.76962755  0.64302978  1  0.613799  0  0.328399  0.403302  0  0.874299  0
H  H23  1  0.86166822  0.99610519  0.94547107  1  0.048041  0  0.094145  0.138962  0  1.036366  0
H  H24  1  0.91314421  0.10440303  0.01779100  1  0.036299  0  0.093395  0.140088  0  1.025212  0
H  H25  1  0.80917507  0.05743163  0.90592944  1  0.095946  0  0.10296  0.170881  0  0.989548  0
H  H26  1  0.51367395  0.74980654  0.87117408  1  0.087666  0  0.100371  0.156259  0  0.990717  0
H  H27  1  0.55431281  0.73958688  0.97688901  1  0.044236  0  0.097142  0.147718  0  0.992846  0
H  H28  1  0.61734377  0.74046735  0.92403962  1  0.070409  0  0.098829  0.153698  0  1.01413  0
H  H29  1  0.61003859  0.08684925  0.05566884  1  0.095773  0  0.10252  0.11455  0  1.023296  0
H  H30  1  0.61385580  0.18438209  0.16496643  1  0.06874  0  0.101005  0.106511  0  1.004397  0
H  H31  1  0.72321094  0.22295321  0.32826507  1  0.048541  0  0.100125  0.098661  0  1.013911  0
H  H32  1  0.82574052  0.15973265  0.38049237  1  0.087454  0  0.103765  0.109596  0  0.991209  0
H  H33  1  0.82082932  0.06011928  0.26990274  1  0.041905  0  0.103212  0.105831  0  0.998482  0
H  H34  1  0.35466542  0.61062157  0.07054101  1  0.605065  0  0.310241  0.391567  0  0.921572  0
H  H35  1  0.37339920  0.64302913  0.00086082  1  0.619862  0  0.328386  0.403295  0  0.874394  0
H  H36  1  0.44936431  0.94547107  0.08380217  1  0.054816  0  0.094141  0.138957  0  1.036379  0
H  H37  1  0.41338467  0.01778922  0.10464556  1  0.036768  0  0.093383  0.140091  0  1.025181  0
H  H38  1  0.34849710  0.90592888  0.09675416  1  0.135438  0  0.10296  0.170882  0  0.989575  0
H  H39  1  0.62136694  0.87117464  0.35749909  1  0.070589  0  0.100371  0.156271  0  0.990715  0
H  H40  1  0.73730235  0.97688955  0.42257647  1  0.060362  0  0.097137  0.147718  0  0.992837  0
H  H41  1  0.68357220  0.92404037  0.30669527  1  0.074286  0  0.098822  0.153675  0  1.014138  0
H  H42  1  0.46881855  0.05566840  0.44562866  1  0.092529  0  0.102522  0.114557  0  1.023288  0
H  H43  1  0.48058317  0.16496499  0.55110972  1  0.070954  0  0.100996  0.106492  0  1.004357  0
H  H44  1  0.60531084  0.32826374  0.60505435  1  0.051968  0  0.100112  0.098657  0  1.013912  0
H  H45  1  0.72076008  0.38049252  0.55475361  1  0.080514  0  0.103776  0.10961  0  0.99119  0
H  H46  1  0.70978440  0.26990347  0.44907447  1  0.066488  0  0.103215  0.105831  0  0.998494  0
H  H47  1  0.14533812  0.71588028  0.75595795  1  0.606061  0  0.31028  0.391619  0  0.921485  0
H  H48  1  0.12659544  0.62746179  0.76962284  1  0.615967  0  0.328431  0.403337  0  0.874029  0
H  H49  1  0.05063399  0.63443703  0.99610473  1  0.062902  0  0.094145  0.138967  0  1.036358  0
H  H50  1  0.08661385  0.69126089  0.10440427  1  0.045391  0  0.093392  0.140096  0  1.025206  0
H  H51  1  0.15150230  0.74825762  0.05743050  1  0.094292  0  0.102926  0.17086  0  0.989572  0
H  H52  1  0.87863344  0.73613351  0.74980838  1  0.079997  0  0.100386  0.156282  0  0.990677  0
H  H53  1  0.76269652  0.68527473  0.73958642  1  0.049913  0  0.097139  0.147716  0  0.992829  0
H  H54  1  0.81642552  0.62312277  0.74046576  1  0.068856  0  0.098814  0.153673  0  1.014158  0
H  H55  1  0.03117894  0.97680741  0.08684685  1  0.092312  0  0.10252  0.114556  0  1.023329  0
H  H56  1  0.01941525  0.07052694  0.18437753  1  0.074538  0  0.10097  0.106484  0  1.004403  0
H  H57  1  0.89468949  0.99974479  0.22295223  1  0.05133  0  0.100131  0.098585  0  1.013813  0
H  H58  1  0.77924287  0.83399454  0.15973558  1  0.080601  0  0.103771  0.109601  0  0.991165  0
H  H59  1  0.79021655  0.73928852  0.06012222  1  0.03465  0  0.103242  0.105842  0  0.998498  0
H  H60  1  0.04007612  0.92945435  0.28411959  1  0.608828  0  0.3103  0.391662  0  0.921435  0
H  H61  1  0.14216045  0.99913343  0.37253533  1  0.604099  0  0.328381  0.403264  0  0.874464  0
H  H62  1  0.36166766  0.91619622  0.36556248  1  0.061566  0  0.094142  0.138947  0  1.036382  0
H  H63  1  0.41314218  0.89535283  0.30873790  1  0.041047  0  0.093386  0.14009  0  1.025204  0
H  H64  1  0.30917141  0.90324353  0.25174113  1  0.121756  0  0.102941  0.170867  0  0.989534  0
H  H65  1  0.01367573  0.64250050  0.26386744  1  0.074357  0  0.100359  0.156251  0  0.990741  0
H  H66  1  0.05431219  0.57742413  0.31472680  1  0.033594  0  0.097156  0.147737  0  0.992843  0
H  H67  1  0.11734306  0.69330452  0.37687637  1  0.099901  0  0.098832  0.153683  0  1.014188  0
H  H68  1  0.11004174  0.55437080  0.02319274  1  0.085211  0  0.102523  0.114579  0  1.023329  0
H  H69  1  0.11385836  0.44889128  0.92947572  1  0.069646  0  0.101014  0.106552  0  1.004392  0
H  H70  1  0.22321216  0.39494618  0.00025898  1  0.071483  0  0.100131  0.098666  0  1.01386  0
H  H71  1  0.32574140  0.44524669  0.16600851  1  0.068732  0  0.10375  0.109583  0  0.991182  0
H  H72  1  0.32083157  0.55092576  0.26071194  1  0.095087  0  0.103235  0.105848  0  0.998455  0
H  H73  1  0.45992341  0.24404660  0.38937908  1  0.603542  0  0.310263  0.391641  0  0.921494  0
H  H74  1  0.35783788  0.23037569  0.35697217  1  0.614334  0  0.328419  0.403318  0  0.874229  0
H  H75  1  0.13833257  0.00389727  0.05452995  1  0.048  0  0.094149  0.138961  0  1.036351  0
H  H76  1  0.08685515  0.89559731  0.98221137  1  0.03611  0  0.093398  0.140084  0  1.0252  0
H  H77  1  0.19082573  0.94257082  0.09407214  1  0.095956  0  0.102945  0.170867  0  0.989571  0
H  H78  1  0.48632293  0.25019133  0.12882361  1  0.087764  0  0.100361  0.156235  0  0.990725  0
H  H79  1  0.44568551  0.26041310  0.02310955  1  0.044233  0  0.097148  0.14773  0  0.992853  0
H  H80  1  0.38265600  0.25953473  0.07596035  1  0.070419  0  0.098836  0.153683  0  1.014109  0
H  H81  1  0.38995705  0.91315139  0.94433135  1  0.09581  0  0.102499  0.114536  0  1.023346  0
H  H82  1  0.38614479  0.81561949  0.83503552  1  0.070469  0  0.100996  0.106543  0  1.004338  0
H  H83  1  0.27678903  0.77704775  0.67173599  1  0.048574  0  0.100124  0.098659  0  1.013901  0
H  H84  1  0.17425759  0.84026646  0.61950600  1  0.087468  0  0.10377  0.109597  0  0.991208  0
H  H85  1  0.17916797  0.93988033  0.73009476  1  0.041895  0  0.103239  0.105862  0  0.998421  0
H  H86  1  0.64533166  0.38937918  0.92945762  1  0.605358  0  0.310256  0.391584  0  0.921546  0
H  H87  1  0.62660119  0.35696958  0.99913852  1  0.619879  0  0.328384  0.403289  0  0.874394  0
H  H88  1  0.55063360  0.05452917  0.91619733  1  0.054778  0  0.09415  0.138973  0  1.036372  0
H  H89  1  0.58661489  0.98221199  0.89535478  1  0.036789  0  0.093379  0.140089  0  1.025227  0
H  H90  1  0.65150143  0.09407198  0.90324513  1  0.135451  0  0.102944  0.170867  0  0.989588  0
H  H91  1  0.37863220  0.12882483  0.64250034  1  0.070463  0  0.100379  0.15627  0  0.990726  0
H  H92  1  0.26269741  0.02311053  0.57742330  1  0.060342  0  0.09715  0.147721  0  0.992836  0
H  H93  1  0.31642653  0.07595936  0.69330344  1  0.074387  0  0.098805  0.153637  0  1.014165  0
H  H94  1  0.53118143  0.94433056  0.55437108  1  0.09256  0  0.102519  0.114585  0  1.02331  0
H  H95  1  0.51941577  0.83503361  0.44888952  1  0.070959  0  0.101016  0.106521  0  1.004386  0
H  H96  1  0.39468893  0.67173435  0.39494631  1  0.051818  0  0.10013  0.098645  0  1.013926  0
H  H97  1  0.27923969  0.61950757  0.44524726  1  0.080523  0  0.103766  0.109602  0  0.991199  0
H  H98  1  0.29021495  0.73009687  0.55092459  1  0.066407  0  0.10324  0.105857  0  0.998449  0
H  H99  1  0.85466248  0.28411730  0.24404248  1  0.606033  0  0.310277  0.391632  0  0.921467  0
H  H100  1  0.87340372  0.37253568  0.23037914  1  0.615992  0  0.328381  0.403254  0  0.874135  0
H  H101  1  0.94936742  0.36556404  0.00389753  1  0.062852  0  0.094138  0.138958  0  1.03636  0
H  H102  1  0.91338694  0.30874156  0.89559676  1  0.045445  0  0.093415  0.140118  0  1.025143  0
H  H103  1  0.84849808  0.25174309  0.94256961  1  0.0938  0  0.102943  0.170876  0  0.989575  0
H  H104  1  0.12136818  0.26386843  0.25019296  1  0.079999  0  0.100374  0.15629  0  0.99071  0
H  H105  1  0.23730366  0.31472710  0.26041482  1  0.049926  0  0.097147  0.147737  0  0.992831  0
H  H106  1  0.18357342  0.37687783  0.25953479  1  0.068796  0  0.098846  0.15371  0  1.014086  0
H  H107  1  0.96882249  0.02318966  0.91315389  1  0.09205  0  0.102528  0.114577  0  1.023197  0
H  H108  1  0.98058720  0.92947450  0.81562137  1  0.074318  0  0.100988  0.106499  0  1.004365  0
H  H109  1  0.10531131  0.00025766  0.77704549  1  0.051269  0  0.100117  0.098543  0  1.013879  0
H  H110  1  0.22075669  0.16600868  0.84026386  1  0.080664  0  0.103778  0.109612  0  0.991141  0
H  H111  1  0.20978074  0.26071109  0.93987749  1  0.034651  0  0.103239  0.105851  0  0.998518  0
C  C112  1  0.91694245  0.49490910  0.78685500  1  1.577178  0  0.194676  0.584173  0  4.24507  0
C  C113  1  0.64980287  0.25245248  0.80119751  1  1.57545  0  0.192895  0.578524  0  4.245607  0
C  C114  1  0.72046779  0.28203871  0.77224200  1  0.04781  0  -0.004606  -0.154034  0  3.902665  0
C  C115  1  0.72428727  0.21891481  0.72471698  1  0.507194  0  0.128382  0.307143  0  3.957359  0
C  C116  1  0.65640205  0.12086178  0.69852466  1  -0.084942  0  -0.245847  -0.475304  0  3.921667  0
C  C117  1  0.85165055  0.33296525  0.72043256  1  0.512619  0  0.122591  0.295134  0  3.977497  0
C  C118  1  0.92044062  0.35653771  0.68938266  1  -0.088167  0  -0.241115  -0.470915  0  3.936696  0
C  C119  1  0.84998420  0.39832342  0.76716363  1  0.020172  0  -0.008507  -0.160214  0  3.913935  0
C  C120  1  0.78507746  0.37334009  0.79567156  1  -0.043415  0  0.021856  0.078354  0  3.946845  0
C  C121  1  0.78469759  0.44005903  0.85131551  1  -0.041307  0  -0.012161  0.058552  0  3.986986  0
C  C122  1  0.84246218  0.46906235  0.94484370  1  -0.049304  0  -0.088707  -0.124862  0  3.943149  0
C  C123  1  0.83932735  0.52799961  0.99794161  1  -0.076833  0  -0.096103  -0.09109  0  4.030796  0
C  C124  1  0.77815103  0.55824218  0.95810291  1  -0.089443  0  -0.097001  -0.105006  0  4.048881  0
C  C125  1  0.72074476  0.53000426  0.86496681  1  -0.007246  0  -0.094195  -0.085699  0  4.01785  0
C  C126  1  0.72407580  0.47123982  0.81187259  1  -0.050862  0  -0.08734  -0.118613  0  3.96173  0
C  C127  1  0.58305554  0.86991217  0.07796589  1  1.572179  0  0.194673  0.584209  0  4.245117  0
C  C128  1  0.85019714  0.15139524  0.10265032  1  1.573312  0  0.192917  0.578524  0  4.245614  0
C  C129  1  0.77953052  0.05177404  0.06157101  1  -0.014555  0  -0.004599  -0.154016  0  3.902665  0
C  C130  1  0.77571386  0.00043008  0.99462836  1  0.502181  0  0.1284  0.307151  0  3.957392  0
C  C131  1  0.84359833  0.04212339  0.96446071  1  -0.033054  0  -0.245841  -0.475272  0  3.921726  0
C  C132  1  0.64834861  0.86878279  0.98131497  1  0.504465  0  0.122572  0.293877  0  3.979337  0
C  C133  1  0.57955956  0.76894286  0.93609805  1  -0.071332  0  -0.241106  -0.470472  0  3.937031  0
C  C134  1  0.65001340  0.91717918  0.04833951  1  0.07664  0  -0.00846  -0.159792  0  3.914358  0
C  C135  1  0.71491671  0.01059360  0.08825871  1  -0.047659  0  0.021845  0.078367  0  3.946911  0
C  C136  1  0.71530511  0.06661907  0.15536515  1  -0.068393  0  -0.012123  0.058528  0  3.987125  0
C  C137  1  0.65753738  0.10238124  0.12659908  1  -0.053431  0  -0.088708  -0.12483  0  3.942979  0
C  C138  1  0.66067197  0.15861487  0.18867275  1  -0.058767  0  -0.096133  -0.091076  0  4.030753  0
C  C139  1  0.72184775  0.17995204  0.28008991  1  -0.072119  0  -0.097027  -0.104988  0  4.048932  0
C  C140  1  0.77925304  0.14422247  0.30926205  1  -0.07787  0  -0.094182  -0.085702  0  4.01788  0
C  C141  1  0.77592248  0.08779688  0.24716510  1  0.063458  0  -0.087351  -0.118623  0  3.961824  0
C  C142  1  0.70805551  0.07796775  0.49490999  1  1.577374  0  0.194655  0.584208  0  4.244999  0
C  C143  1  0.45125484  0.10265019  0.25245351  1  1.577303  0  0.192872  0.57845  0  4.245617  0
C  C144  1  0.50979648  0.06157108  0.28204021  1  -0.038171  0  -0.004554  -0.153972  0  3.902513  0
C  C145  1  0.49419753  0.99462910  0.21891424  1  0.507113  0  0.128372  0.307204  0  3.957258  0
C  C146  1  0.42233612  0.96446037  0.12086258  1  -0.088009  0  -0.245836  -0.475269  0  3.921749  0
C  C147  1  0.61253334  0.98131657  0.33296523  1  0.517638  0  0.122567  0.293988  0  3.979271  0
C  C148  1  0.66715539  0.93609832  0.35653830  1  -0.086743  0  -0.241085  -0.470466  0  3.93697  0
C  C149  1  0.63116142  0.04834102  0.39832497  1  0.023434  0  -0.008499  -0.159931  0  3.914454  0
C  C150  1  0.57766529  0.08826069  0.37334155  1  0.036585  0  0.021847  0.078383  0  3.946906  0
C  C151  1  0.58874460  0.15536563  0.44005808  1  -0.015889  0  -0.012087  0.058612  0  3.987103  0
C  C152  1  0.52421815  0.12659885  0.46906180  1  -0.043618  0  -0.088721  -0.124876  0  3.943024  0
C  C153  1  0.53005677  0.18867199  0.52800038  1  -0.113165  0  -0.096119  -0.091002  0  4.030768  0
C  C154  1  0.60013778  0.28008895  0.55824336  1  -0.017885  0  -0.097032  -0.10504  0  4.049028  0
C  C155  1  0.66503981  0.30926250  0.53000974  1  -0.062161  0  -0.094173  -0.085641  0  4.01784  0
C  C156  1  0.65936704  0.24716595  0.47124186  1  -0.045692  0  -0.087382  -0.118696  0  3.96178  0
C  C157  1  0.79194360  0.78685232  0.86991425  1  1.565746  0  0.19468  0.584294  0  4.244631  0
C  C158  1  0.04875077  0.80120288  0.15139584  1  1.588251  0  0.19303  0.57871  0  4.245221  0
C  C159  1  0.99020485  0.77224432  0.05177476  1  -0.002857  0  -0.004561  -0.153992  0  3.902607  0
C  C160  1  0.00580039  0.72471559  0.00042985  1  0.527024  0  0.128383  0.307165  0  3.957307  0
C  C161  1  0.07766332  0.69852619  0.04212329  1  -0.056713  0  -0.24584  -0.475302  0  3.921606  0
C  C162  1  0.88746368  0.72043030  0.86878211  1  0.50509  0  0.122559  0.293908  0  3.979281  0
C  C163  1  0.83284286  0.68938196  0.76894295  1  -0.070198  0  -0.241072  -0.470454  0  3.937005  0
C  C164  1  0.86883625  0.76716202  0.91717957  1  0.006072  0  -0.008463  -0.159798  0  3.914328  0
C  C165  1  0.92233375  0.79567551  0.01059537  1  -0.005294  0  0.021832  0.078311  0  3.946934  0
C  C166  1  0.91125534  0.85131268  0.06662059  1  -0.030153  0  -0.01209  0.058563  0  3.987105  0
C  C167  1  0.97578092  0.94484455  0.10238107  1  -0.06252  0  -0.088747  -0.124878  0  3.943164  0
C  C168  1  0.96994207  0.99794230  0.15861352  1  -0.060162  0  -0.096061  -0.090978  0  4.030884  0
C  C169  1  0.89986258  0.95810581  0.17995111  1  -0.02767  0  -0.097031  -0.104876  0  4.048838  0
C  C170  1  0.83496141  0.86497062  0.14422332  1  -0.07747  0  -0.094206  -0.085716  0  4.017795  0
C  C171  1  0.84062951  0.81187333  0.08779732  1  0.003628  0  -0.087394  -0.118666  0  3.961752  0
C  C172  1  0.08305897  0.50508996  0.21314762  1  1.576606  0  0.194659  0.584216  0  4.244738  0
C  C173  1  0.35019649  0.74754586  0.19880023  1  1.575496  0  0.192885  0.578505  0  4.245543  0
C  C174  1  0.27953095  0.71795901  0.22775596  1  0.047814  0  -0.004594  -0.154066  0  3.902661  0
C  C175  1  0.27571311  0.78108389  0.27528348  1  0.507341  0  0.128421  0.307201  0  3.957347  0
C  C176  1  0.34359627  0.87913620  0.30147313  1  -0.084594  0  -0.245834  -0.47526  0  3.921599  0
C  C177  1  0.14835128  0.66703356  0.27956800  1  0.512481  0  0.122563  0.295096  0  3.977641  0
C  C178  1  0.07956059  0.64346248  0.31061776  1  -0.088143  0  -0.241102  -0.470848  0  3.936717  0
C  C179  1  0.15001536  0.60167380  0.23283630  1  0.020388  0  -0.00848  -0.160232  0  3.914056  0
C  C180  1  0.21491901  0.62665804  0.20432487  1  -0.043542  0  0.021912  0.078435  0  3.946941  0
C  C181  1  0.21531044  0.55994196  0.14868916  1  -0.041229  0  -0.012107  0.05863  0  3.987189  0
C  C182  1  0.15753924  0.53093871  0.05515802  1  -0.04938  0  -0.088716  -0.124883  0  3.943098  0
C  C183  1  0.16067407  0.47199946  0.00205879  1  -0.076888  0  -0.096184  -0.091188  0  4.030865  0
C  C184  1  0.22184895  0.44175878  0.04189649  1  -0.089375  0  -0.096999  -0.104964  0  4.048928  0
C  C185  1  0.27925523  0.46999069  0.13503196  1  -0.007341  0  -0.094147  -0.085647  0  4.01771  0
C  C186  1  0.27592377  0.52875539  0.18812824  1  -0.050764  0  -0.087428  -0.118746  0  3.9618  0
C  C187  1  0.41693741  0.13008712  0.92202799  1  1.572013  0  0.194721  0.584434  0  4.244491  0
C  C188  1  0.14980159  0.84860448  0.89735060  1  1.573307  0  0.19292  0.578542  0  4.245558  0
C  C189  1  0.22046780  0.94822594  0.93842920  1  -0.014522  0  -0.00461  -0.154031  0  3.902677  0
C  C190  1  0.22428487  0.99956964  0.00537091  1  0.501994  0  0.128455  0.307215  0  3.95745  0
C  C191  1  0.15640123  0.95787783  0.03554018  1  -0.032886  0  -0.245854  -0.47528  0  3.921735  0
C  C192  1  0.35164559  0.13121774  0.01868069  1  0.504385  0  0.122586  0.293986  0  3.97918  0
C  C193  1  0.42043773  0.23105676  0.06389945  1  -0.071448  0  -0.241071  -0.470438  0  3.93698  0
C  C194  1  0.34998121  0.08282109  0.95165630  1  0.073343  0  -0.008497  -0.159862  0  3.914192  0
C  C195  1  0.28507811  0.98940554  0.91173819  1  -0.044179  0  0.021855  0.078356  0  3.946872  0
C  C196  1  0.28468991  0.93337895  0.84463338  1  -0.068734  0  -0.012076  0.058663  0  3.987173  0
C  C197  1  0.34246115  0.89761962  0.87340022  1  -0.052956  0  -0.088728  -0.124892  0  3.943194  0
C  C198  1  0.33932594  0.84138536  0.81132731  1  -0.060626  0  -0.096108  -0.091114  0  4.03079  0
C  C199  1  0.27815222  0.82004892  0.71991060  1  -0.072133  0  -0.097075  -0.105036  0  4.049001  0
C  C200  1  0.22074528  0.85577751  0.69073706  1  -0.077879  0  -0.094151  -0.085654  0  4.017821  0
C  C201  1  0.22407605  0.91220397  0.75283308  1  0.063431  0  -0.087383  -0.118691  0  3.961778  0
C  C202  1  0.29194529  0.92203270  0.50508973  1  1.577377  0  0.194707  0.584272  0  4.244957  0
C  C203  1  0.54874554  0.89735052  0.74754660  1  1.5773  0  0.192879  0.578488  0  4.245604  0
C  C204  1  0.49020329  0.93842901  0.71796011  1  -0.038168  0  -0.00459  -0.154078  0  3.902715  0
C  C205  1  0.50580202  0.00537211  0.78108500  1  0.507095  0  0.128395  0.307209  0  3.957473  0
C  C206  1  0.57766220  0.03553961  0.87913708  1  -0.087975  0  -0.245819  -0.475252  0  3.921774  0
C  C207  1  0.38746643  0.01868351  0.66703454  1  0.517636  0  0.122575  0.293955  0  3.979237  0
C  C208  1  0.33284355  0.06390028  0.64346039  1  -0.086703  0  -0.241072  -0.470408  0  3.937027  0
C  C209  1  0.36883876  0.95165881  0.60167440  1  0.023422  0  -0.008472  -0.159854  0  3.914324  0
C  C210  1  0.42233386  0.91173878  0.62665898  1  0.036607  0  0.021886  0.078455  0  3.946927  0
C  C211  1  0.41125496  0.84463359  0.55994095  1  -0.015854  0  -0.012132  0.058515  0  3.987088  0
C  C212  1  0.47578183  0.87340011  0.53093850  1  -0.04362  0  -0.088749  -0.124954  0  3.943118  0
C  C213  1  0.46994279  0.81132723  0.47199921  1  -0.113171  0  -0.096115  -0.091  0  4.030749  0
C  C214  1  0.39986220  0.71991001  0.44175694  1  -0.017701  0  -0.097026  -0.104986  0  4.048976  0
C  C215  1  0.33496037  0.69073733  0.46999019  1  -0.061752  0  -0.094182  -0.085676  0  4.017782  0
C  C216  1  0.34063108  0.75283316  0.52875762  1  -0.046113  0  -0.087408  -0.118681  0  3.961672  0
C  C217  1  0.20805494  0.21314452  0.13008905  1  1.566164  0  0.194671  0.58426  0  4.245022  0
C  C218  1  0.95125642  0.19880262  0.84860616  1  1.588175  0  0.192939  0.578586  0  4.245483  0
C  C219  1  0.00979821  0.22775773  0.94822724  1  -0.00285  0  -0.00459  -0.153968  0  3.902627  0
C  C220  1  0.99419979  0.27528424  0.99957173  1  0.526871  0  0.128386  0.307154  0  3.957342  0
C  C221  1  0.92233872  0.30147549  0.95787822  1  -0.056198  0  -0.245871  -0.475325  0  3.9216  0
C  C222  1  0.11253588  0.27956891  0.13121803  1  0.505561  0  0.122559  0.293975  0  3.979305  0
C  C223  1  0.16715690  0.31061813  0.23105792  1  -0.070155  0  -0.241093  -0.470542  0  3.936968  0
C  C224  1  0.13116269  0.23283657  0.08282188  1  0.005532  0  -0.008508  -0.15987  0  3.914363  0
C  C225  1  0.07766561  0.20432283  0.98940625  1  -0.005296  0  0.02185  0.078352  0  3.946958  0
C  C226  1  0.08874650  0.14868613  0.93338273  1  -0.02974  0  -0.012096  0.058579  0  3.987148  0
C  C227  1  0.02422091  0.05515626  0.89761914  1  -0.062244  0  -0.088745  -0.124901  0  3.943111  0
C  C228  1  0.03006121  0.00205862  0.84138846  1  -0.060008  0  -0.096133  -0.091053  0  4.030862  0
C  C229  1  0.10013739  0.04189515  0.82004663  1  -0.027325  0  -0.096976  -0.104757  0  4.048747  0
C  C230  1  0.16503752  0.13503198  0.85577579  1  -0.077965  0  -0.094173  -0.085695  0  4.017765  0
C  C231  1  0.15937088  0.18812737  0.91220334  1  0.003431  0  -0.087413  -0.118726  0  3.96187  0
N  N232  1  0.79079787  0.24565279  0.70186967  1  -1.234436  0  -0.328501  -0.364373  0  3.429593  0
N  N233  1  0.70920154  0.91107330  0.95485621  1  -1.231908  0  -0.328524  -0.363971  0  3.430016  0
N  N234  1  0.54378238  0.95485627  0.24565341  1  -1.23092  0  -0.328507  -0.364049  0  3.42999  0
N  N235  1  0.95621571  0.70187014  0.91107336  1  -1.241389  0  -0.3285  -0.363976  0  3.429993  0
N  N236  1  0.20920128  0.75434468  0.29812844  1  -1.234538  0  -0.328516  -0.364396  0  3.429688  0
N  N237  1  0.29079575  0.08892632  0.04514185  1  -1.231824  0  -0.328551  -0.364059  0  3.430105  0
N  N238  1  0.45621677  0.04514320  0.75434602  1  -1.230927  0  -0.328542  -0.364055  0  3.430143  0
N  N239  1  0.04378550  0.29813005  0.08892873  1  -1.241484  0  -0.328482  -0.363966  0  3.430076  0
O  O240  1  0.00710719  0.53868045  0.85371380  1  -1.162454  0  -0.327954  -0.554391  0  2.130975  0
O  O241  1  0.87977180  0.52952658  0.73639616  1  -1.145935  0  -0.327745  -0.551771  0  2.14215  0
O  O242  1  0.67632542  0.23588618  0.87213343  1  -1.132508  0  -0.318322  -0.532869  0  2.155696  0
O  O243  1  0.56743358  0.24504564  0.75453204  1  -1.150904  0  -0.331778  -0.556661  0  2.121937  0
O  O244  1  0.90987641  0.06446140  0.65838569  1  -1.174414  0  -0.563953  -0.732748  0  1.998791  0
O  O245  1  0.49289149  0.84660796  0.03157368  1  -1.152584  0  -0.327965  -0.554406  0  2.131028  0
O  O246  1  0.62022417  0.85662264  0.14975275  1  -1.144945  0  -0.327717  -0.551757  0  2.142156  0
O  O247  1  0.82367442  0.19580798  0.05956071  1  -1.134427  0  -0.318337  -0.53287  0  2.155701  0
O  O248  1  0.93256719  0.18709864  0.17761209  1  -1.149978  0  -0.331799  -0.556687  0  2.121947  0
O  O249  1  0.59013782  0.74851612  0.65459088  1  -1.178968  0  -0.563919  -0.732759  0  1.998721  0
O  O250  1  0.68496837  0.03157532  0.53868221  1  -1.154458  0  -0.327933  -0.554381  0  2.130935  0
O  O251  1  0.79313268  0.14975494  0.52952787  1  -1.147292  0  -0.32773  -0.551757  0  2.142158  0
O  O252  1  0.36375225  0.05956001  0.23588555  1  -1.13498  0  -0.318324  -0.532836  0  2.155644  0
O  O253  1  0.49051263  0.17761121  0.24504508  1  -1.150702  0  -0.331789  -0.55666  0  2.12194  0
O  O254  1  0.40607475  0.65459200  0.06445419  1  -1.186337  0  -0.563907  -0.732753  0  1.998788  0
O  O255  1  0.81503255  0.85371292  0.84660891  1  -1.152498  0  -0.327974  -0.55445  0  2.130861  0
O  O256  1  0.70686667  0.73639468  0.85662502  1  -1.139876  0  -0.32775  -0.551844  0  2.141973  0
O  O257  1  0.13624823  0.87214054  0.19580855  1  -1.143321  0  -0.31842  -0.532994  0  2.155604  0
O  O258  1  0.00949519  0.75453451  0.18710135  1  -1.155264  0  -0.331849  -0.556723  0  2.121722  0
O  O259  1  0.09392486  0.65838334  0.74851405  1  -1.183162  0  -0.563995  -0.73286  0  1.998338  0
O  O260  1  0.99289464  0.46131836  0.14628731  1  -1.162421  0  -0.327953  -0.554402  0  2.130895  0
O  O261  1  0.12022962  0.47047249  0.26360645  1  -1.145529  0  -0.327733  -0.551768  0  2.141904  0
O  O262  1  0.32367414  0.76411304  0.12786450  1  -1.132584  0  -0.318366  -0.532888  0  2.155673  0
O  O263  1  0.43256660  0.75495419  0.24546623  1  -1.1509  0  -0.331781  -0.556668  0  2.121907  0
O  O264  1  0.09013038  0.93554035  0.34161629  1  -1.174442  0  -0.563975  -0.732844  0  1.998705  0
O  O265  1  0.50710126  0.15339046  0.96842001  1  -1.152286  0  -0.327972  -0.554522  0  2.130865  0
O  O266  1  0.37976796  0.14337716  0.85024191  1  -1.14502  0  -0.327756  -0.551848  0  2.141887  0
O  O267  1  0.17632411  0.80419087  0.94043893  1  -1.13444  0  -0.31833  -0.532881  0  2.155677  0
O  O268  1  0.06743154  0.81290108  0.82238939  1  -1.149987  0  -0.331808  -0.556691  0  2.121961  0
O  O269  1  0.40986792  0.25148728  0.34540914  1  -1.179473  0  -0.56397  -0.732868  0  1.998551  0
O  O270  1  0.31503284  0.96842688  0.46131787  1  -1.154514  0  -0.327959  -0.554444  0  2.130895  0
O  O271  1  0.20686936  0.85024474  0.47047177  1  -1.147244  0  -0.32775  -0.55179  0  2.142198  0
O  O272  1  0.63624875  0.94043931  0.76411414  1  -1.135002  0  -0.318346  -0.532873  0  2.155658  0
O  O273  1  0.50948734  0.82238975  0.75495542  1  -1.150668  0  -0.331759  -0.556634  0  2.12191  0
O  O274  1  0.59392336  0.34540911  0.93554605  1  -1.186655  0  -0.563922  -0.732766  0  1.998751  0
O  O275  1  0.18496681  0.14628542  0.15339436  1  -1.152324  0  -0.327961  -0.55444  0  2.130969  0
O  O276  1  0.29313124  0.26360355  0.14337759  1  -1.140237  0  -0.32773  -0.551784  0  2.142202  0
O  O277  1  0.86375483  0.12786551  0.80419166  1  -1.143072  0  -0.31835  -0.532925  0  2.155655  0
O  O278  1  0.99051448  0.24546946  0.81290270  1  -1.155389  0  -0.33181  -0.556701  0  2.121906  0
O  O279  1  0.90607595  0.34161511  0.25148656  1  -1.183168  0  -0.563955  -0.732803  0  1.998401  0
