# generated using pymatgen
data_H11PbC13N7O
_symmetry_space_group_name_H-M   'P 1'
_cell_length_a   7.35493020
_cell_length_b   9.71142575
_cell_length_c   10.31620607
_cell_angle_alpha   88.52554628
_cell_angle_beta   78.35019628
_cell_angle_gamma   73.90761449
_symmetry_Int_Tables_number   1
_chemical_formula_structural   H11PbC13N7O
_chemical_formula_sum   'H22 Pb2 C26 N14 O2'
_cell_volume   693.03880807
_cell_formula_units_Z   2
loop_
 _symmetry_equiv_pos_site_id
 _symmetry_equiv_pos_as_xyz
  1  'x, y, z'
loop_
 _atom_site_type_symbol
 _atom_site_label
 _atom_site_symmetry_multiplicity
 _atom_site_fract_x
 _atom_site_fract_y
 _atom_site_fract_z
 _atom_site_occupancy
 _atom_site_pbe_bader_spin_density
 _atom_site_pbe_cm5_charge
 _atom_site_pbe_ddec_charge
 _atom_site_pbe_ddec_spin_density
 _atom_site_pbe_ddec_sum_bond_order
 _atom_site_pbe_magmom
H  H0  1  0.63438030  0.94037037  0.44898174  1  0  0.113241  0.088368  0  1.069684  0
H  H1  1  0.36561464  0.05960601  0.55098684  1  0  0.113438  0.088585  0  1.069644  0
H  H2  1  0.81781588  0.05418629  0.04766130  1  0  0.106317  0.102769  0  1.034365  0
H  H3  1  0.18226444  0.94582921  0.95233237  1  0  0.106313  0.102655  0  1.034476  0
H  H4  1  0.00621094  0.79490888  0.99931972  1  0  0.104316  0.105764  0  1.057389  0
H  H5  1  0.99385238  0.20510055  0.00065238  1  0  0.104315  0.105969  0  1.057501  0
H  H6  1  0.99647604  0.62212542  0.18379446  1  0  0.112538  0.081163  0  1.003131  0
H  H7  1  0.00351823  0.37786264  0.81615637  1  0  0.112457  0.081077  0  1.003149  0
H  H8  1  0.69353587  0.41008435  0.99818293  1  0  0.096168  0.143459  0  1.013828  0
H  H9  1  0.30642139  0.58991965  0.00181926  1  0  0.096179  0.143469  0  1.013589  0
H  H10  1  0.85738216  0.43836799  0.08936632  1  0  0.098077  0.141312  0  1.015385  0
H  H11  1  0.14259877  0.56164924  0.91060873  1  0  0.098108  0.141283  0  1.015413  0
H  H12  1  0.72162578  0.58592576  0.01054058  1  0  0.087753  0.127176  0  1.067697  0
H  H13  1  0.27831424  0.41408632  0.98944735  1  0  0.087691  0.127086  0  1.06778  0
H  H14  1  0.10505970  0.79608985  0.49617390  1  0  0.111099  0.072043  0  1.019379  0
H  H15  1  0.89487535  0.20387358  0.50382802  1  0  0.110962  0.071951  0  1.01934  0
H  H16  1  0.10465407  0.02465928  0.37333234  1  0  0.106369  0.109266  0  1.010936  0
H  H17  1  0.89524218  0.97531405  0.62667003  1  0  0.106428  0.10922  0  1.010801  0
H  H18  1  0.32918596  0.00913689  0.15471930  1  0  0.106395  0.106157  0  1.014983  0
H  H19  1  0.67075424  0.99086480  0.84530579  1  0  0.106426  0.106147  0  1.014975  0
H  H20  1  0.54518348  0.77055388  0.06494329  1  0  0.10654  0.116828  0  1.026894  0
H  H21  1  0.45481058  0.22946211  0.93508418  1  0  0.106522  0.116694  0  1.026714  0
Pb  Pb22  1  0.30190921  0.42218964  0.49046274  1  0  0.576411  0.800696  0  2.214548  0
Pb  Pb23  1  0.69824912  0.57783213  0.50953784  1  0  0.57638  0.800771  0  2.214094  0
C  C24  1  0.71638786  0.91284477  0.34838524  1  0  0.046374  0.059537  0  3.928042  0
C  C25  1  0.28361908  0.08713622  0.65158339  1  0  0.046155  0.05935  0  3.927735  0
C  C26  1  0.71552980  0.01823444  0.25291058  1  0  -0.008962  -0.049196  0  3.97741  0
C  C27  1  0.28450248  0.98175593  0.74706763  1  0  -0.008914  -0.049183  0  3.977395  0
C  C28  1  0.82049711  0.97545974  0.12476982  1  0  -0.061151  -0.048177  0  3.907349  0
C  C29  1  0.17955046  0.02454074  0.87520875  1  0  -0.061194  -0.048169  0  3.907755  0
C  C30  1  0.92424357  0.83206798  0.09830559  1  0  -0.087063  -0.135772  0  3.977225  0
C  C31  1  0.07579071  0.16793096  0.90166137  1  0  -0.087004  -0.136  0  3.977502  0
C  C32  1  0.91723222  0.73534382  0.20028678  1  0  0.044907  0.093289  0  3.958623  0
C  C33  1  0.08276753  0.26464443  0.79966907  1  0  0.044787  0.093205  0  3.958563  0
C  C34  1  0.59970251  0.16807518  0.29225424  1  0  0.217684  0.406628  0  4.167821  0
C  C35  1  0.40035541  0.83191710  0.70774346  1  0  0.217628  0.40668  0  4.167328  0
C  C36  1  0.56287371  0.51197593  0.18780255  1  0  0.128466  0.194702  0  3.930661  0
C  C37  1  0.43712477  0.48802580  0.81219955  1  0  0.128458  0.19448  0  3.930874  0
C  C38  1  0.71566635  0.48830176  0.06418193  1  0  -0.245379  -0.44611  0  3.938702  0
C  C39  1  0.28430111  0.51170775  0.93580793  1  0  -0.245383  -0.445881  0  3.938311  0
C  C40  1  0.43950012  0.65621695  0.23468722  1  0  0.114048  0.144196  0  4.019291  0
C  C41  1  0.56048908  0.34378036  0.76532608  1  0  0.114165  0.144366  0  4.019278  0
C  C42  1  0.20174195  0.79603818  0.40063007  1  0  0.050612  0.105244  0  3.990198  0
C  C43  1  0.79820343  0.20394070  0.59937662  1  0  0.050809  0.105589  0  3.990245  0
C  C44  1  0.20110567  0.92202027  0.33242675  1  0  -0.081841  -0.117096  0  3.948686  0
C  C45  1  0.79881956  0.07796032  0.66758183  1  0  -0.081998  -0.117209  0  3.948609  0
C  C46  1  0.32620174  0.91229658  0.20995499  1  0  -0.066904  -0.020734  0  3.957824  0
C  C47  1  0.67375119  0.08769776  0.79006269  1  0  -0.067008  -0.020844  0  3.957862  0
C  C48  1  0.44640563  0.77876369  0.16022799  1  0  -0.08072  -0.149641  0  3.915576  0
C  C49  1  0.55357359  0.22124104  0.83979231  1  0  -0.080639  -0.149407  0  3.915281  0
N  N50  1  0.81365641  0.77440668  0.32327368  1  0  -0.308612  -0.263277  0  3.441156  0
N  N51  1  0.18633455  0.22557593  0.67668073  1  0  -0.308508  -0.263179  0  3.440709  0
N  N52  1  0.64592948  0.27095499  0.21400891  1  0  -0.251244  -0.332427  0  3.273376  0
N  N53  1  0.35408226  0.72904141  0.78597207  1  0  -0.251043  -0.332278  0  3.273257  0
N  N54  1  0.53317318  0.40360018  0.25923363  1  0  -0.200202  -0.17998  0  3.539349  0
N  N55  1  0.46685128  0.59639242  0.74076697  1  0  -0.200298  -0.18006  0  3.539285  0
N  N56  1  0.31646261  0.66747483  0.35400925  1  0  -0.304146  -0.317128  0  3.474479  0
N  N57  1  0.68352002  0.33251145  0.64599858  1  0  -0.304238  -0.317348  0  3.474183  0
N  N58  1  0.06326489  0.40103972  0.37320300  1  0  -0.263848  -0.503829  0  2.92525  0
N  N59  1  0.93682116  0.59900278  0.62686842  1  0  -0.263484  -0.503344  0  2.924764  0
N  N60  1  0.12244931  0.33235405  0.26971152  1  0  0.094687  0.414357  0  4.479199  0
N  N61  1  0.87755056  0.66768853  0.73035880  1  0  0.094602  0.414356  0  4.47974  0
N  N62  1  0.17579545  0.26670288  0.16955472  1  0  -0.173621  -0.362065  0  2.646328  0
N  N63  1  0.82411362  0.73333755  0.83051621  1  0  -0.173812  -0.362278  0  2.646655  0
O  O64  1  0.46840733  0.18548317  0.39810484  1  0  -0.28825  -0.48751  0  2.312487  0
O  O65  1  0.53171296  0.81451642  0.60192817  1  0  -0.288357  -0.487767  0  2.312338  0
