# generated using pymatgen
data_CuH4C5N4
_symmetry_space_group_name_H-M   'P 1'
_cell_length_a   7.98209284
_cell_length_b   8.75127717
_cell_length_c   8.96546072
_cell_angle_alpha   111.79139465
_cell_angle_beta   90.00009819
_cell_angle_gamma   90.00056942
_symmetry_Int_Tables_number   1
_chemical_formula_structural   CuH4C5N4
_chemical_formula_sum   'Cu4 H16 C20 N16'
_cell_volume   581.51669559
_cell_formula_units_Z   4
loop_
 _symmetry_equiv_pos_site_id
 _symmetry_equiv_pos_as_xyz
  1  'x, y, z'
loop_
 _atom_site_type_symbol
 _atom_site_label
 _atom_site_symmetry_multiplicity
 _atom_site_fract_x
 _atom_site_fract_y
 _atom_site_fract_z
 _atom_site_occupancy
 _atom_site_hle17_bader_spin_density
 _atom_site_hle17_ddec_charge
 _atom_site_hle17_ddec_spin_density
 _atom_site_hle17_ddec_sum_bond_order
 _atom_site_hle17_magmom
 _atom_site_hse06_10hf_bader_spin_density
 _atom_site_hse06_10hf_ddec_charge
 _atom_site_hse06_10hf_ddec_spin_density
 _atom_site_hse06_10hf_ddec_sum_bond_order
 _atom_site_hse06_10hf_magmom
 _atom_site_hse06_bader_spin_density
 _atom_site_hse06_ddec_charge
 _atom_site_hse06_ddec_spin_density
 _atom_site_hse06_ddec_sum_bond_order
 _atom_site_hse06_magmom
 _atom_site_pbe_bader_spin_density
 _atom_site_pbe_cm5_charge
 _atom_site_pbe_ddec_charge
 _atom_site_pbe_ddec_spin_density
 _atom_site_pbe_ddec_sum_bond_order
 _atom_site_pbe_magmom
Cu  Cu0  1  0.86487998  0.43267089  0.38212528  1  0  0.507389  0  1.979569  0  0  0.399642  0  2.484709  0  0  0.389926  0  2.446788  0  0  0.578847  0.411643  0  2.505952  0
Cu  Cu1  1  0.36487975  0.06733886  0.11787944  1  0  0.507372  0  1.979401  0  0  0.399647  0  2.484518  0  0  0.389931  0  2.44658  0  0  0.578866  0.411637  0  2.505771  0
Cu  Cu2  1  0.13512125  0.56732946  0.61787523  1  0  0.507406  0  1.979549  0  0  0.399667  0  2.484695  0  0  0.389937  0  2.446767  0  0  0.578852  0.411658  0  2.505945  0
Cu  Cu3  1  0.63512023  0.93266273  0.88212040  1  0  0.507366  0  1.979443  0  0  0.39965  0  2.484556  0  0  0.389939  0  2.446627  0  0  0.578867  0.411634  0  2.505794  0
H  H4  1  0.51201672  0.50484179  0.33183275  1  0  0.078442  0  0.968245  0  0  0.082776  0  1.040691  0  0  0.08569  0  1.037895  0  0  0.109893  0.080612  0  1.04283  0
H  H5  1  0.01201624  0.99515666  0.16817155  1  0  0.078465  0  0.968272  0  0  0.082805  0  1.040695  0  0  0.085712  0  1.037913  0  0  0.109916  0.080647  0  1.042828  0
H  H6  1  0.48798451  0.49515733  0.66816620  1  0  0.07839  0  0.968337  0  0  0.08275  0  1.040748  0  0  0.085662  0  1.037961  0  0  0.109896  0.080585  0  1.042885  0
H  H7  1  0.98798249  0.00484247  0.83182741  1  0  0.078411  0  0.968345  0  0  0.082772  0  1.040746  0  0  0.085676  0  1.037969  0  0  0.109921  0.080615  0  1.042874  0
H  H8  1  0.33864381  0.75250425  0.39661568  1  0  0.107076  0  0.967776  0  0  0.11559  0  1.03124  0  0  0.118482  0  1.031041  0  0  0.105383  0.113528  0  1.031595  0
H  H9  1  0.83864389  0.74748921  0.10338497  1  0  0.10709  0  0.967813  0  0  0.115549  0  1.031323  0  0  0.11846  0  1.031077  0  0  0.105347  0.113489  0  1.031676  0
H  H10  1  0.66135617  0.24749364  0.60338617  1  0  0.107101  0  0.967795  0  0  0.115587  0  1.031276  0  0  0.118481  0  1.031071  0  0  0.105378  0.113524  0  1.031632  0
H  H11  1  0.16135609  0.25250992  0.89661287  1  0  0.107041  0  0.967835  0  0  0.115526  0  1.031332  0  0  0.118438  0  1.031082  0  0  0.105356  0.113463  0  1.031696  0
H  H12  1  0.79344440  0.04053625  0.54555844  1  0  0.104813  0  0.959458  0  0  0.11782  0  1.016434  0  0  0.120036  0  1.016739  0  0  0.107125  0.116358  0  1.016026  0
H  H13  1  0.29344795  0.45947123  0.95444776  1  0  0.104721  0  0.959555  0  0  0.117798  0  1.016448  0  0  0.120017  0  1.016736  0  0  0.107112  0.11633  0  1.016046  0
H  H14  1  0.20655433  0.95946287  0.45444051  1  0  0.104822  0  0.959439  0  0  0.117834  0  1.016412  0  0  0.120052  0  1.016709  0  0  0.107134  0.116371  0  1.016005  0
H  H15  1  0.70655203  0.54052912  0.04555387  1  0  0.104732  0  0.95951  0  0  0.117816  0  1.016391  0  0  0.120031  0  1.01669  0  0  0.107118  0.116347  0  1.015992  0
H  H16  1  0.94733278  0.77899939  0.47598547  1  0  0.080349  0  0.954345  0  0  0.085925  0  1.025308  0  0  0.089731  0  1.021022  0  0  0.111503  0.082935  0  1.029  0
H  H17  1  0.44733400  0.72101250  0.02402311  1  0  0.080292  0  0.954276  0  0  0.085865  0  1.025277  0  0  0.089664  0  1.021008  0  0  0.111487  0.082881  0  1.028957  0
H  H18  1  0.05266595  0.22100097  0.52401282  1  0  0.080365  0  0.954276  0  0  0.085904  0  1.025284  0  0  0.089711  0  1.020997  0  0  0.111502  0.082917  0  1.028968  0
H  H19  1  0.55266598  0.27898908  0.97597897  1  0  0.080285  0  0.954315  0  0  0.085861  0  1.025305  0  0  0.08966  0  1.021035  0  0  0.111482  0.082877  0  1.028986  0
C  C20  1  0.56933950  0.62654824  0.38005342  1  0  0.111487  0  3.700017  0  0  0.084104  0  3.953299  0  0  0.091155  0  3.967405  0  0  0.0334  0.079072  0  3.945148  0
C  C21  1  0.06933883  0.87345208  0.11995162  1  0  0.111414  0  3.700092  0  0  0.084034  0  3.953371  0  0  0.091097  0  3.967453  0  0  0.033344  0.079  0  3.945217  0
C  C22  1  0.43065923  0.37344965  0.61994620  1  0  0.111542  0  3.700026  0  0  0.084149  0  3.953285  0  0  0.091192  0  3.967403  0  0  0.033421  0.07912  0  3.945138  0
C  C23  1  0.93066115  0.12654951  0.88004711  1  0  0.111365  0  3.700121  0  0  0.083983  0  3.953463  0  0  0.091058  0  3.967525  0  0  0.033288  0.078945  0  3.945315  0
C  C24  1  0.47304726  0.76758196  0.41598984  1  0  -0.140736  0  3.69221  0  0  -0.161201  0  3.940166  0  0  -0.167938  0  3.960515  0  0  -0.08284  -0.1573  0  3.927101  0
C  C25  1  0.97304713  0.73241545  0.08401352  1  0  -0.140787  0  3.692244  0  0  -0.161148  0  3.94015  0  0  -0.167891  0  3.960513  0  0  -0.082813  -0.157244  0  3.927086  0
C  C26  1  0.52695397  0.23241593  0.58401202  1  0  -0.140832  0  3.69212  0  0  -0.161232  0  3.940117  0  0  -0.167964  0  3.960464  0  0  -0.08286  -0.157331  0  3.927055  0
C  C27  1  0.02695285  0.26758491  0.91598477  1  0  -0.140617  0  3.692225  0  0  -0.161033  0  3.940173  0  0  -0.167779  0  3.960543  0  0  -0.08277  -0.157133  0  3.927109  0
C  C28  1  0.54901448  0.92357974  0.47859734  1  0  0.09502  0  3.740661  0  0  0.103926  0  3.975802  0  0  0.109702  0  3.993598  0  0  0.010019  0.100662  0  3.96247  0
C  C29  1  0.04901411  0.57641789  0.02140558  1  0  0.095094  0  3.74075  0  0  0.103869  0  3.975977  0  0  0.109648  0  3.993777  0  0  0.010047  0.100611  0  3.962645  0
C  C30  1  0.45098300  0.07641815  0.52140451  1  0  0.095087  0  3.740586  0  0  0.103842  0  3.975821  0  0  0.109618  0  3.993616  0  0  0.010014  0.100582  0  3.962491  0
C  C31  1  0.95098462  0.42358000  0.97859404  1  0  0.095052  0  3.740767  0  0  0.103854  0  3.975987  0  0  0.109632  0  3.993791  0  0  0.01001  0.100595  0  3.962657  0
C  C32  1  0.72388970  0.92563054  0.49933860  1  0  -0.146532  0  3.70604  0  0  -0.169879  0  3.961877  0  0  -0.174867  0  3.979467  0  0  -0.08368  -0.166552  0  3.949053  0
C  C33  1  0.22388802  0.57437395  0.00066591  1  0  -0.146486  0  3.706148  0  0  -0.169843  0  3.961954  0  0  -0.174823  0  3.979535  0  0  -0.083664  -0.166517  0  3.94914  0
C  C34  1  0.27610903  0.07436858  0.50066258  1  0  -0.146617  0  3.706053  0  0  -0.169941  0  3.961928  0  0  -0.174926  0  3.979513  0  0  -0.083727  -0.166615  0  3.949109  0
C  C35  1  0.77611322  0.42562640  0.99933460  1  0  -0.14651  0  3.706167  0  0  -0.169868  0  3.961971  0  0  -0.17485  0  3.979554  0  0  -0.083657  -0.166544  0  3.94916  0
C  C36  1  0.81204118  0.77950738  0.45929167  1  0  0.115856  0  3.702743  0  0  0.088338  0  3.954522  0  0  0.094948  0  3.968527  0  0  0.035069  0.083403  0  3.946556  0
C  C37  1  0.31204118  0.72050055  0.04071531  1  0  0.115943  0  3.702602  0  0  0.088426  0  3.95442  0  0  0.09503  0  3.968419  0  0  0.035111  0.083499  0  3.946435  0
C  C38  1  0.18795880  0.22049298  0.54070885  1  0  0.115891  0  3.70266  0  0  0.088402  0  3.954441  0  0  0.095013  0  3.968441  0  0  0.035108  0.083476  0  3.946466  0
C  C39  1  0.68795881  0.27949981  0.95928520  1  0  0.115948  0  3.702614  0  0  0.088438  0  3.954429  0  0  0.095042  0  3.968432  0  0  0.03513  0.083517  0  3.946431  0
N  N40  1  0.73720279  0.63031138  0.40066444  1  0  -0.303864  0  3.407315  0  0  -0.231492  0  3.70336  0  0  -0.240158  0  3.710762  0  0  -0.371465  -0.226858  0  3.697952  0
N  N41  1  0.23720579  0.86969819  0.09934192  1  0  -0.303809  0  3.407183  0  0  -0.231516  0  3.7033  0  0  -0.240178  0  3.710692  0  0  -0.37144  -0.226875  0  3.697889  0
N  N42  1  0.26279720  0.36968898  0.59933496  1  0  -0.303859  0  3.407343  0  0  -0.231492  0  3.703394  0  0  -0.240155  0  3.710787  0  0  -0.371479  -0.226861  0  3.697986  0
N  N43  1  0.76279419  0.13030340  0.90065792  1  0  -0.303767  0  3.407116  0  0  -0.231484  0  3.703248  0  0  -0.240152  0  3.71065  0  0  -0.371449  -0.226843  0  3.697826  0
N  N44  1  0.10844576  0.48323526  0.34264575  1  0  -0.506091  0  2.855603  0  0  -0.476557  0  3.19055  0  0  -0.481242  0  3.186599  0  0  -0.312137  -0.474964  0  3.193396  0
N  N45  1  0.60845223  0.01678027  0.15736188  1  0  -0.505901  0  2.856151  0  0  -0.476369  0  3.191117  0  0  -0.48103  0  3.187119  0  0  -0.311995  -0.474786  0  3.193962  0
N  N46  1  0.89155422  0.51676509  0.65735588  1  0  -0.506072  0  2.855692  0  0  -0.47654  0  3.190619  0  0  -0.481224  0  3.186673  0  0  -0.312089  -0.474948  0  3.193463  0
N  N47  1  0.39154900  0.98322132  0.84263908  1  0  -0.505958  0  2.856179  0  0  -0.476437  0  3.191145  0  0  -0.4811  0  3.187157  0  0  -0.312025  -0.474852  0  3.193985  0
N  N48  1  0.20832120  0.38569878  0.26322616  1  0  0.394895  0  4.197048  0  0  0.435291  0  4.457145  0  0  0.446649  0  4.488696  0  0  0.070443  0.428111  0  4.436495  0
N  N49  1  0.70831764  0.11429694  0.23676771  1  0  0.394881  0  4.197111  0  0  0.435277  0  4.457179  0  0  0.446639  0  4.488732  0  0  0.070427  0.428097  0  4.43653  0
N  N50  1  0.79168003  0.61430034  0.73677279  1  0  0.394948  0  4.196952  0  0  0.435346  0  4.457047  0  0  0.446705  0  4.488593  0  0  0.070438  0.428167  0  4.436393  0
N  N51  1  0.29168109  0.88570465  0.76323214  1  0  0.394948  0  4.197026  0  0  0.435351  0  4.457106  0  0  0.446714  0  4.488658  0  0  0.070444  0.428171  0  4.436453  0
N  N52  1  0.18652889  0.79585991  0.68470488  1  0  -0.498286  0  2.872044  0  0  -0.474448  0  3.213691  0  0  -0.482304  0  3.213236  0  0  -0.311678  -0.47081  0  3.213532  0
N  N53  1  0.68654778  0.70413655  0.81528790  1  0  -0.49818  0  2.872547  0  0  -0.474292  0  3.214117  0  0  -0.48214  0  3.213663  0  0  -0.311636  -0.470662  0  3.213947  0
N  N54  1  0.81347109  0.20414045  0.31529341  1  0  -0.498277  0  2.872128  0  0  -0.47442  0  3.213742  0  0  -0.482282  0  3.213295  0  0  -0.311689  -0.470787  0  3.213591  0
N  N55  1  0.31345220  0.29586627  0.18471239  1  0  -0.498118  0  2.872716  0  0  -0.474223  0  3.214276  0  0  -0.48207  0  3.213818  0  0  -0.311605  -0.470598  0  3.214121  0
