# generated using pymatgen
data_AgH21C28(NO)2
_symmetry_space_group_name_H-M   'P 1'
_cell_length_a   7.68109380
_cell_length_b   10.44296996
_cell_length_c   30.09906584
_cell_angle_alpha   90.00070773
_cell_angle_beta   89.99995060
_cell_angle_gamma   90.00032393
_symmetry_Int_Tables_number   1
_chemical_formula_structural   AgH21C28(NO)2
_chemical_formula_sum   'Ag4 H84 C112 N8 O8'
_cell_volume   2414.34936520
_cell_formula_units_Z   4
loop_
 _symmetry_equiv_pos_site_id
 _symmetry_equiv_pos_as_xyz
  1  'x, y, z'
loop_
 _atom_site_type_symbol
 _atom_site_label
 _atom_site_symmetry_multiplicity
 _atom_site_fract_x
 _atom_site_fract_y
 _atom_site_fract_z
 _atom_site_occupancy
 _atom_site_pbe_bader_charge
 _atom_site_pbe_bader_spin_density
 _atom_site_pbe_cm5_charge
 _atom_site_pbe_ddec_charge
 _atom_site_pbe_ddec_spin_density
 _atom_site_pbe_ddec_sum_bond_order
 _atom_site_pbe_magmom
Ag  Ag0  1  0.52986853  0.61244799  0.51059785  1  0.61425  0  0.474143  0.386097  0  1.904985  0
Ag  Ag1  1  0.02986342  0.38754596  0.48940406  1  0.614193  0  0.474113  0.386082  0  1.904988  0
Ag  Ag2  1  0.02985318  0.88754374  0.01059859  1  0.614076  0  0.474169  0.386176  0  1.904917  0
Ag  Ag3  1  0.52985273  0.11245883  0.98939901  1  0.614024  0  0.474146  0.386178  0  1.904897  0
H  H4  1  0.45706008  0.81358297  0.12053702  1  0.061046  0  0.09623  0.092695  0  1.030574  0
H  H5  1  0.95706060  0.18642336  0.87946382  1  0.060243  0  0.09621  0.092669  0  1.030616  0
H  H6  1  0.95707337  0.68641544  0.62053294  1  0.060784  0  0.096215  0.09268  0  1.030485  0
H  H7  1  0.45706294  0.31358418  0.37946623  1  0.060165  0  0.096188  0.092618  0  1.030566  0
H  H8  1  0.44463706  0.78476865  0.89821558  1  0.072162  0  0.097343  0.09228  0  1.041743  0
H  H9  1  0.94463299  0.21522709  0.10178360  1  0.072161  0  0.097298  0.092228  0  1.041874  0
H  H10  1  0.94463167  0.71522226  0.39821747  1  0.072096  0  0.097295  0.092221  0  1.041877  0
H  H11  1  0.44464099  0.28476773  0.60178370  1  0.072184  0  0.097333  0.092211  0  1.041746  0
H  H12  1  0.44831769  0.78614708  0.81572099  1  0.072161  0  0.101257  0.103926  0  1.017071  0
H  H13  1  0.94828725  0.21385346  0.18427819  1  0.094403  0  0.101218  0.103906  0  1.016945  0
H  H14  1  0.94829146  0.71384381  0.31572288  1  0.094382  0  0.101209  0.103881  0  1.016998  0
H  H15  1  0.44831479  0.28613854  0.68427763  1  0.072281  0  0.101345  0.104028  0  1.017044  0
H  H16  1  0.90607701  0.68673737  0.47429021  1  0.04832  0  0.086357  0.131881  0  1.053982  0
H  H17  1  0.40606861  0.31326107  0.52570898  1  0.048327  0  0.086323  0.131818  0  1.053964  0
H  H18  1  0.40606179  0.81325223  0.97429043  1  0.048238  0  0.086283  0.131753  0  1.05407  0
H  H19  1  0.90606040  0.18675771  0.02570643  1  0.048194  0  0.086308  0.131879  0  1.054025  0
H  H20  1  0.92046079  0.81887289  0.51209166  1  0.046279  0  0.090181  0.146045  0  0.998621  0
H  H21  1  0.42044506  0.18112944  0.48790553  1  0.046273  0  0.090171  0.145946  0  0.998683  0
H  H22  1  0.42045434  0.68112153  0.01209217  1  0.046131  0  0.090126  0.145886  0  0.998609  0
H  H23  1  0.92045542  0.31888655  0.98790435  1  0.046256  0  0.090156  0.14589  0  0.998572  0
H  H24  1  0.90636581  0.65733583  0.53150720  1  0.027036  0  0.088207  0.136314  0  1.035762  0
H  H25  1  0.40635916  0.34266837  0.46849232  1  0.026922  0  0.088203  0.136258  0  1.035758  0
H  H26  1  0.40635274  0.84265922  0.03150708  1  0.027002  0  0.088204  0.136251  0  1.035794  0
H  H27  1  0.90635270  0.15734784  0.96849011  1  0.026971  0  0.088203  0.136254  0  1.035809  0
H  H28  1  0.44869786  0.82200251  0.20311535  1  0.103374  0  0.100467  0.103986  0  1.020467  0
H  H29  1  0.94870124  0.17801240  0.79688582  1  0.103523  0  0.100521  0.104094  0  1.020439  0
H  H30  1  0.94871499  0.67798346  0.70311091  1  0.103517  0  0.100576  0.104101  0  1.020394  0
H  H31  1  0.44870755  0.32201422  0.29688827  1  0.103418  0  0.100555  0.104063  0  1.020488  0
H  H32  1  0.42245447  0.78535830  0.67113578  1  0.112511  0  0.10545  0.11524  0  1.03244  0
H  H33  1  0.92243389  0.21465075  0.32886507  1  0.111885  0  0.105431  0.115195  0  1.03251  0
H  H34  1  0.92243214  0.71465802  0.17113767  1  0.111909  0  0.105421  0.115185  0  1.032522  0
H  H35  1  0.42243408  0.28534049  0.82886052  1  0.111973  0  0.10539  0.115105  0  1.032599  0
H  H36  1  0.41968418  0.78324153  0.58803386  1  0.127219  0  0.11791  0.099015  0  1.019483  0
H  H37  1  0.91967111  0.21676272  0.41196699  1  0.127552  0  0.117897  0.098995  0  1.019449  0
H  H38  1  0.91965015  0.71676706  0.08803542  1  0.127466  0  0.117973  0.098985  0  1.019484  0
H  H39  1  0.41965957  0.28323623  0.91196243  1  0.127569  0  0.117958  0.099019  0  1.019456  0
H  H40  1  0.41904422  0.81624526  0.35426123  1  0.088954  0  0.103674  0.112431  0  1.045396  0
H  H41  1  0.91904823  0.18376186  0.64574328  1  0.088972  0  0.103727  0.112525  0  1.045412  0
H  H42  1  0.91904317  0.68373538  0.85426046  1  0.089273  0  0.103636  0.112437  0  1.045451  0
H  H43  1  0.41903887  0.31625833  0.14573972  1  0.088873  0  0.103646  0.112428  0  1.045494  0
H  H44  1  0.42778496  0.80509474  0.43720032  1  0.108306  0  0.120164  0.095582  0  0.996176  0
H  H45  1  0.92778286  0.19490763  0.56280484  1  0.108401  0  0.120158  0.095619  0  0.996118  0
H  H46  1  0.92776576  0.69489748  0.93719960  1  0.108124  0  0.120179  0.095546  0  0.996223  0
H  H47  1  0.42775780  0.30510489  0.06280091  1  0.10807  0  0.120153  0.095585  0  0.996257  0
H  H48  1  0.58684784  0.60661827  0.93999289  1  0.083083  0  0.110096  0.117902  0  0.995  0
H  H49  1  0.08684705  0.39337689  0.06000736  1  0.083127  0  0.110099  0.117948  0  0.994955  0
H  H50  1  0.08684946  0.89337258  0.43999498  1  0.083012  0  0.110126  0.118003  0  0.994848  0
H  H51  1  0.58685584  0.10662258  0.56000227  1  0.082865  0  0.110122  0.117978  0  0.994943  0
H  H52  1  0.72410056  0.45713276  0.58272731  1  0.155341  0  0.114036  0.095567  0  1.031387  0
H  H53  1  0.22411121  0.54286012  0.41727424  1  0.155341  0  0.113994  0.095547  0  1.031362  0
H  H54  1  0.22409569  0.04286044  0.08272589  1  0.15546  0  0.114006  0.095546  0  1.031429  0
H  H55  1  0.72410437  0.95713818  0.91727133  1  0.155447  0  0.113986  0.095471  0  1.031325  0
H  H56  1  0.74092811  0.47602756  0.35195474  1  0.090497  0  0.103633  0.112388  0  1.032177  0
H  H57  1  0.24094294  0.52397879  0.64804581  1  0.090339  0  0.10365  0.112477  0  1.032038  0
H  H58  1  0.24091595  0.02396467  0.85195803  1  0.090749  0  0.103696  0.112436  0  1.032082  0
H  H59  1  0.74092124  0.97603593  0.14803820  1  0.09055  0  0.103754  0.112471  0  1.032122  0
H  H60  1  0.74083235  0.44369268  0.66597139  1  0.087191  0  0.105321  0.114615  0  1.026635  0
H  H61  1  0.24082779  0.55631176  0.33403015  1  0.087235  0  0.105356  0.114641  0  1.026569  0
H  H62  1  0.24083798  0.05630927  0.16597003  1  0.087147  0  0.10534  0.114603  0  1.026672  0
H  H63  1  0.74083518  0.94369134  0.83402686  1  0.087097  0  0.105382  0.114577  0  1.026661  0
H  H64  1  0.74111844  0.43339941  0.81615211  1  0.093913  0  0.100333  0.1027  0  1.029406  0
H  H65  1  0.24107939  0.56660503  0.18385076  1  0.094112  0  0.100377  0.102745  0  1.029491  0
H  H66  1  0.24109681  0.06659252  0.31615379  1  0.094292  0  0.100332  0.102665  0  1.029297  0
H  H67  1  0.74112315  0.93339564  0.68384012  1  0.094053  0  0.100313  0.102729  0  1.029343  0
H  H68  1  0.73706444  0.45654636  0.12656398  1  0.087734  0  0.097421  0.095467  0  1.03397  0
H  H69  1  0.23707724  0.54345806  0.87344388  1  0.087883  0  0.097501  0.09568  0  1.033861  0
H  H70  1  0.23706935  0.04345514  0.62656703  1  0.088068  0  0.097451  0.095491  0  1.033988  0
H  H71  1  0.73705150  0.95654162  0.37343385  1  0.087838  0  0.097485  0.095552  0  1.033967  0
H  H72  1  0.60666578  0.63261972  0.08198392  1  0.099427  0  0.104047  0.115711  0  1.024633  0
H  H73  1  0.10667320  0.36737743  0.91801964  1  0.099302  0  0.104073  0.115701  0  1.024581  0
H  H74  1  0.10668221  0.86738061  0.58198371  1  0.099443  0  0.104074  0.115703  0  1.024625  0
H  H75  1  0.60666589  0.13261847  0.41801653  1  0.099436  0  0.104059  0.115706  0  1.024598  0
H  H76  1  0.73542117  0.43188883  0.89850583  1  0.086337  0  0.103713  0.103439  0  1.007876  0
H  H77  1  0.23540588  0.56811271  0.10149638  1  0.086445  0  0.103706  0.103416  0  1.007758  0
H  H78  1  0.23541387  0.06810502  0.39850718  1  0.086421  0  0.103693  0.103426  0  1.007794  0
H  H79  1  0.73543140  0.93189269  0.60148706  1  0.086211  0  0.103683  0.103466  0  1.007701  0
H  H80  1  0.72392164  0.46199260  0.20902934  1  0.08154  0  0.101509  0.104579  0  1.017052  0
H  H81  1  0.22395034  0.53801560  0.79097652  1  0.082289  0  0.101506  0.104598  0  1.016989  0
H  H82  1  0.22392912  0.03800027  0.70903270  1  0.082359  0  0.101536  0.104574  0  1.017016  0
H  H83  1  0.72391292  0.96199452  0.29096885  1  0.081911  0  0.101501  0.104558  0  1.017038  0
H  H84  1  0.73761724  0.48114059  0.43512544  1  0.109728  0  0.111881  0.084655  0  1.049543  0
H  H85  1  0.23763105  0.51885809  0.56487544  1  0.109708  0  0.111879  0.084681  0  1.049495  0
H  H86  1  0.23759203  0.01885552  0.93512804  1  0.109821  0  0.111936  0.084782  0  1.04959  0
H  H87  1  0.73758856  0.98114795  0.06486885  1  0.109989  0  0.111913  0.084736  0  1.049663  0
C  C88  1  0.51583134  0.73657086  0.13984974  1  -0.007846  0  -0.091279  -0.081387  0  4.01329  0
C  C89  1  0.01583169  0.26342782  0.86015185  1  -0.006995  0  -0.091316  -0.081435  0  4.013129  0
C  C90  1  0.01583918  0.76342346  0.63984742  1  -0.007569  0  -0.091295  -0.081312  0  4.013027  0
C  C91  1  0.51583166  0.23657331  0.36015317  1  -0.006919  0  -0.091251  -0.081221  0  4.01294  0
C  C92  1  0.50933593  0.70757492  0.88034741  1  0.0359  0  -0.090053  -0.082712  0  4.017474  0
C  C93  1  0.00931854  0.29242277  0.11965385  1  0.035857  0  -0.089992  -0.082714  0  4.017729  0
C  C94  1  0.00932379  0.79241828  0.38034807  1  0.035779  0  -0.089964  -0.082677  0  4.017546  0
C  C95  1  0.50933458  0.20757271  0.61965053  1  0.035881  0  -0.089927  -0.082361  0  4.017123  0
C  C96  1  0.15911439  0.70629684  0.50560823  1  1.536285  0  0.17768  0.656018  0  4.195124  0
C  C97  1  0.65910548  0.29370054  0.49439100  1  1.536046  0  0.177665  0.655971  0  4.195301  0
C  C98  1  0.65910046  0.79370580  0.00560781  1  1.536507  0  0.177535  0.655714  0  4.195424  0
C  C99  1  0.15910118  0.20630307  0.99439010  1  1.536251  0  0.177565  0.65588  0  4.195465  0
C  C100  1  0.51147114  0.70918189  0.83411242  1  -0.101054  0  -0.082192  -0.127045  0  3.938103  0
C  C101  1  0.01143663  0.29082156  0.16588750  1  -0.123138  0  -0.08227  -0.127013  0  3.938178  0
C  C102  1  0.01144466  0.79081352  0.33411374  1  -0.123098  0  -0.082294  -0.12712  0  3.938088  0
C  C103  1  0.51146831  0.20917269  0.66588585  1  -0.101001  0  -0.082391  -0.127303  0  3.938287  0
C  C104  1  0.96175794  0.72010116  0.50576534  1  -0.062934  0  -0.25992  -0.537233  0  3.942016  0
C  C105  1  0.46174682  0.27990040  0.49423318  1  -0.062862  0  -0.259824  -0.536901  0  3.94184  0
C  C106  1  0.46174441  0.77989418  0.00576561  1  -0.062869  0  -0.259731  -0.536726  0  3.941783  0
C  C107  1  0.96174343  0.22011313  0.99423157  1  -0.062934  0  -0.259742  -0.536841  0  3.941771  0
C  C108  1  0.51059113  0.74194753  0.18605451  1  -0.1625  0  -0.083992  -0.130472  0  3.94177  0
C  C109  1  0.01059683  0.25806070  0.81394675  1  -0.162449  0  -0.084026  -0.130562  0  3.941778  0
C  C110  1  0.01060284  0.75804361  0.68605183  1  -0.162925  0  -0.084183  -0.130826  0  3.941854  0
C  C111  1  0.51059684  0.24195409  0.31394643  1  -0.162716  0  -0.084128  -0.130786  0  3.941645  0
C  C112  1  0.49168004  0.71094347  0.65301212  1  0.005176  0  -0.079244  -0.169005  0  3.914081  0
C  C113  1  0.99166516  0.28906204  0.34698937  1  0.005816  0  -0.079163  -0.16878  0  3.914005  0
C  C114  1  0.99166608  0.78906485  0.15301301  1  0.005778  0  -0.079172  -0.168829  0  3.914073  0
C  C115  1  0.49166870  0.21093397  0.84698384  1  0.005643  0  -0.079135  -0.168746  0  3.913978  0
C  C116  1  0.49055790  0.71094457  0.60690803  1  0.436107  0  0.041871  0.075926  0  3.953416  0
C  C117  1  0.99055064  0.28905615  0.39309313  1  0.436415  0  0.041892  0.07594  0  3.953352  0
C  C118  1  0.99053222  0.78906116  0.10690892  1  0.436638  0  0.041826  0.075991  0  3.953466  0
C  C119  1  0.49053727  0.21093957  0.89308826  1  0.435916  0  0.041884  0.075957  0  3.953482  0
C  C120  1  0.49113260  0.74031711  0.37080310  1  -0.049304  0  -0.079412  -0.171117  0  3.915477  0
C  C121  1  0.99113723  0.25968840  0.62920206  1  -0.049189  0  -0.079403  -0.171005  0  3.915303  0
C  C122  1  0.99113341  0.75966633  0.87080366  1  -0.049919  0  -0.079398  -0.171154  0  3.91541  0
C  C123  1  0.49112470  0.24032865  0.12919717  1  -0.049362  0  -0.079376  -0.171091  0  3.915405  0
C  C124  1  0.49651063  0.73495835  0.41685003  1  0.501681  0  0.046729  0.087008  0  3.944866  0
C  C125  1  0.99651027  0.26504623  0.58315413  1  0.502277  0  0.046756  0.086908  0  3.944711  0
C  C126  1  0.99649846  0.76503249  0.91684962  1  0.50169  0  0.046716  0.08703  0  3.944806  0
C  C127  1  0.49648859  0.23496730  0.08314989  1  0.501701  0  0.046734  0.086892  0  3.944889  0
C  C128  1  0.58881118  0.60773226  0.90377117  1  -0.060758  0  -0.078736  -0.068118  0  3.948314  0
C  C129  1  0.08879591  0.39226769  0.09623007  1  -0.060347  0  -0.078712  -0.068149  0  3.948554  0
C  C130  1  0.08879977  0.89226402  0.40377259  1  -0.060298  0  -0.078654  -0.068051  0  3.948256  0
C  C131  1  0.58881513  0.10773114  0.59622466  1  -0.061079  0  -0.078875  -0.068486  0  3.948443  0
C  C132  1  0.58301950  0.61410094  0.67587873  1  0.064963  0  0.012676  0.16703  0  4.10531  0
C  C133  1  0.08300591  0.38590474  0.32412318  1  0.065024  0  0.012527  0.166677  0  4.105316  0
C  C134  1  0.08302107  0.88590260  0.17587879  1  0.065005  0  0.012588  0.166791  0  4.105335  0
C  C135  1  0.58301866  0.11409445  0.82411813  1  0.064827  0  0.012659  0.167017  0  4.105121  0
C  C136  1  0.59463215  0.60981815  0.81039053  1  0.087362  0  -0.004588  0.116257  0  4.123153  0
C  C137  1  0.09459177  0.39018374  0.18961004  1  0.088913  0  -0.004691  0.116126  0  4.123252  0
C  C138  1  0.09461422  0.89017294  0.31039162  1  0.08684  0  -0.004547  0.116357  0  4.122935  0
C  C139  1  0.59463053  0.10980980  0.68960564  1  0.087063  0  -0.004516  0.116263  0  4.123017  0
C  C140  1  0.58834416  0.61116870  0.72278715  1  -0.112568  0  -0.045691  -0.117878  0  4.092693  0
C  C141  1  0.08831775  0.38883987  0.27721342  1  -0.112419  0  -0.045482  -0.117526  0  4.092759  0
C  C142  1  0.08836007  0.88882694  0.22278790  1  -0.112409  0  -0.045638  -0.117849  0  4.092762  0
C  C143  1  0.58835522  0.11116439  0.77720969  1  -0.112328  0  -0.045703  -0.117965  0  4.092428  0
C  C144  1  0.58591722  0.64262774  0.21146471  1  0.084235  0  -0.006571  0.115789  0  4.133302  0
C  C145  1  0.08593157  0.35737795  0.78853853  1  0.084134  0  -0.00648  0.115827  0  4.133138  0
C  C146  1  0.08592967  0.85735505  0.71146413  1  0.084305  0  -0.006564  0.115937  0  4.133073  0
C  C147  1  0.58591783  0.14263340  0.28853446  1  0.084516  0  -0.006562  0.115951  0  4.133176  0
C  C148  1  0.59344752  0.61010651  0.76334389  1  -0.296687  0  -0.029908  -0.072735  0  4.085293  0
C  C149  1  0.09340695  0.38989921  0.23665668  1  -0.296749  0  -0.029864  -0.072765  0  4.085647  0
C  C150  1  0.09344000  0.88988196  0.26334530  1  -0.296771  0  -0.029881  -0.072676  0  4.08532  0
C  C151  1  0.59345222  0.11009790  0.73665195  1  -0.296867  0  -0.029913  -0.072673  0  4.085059  0
C  C152  1  0.57969140  0.64774467  0.29898172  1  -0.094536  0  -0.04748  -0.12141  0  4.103557  0
C  C153  1  0.07970474  0.35226673  0.70102185  1  -0.094446  0  -0.047518  -0.121453  0  4.103537  0
C  C154  1  0.07970771  0.85223351  0.79898178  1  -0.094521  0  -0.047534  -0.121621  0  4.104032  0
C  C155  1  0.57969364  0.14775491  0.20101713  1  -0.094581  0  -0.047503  -0.121614  0  4.103698  0
C  C156  1  0.58167686  0.64632291  0.25842099  1  -0.323666  0  -0.029874  -0.07319  0  4.088724  0
C  C157  1  0.08169397  0.35369042  0.74158158  1  -0.323819  0  -0.029838  -0.073124  0  4.088884  0
C  C158  1  0.08169709  0.85365673  0.75842172  1  -0.32364  0  -0.029843  -0.073007  0  4.088879  0
C  C159  1  0.58167895  0.14633266  0.24157753  1  -0.323611  0  -0.029802  -0.072929  0  4.088686  0
C  C160  1  0.66098087  0.52787437  0.60403511  1  0.389328  0  0.037695  0.074  0  3.954536  0
C  C161  1  0.16098717  0.47212207  0.39596645  1  0.389307  0  0.03773  0.074067  0  3.954336  0
C  C162  1  0.16097526  0.97212506  0.10403455  1  0.388517  0  0.037685  0.073911  0  3.954736  0
C  C163  1  0.66097585  0.02787616  0.89596269  1  0.389421  0  0.037794  0.074088  0  3.954528  0
C  C164  1  0.67069747  0.55102554  0.36953020  1  0.056832  0  -0.08199  -0.17268  0  3.919916  0
C  C165  1  0.17070790  0.44897572  0.63047202  1  0.056957  0  -0.08204  -0.172825  0  3.919942  0
C  C166  1  0.17069237  0.94896318  0.86953268  1  0.056766  0  -0.082018  -0.172598  0  3.919807  0
C  C167  1  0.67068567  0.05103712  0.13046556  1  0.056583  0  -0.082003  -0.17257  0  3.919846  0
C  C168  1  0.58036438  0.64676876  0.34586523  1  0.110265  0  0.01207  0.165675  0  4.11251  0
C  C169  1  0.08037401  0.35323977  0.65413900  1  0.110018  0  0.011913  0.165375  0  4.112405  0
C  C170  1  0.08036508  0.85321490  0.84586596  1  0.11057  0  0.01205  0.165607  0  4.112539  0
C  C171  1  0.58035769  0.14677926  0.15413362  1  0.110804  0  0.01199  0.165577  0  4.112462  0
C  C172  1  0.66898482  0.52080154  0.65001625  1  0.052243  0  -0.082062  -0.175607  0  3.923252  0
C  C173  1  0.16897964  0.47920163  0.34998597  1  0.052078  0  -0.08205  -0.175523  0  3.922902  0
C  C174  1  0.16898838  0.97919955  0.15001540  1  0.052252  0  -0.082007  -0.175364  0  3.923218  0
C  C175  1  0.66898649  0.02079979  0.84998184  1  0.052309  0  -0.082085  -0.175476  0  3.923138  0
C  C176  1  0.67582720  0.50991518  0.83423058  1  -0.092812  0  -0.08112  -0.121242  0  3.931605  0
C  C177  1  0.17579156  0.49009185  0.16577097  1  -0.094828  0  -0.081134  -0.121344  0  3.931769  0
C  C178  1  0.17580481  0.99007998  0.33423243  1  -0.092756  0  -0.081133  -0.12125  0  3.931421  0
C  C179  1  0.67582958  0.00990885  0.66576414  1  -0.092569  0  -0.081138  -0.121309  0  3.931093  0
C  C180  1  0.67207917  0.53578355  0.14323478  1  -0.056776  0  -0.088522  -0.076976  0  4.006637  0
C  C181  1  0.17209014  0.46421485  0.85677143  1  -0.057648  0  -0.088722  -0.077579  0  4.006835  0
C  C182  1  0.17208329  0.96421443  0.64323599  1  -0.057092  0  -0.088662  -0.077135  0  4.006647  0
C  C183  1  0.67206909  0.03578492  0.35676391  1  -0.056852  0  -0.088651  -0.077145  0  4.00688  0
C  C184  1  0.59698090  0.63415822  0.11819369  1  -0.044064  0  -0.082389  -0.072761  0  3.947223  0
C  C185  1  0.09698454  0.36583794  0.88180988  1  -0.043779  0  -0.082344  -0.072504  0  3.947053  0
C  C186  1  0.09698690  0.86583952  0.61819347  1  -0.044059  0  -0.082278  -0.072569  0  3.947019  0
C  C187  1  0.59698114  0.13415664  0.38180610  1  -0.044088  0  -0.082327  -0.072627  0  3.947263  0
C  C188  1  0.67215706  0.50947454  0.88049415  1  -0.00049  0  -0.086732  -0.082538  0  4.015172  0
C  C189  1  0.17213723  0.49052481  0.11950774  1  -0.000799  0  -0.086738  -0.082473  0  4.015347  0
C  C190  1  0.17214769  0.99051745  0.38049467  1  -0.000887  0  -0.086803  -0.082674  0  4.015256  0
C  C191  1  0.67216222  0.00947424  0.61950058  1  -0.000366  0  -0.08668  -0.082437  0  4.01475  0
C  C192  1  0.66614504  0.53877584  0.18944087  1  -0.009652  0  -0.082132  -0.126348  0  3.930816  0
C  C193  1  0.16616528  0.46122732  0.81056434  1  -0.010147  0  -0.082062  -0.126165  0  3.930482  0
C  C194  1  0.16615174  0.96121705  0.68944339  1  -0.010255  0  -0.082078  -0.126376  0  3.930634  0
C  C195  1  0.66614165  0.03878037  0.31055783  1  -0.010093  0  -0.082091  -0.126422  0  3.930853  0
C  C196  1  0.66914553  0.55327092  0.41558147  1  0.424713  0  0.037351  0.074328  0  3.957141  0
C  C197  1  0.16915222  0.44673129  0.58442075  1  0.424724  0  0.037367  0.07438  0  3.956881  0
C  C198  1  0.16912609  0.94672133  0.91558360  1  0.424779  0  0.037343  0.074166  0  3.957207  0
C  C199  1  0.66911958  0.05328088  0.08441463  1  0.424566  0  0.037361  0.074189  0  3.957139  0
N  N200  1  0.57366427  0.62143051  0.58243133  1  -1.205812  0  -0.346984  -0.211459  0  3.600725  0
N  N201  1  0.07366458  0.37856746  0.41756925  1  -1.206452  0  -0.347058  -0.2116  0  3.600916  0
N  N202  1  0.07365016  0.87856873  0.08243236  1  -1.20591  0  -0.347021  -0.211533  0  3.600941  0
N  N203  1  0.57365656  0.12143211  0.91756490  1  -1.205653  0  -0.347126  -0.211604  0  3.601006  0
N  N204  1  0.58413319  0.64352613  0.43925982  1  -1.187211  0  -0.343853  -0.204338  0  3.575057  0
N  N205  1  0.08413409  0.35647476  0.56074242  1  -1.187519  0  -0.343826  -0.204296  0  3.574927  0
N  N206  1  0.08411438  0.85646564  0.93926156  1  -1.187352  0  -0.34391  -0.204311  0  3.575001  0
N  N207  1  0.58410473  0.14353525  0.06073702  1  -1.187295  0  -0.343939  -0.204308  0  3.575014  0
O  O208  1  0.21857820  0.59743020  0.49220658  1  -1.174891  0  -0.355299  -0.594234  0  2.291361  0
O  O209  1  0.71857265  0.40256744  0.50779297  1  -1.174742  0  -0.355303  -0.594282  0  2.291341  0
O  O210  1  0.71855924  0.90257359  0.99220577  1  -1.174812  0  -0.355228  -0.594194  0  2.291437  0
O  O211  1  0.21855776  0.09743362  0.00779080  1  -1.1747  0  -0.355272  -0.594265  0  2.291389  0
O  O212  1  0.25271205  0.79765922  0.51903808  1  -1.19803  0  -0.359414  -0.604082  0  2.08073  0
O  O213  1  0.75269861  0.20233856  0.48096048  1  -1.197812  0  -0.359423  -0.60406  0  2.080961  0
O  O214  1  0.75270265  0.70234813  0.01903759  1  -1.198026  0  -0.359381  -0.603974  0  2.080899  0
O  O215  1  0.25270410  0.29766019  0.98095997  1  -1.197849  0  -0.359417  -0.604085  0  2.080997  0
