# generated using pymatgen
data_ZnH12C20(NO)6
_symmetry_space_group_name_H-M   'P 1'
_cell_length_a   9.97959398
_cell_length_b   10.30348199
_cell_length_c   10.55255336
_cell_angle_alpha   104.98068611
_cell_angle_beta   98.42837168
_cell_angle_gamma   106.95341867
_symmetry_Int_Tables_number   1
_chemical_formula_structural   ZnH12C20(NO)6
_chemical_formula_sum   'Zn2 H24 C40 N12 O12'
_cell_volume   973.27949796
_cell_formula_units_Z   2
loop_
 _symmetry_equiv_pos_site_id
 _symmetry_equiv_pos_as_xyz
  1  'x, y, z'
loop_
 _atom_site_type_symbol
 _atom_site_label
 _atom_site_symmetry_multiplicity
 _atom_site_fract_x
 _atom_site_fract_y
 _atom_site_fract_z
 _atom_site_occupancy
 _atom_site_hle17_bader_spin_density
 _atom_site_hle17_ddec_charge
 _atom_site_hle17_ddec_spin_density
 _atom_site_hle17_ddec_sum_bond_order
 _atom_site_hle17_magmom
 _atom_site_hse06_10hf_bader_spin_density
 _atom_site_hse06_10hf_ddec_charge
 _atom_site_hse06_10hf_ddec_spin_density
 _atom_site_hse06_10hf_ddec_sum_bond_order
 _atom_site_hse06_10hf_magmom
 _atom_site_hse06_bader_spin_density
 _atom_site_hse06_ddec_charge
 _atom_site_hse06_ddec_spin_density
 _atom_site_hse06_ddec_sum_bond_order
 _atom_site_hse06_magmom
 _atom_site_pbe_bader_spin_density
 _atom_site_pbe_cm5_charge
 _atom_site_pbe_ddec_charge
 _atom_site_pbe_ddec_spin_density
 _atom_site_pbe_ddec_sum_bond_order
 _atom_site_pbe_magmom
Zn  Zn0  1  0.90225337  0.12049150  0.47232263  1  0  1.05187  0  1.804199  0  0  0.857188  0  2.281585  0  0  0.9105  0  2.219073  0  0  0.689772  0.818546  0  2.325696  0
Zn  Zn1  1  0.09774917  0.87950808  0.52767427  1  0  1.051878  0  1.804183  0  0  0.857211  0  2.281545  0  0  0.910522  0  2.219038  0  0  0.689779  0.818566  0  2.325644  0
H  H2  1  0.00584588  0.08276294  0.20369179  1  0  0.074988  0  0.960948  0  0  0.084879  0  1.024751  0  0  0.08688  0  1.023068  0  0  0.111833  0.083228  0  1.026406  0
H  H3  1  0.99415196  0.91723452  0.79629911  1  0  0.074976  0  0.960955  0  0  0.084881  0  1.024765  0  0  0.086875  0  1.023086  0  0  0.111848  0.083227  0  1.026423  0
H  H4  1  0.89080896  0.98419697  0.95320361  1  0  0.089899  0  0.988107  0  0  0.101734  0  1.049627  0  0  0.103646  0  1.05047  0  0  0.10179  0.10051  0  1.048884  0
H  H5  1  0.10918264  0.01579730  0.04678839  1  0  0.089885  0  0.988156  0  0  0.101733  0  1.049621  0  0  0.103638  0  1.050505  0  0  0.101788  0.100512  0  1.048872  0
H  H6  1  0.62271876  0.86063273  0.87613481  1  0  0.105759  0  0.948455  0  0  0.115781  0  1.011626  0  0  0.117561  0  1.011404  0  0  0.109952  0.114491  0  1.011708  0
H  H7  1  0.37727211  0.13936263  0.12386208  1  0  0.105727  0  0.948467  0  0  0.115713  0  1.0117  0  0  0.117468  0  1.01155  0  0  0.109914  0.114421  0  1.011785  0
H  H8  1  0.61175592  0.93681008  0.29510677  1  0  0.104541  0  0.925872  0  0  0.109792  0  0.992683  0  0  0.112996  0  0.989371  0  0  0.124985  0.107511  0  0.994794  0
H  H9  1  0.38824671  0.06319273  0.70489282  1  0  0.104585  0  0.925822  0  0  0.109823  0  0.992629  0  0  0.113027  0  0.989316  0  0  0.125006  0.107521  0  0.994766  0
H  H10  1  0.22916354  0.84971862  0.30443943  1  0  0.108113  0  0.944101  0  0  0.111664  0  1.012379  0  0  0.115564  0  1.008014  0  0  0.125484  0.108734  0  1.015607  0
H  H11  1  0.77083537  0.15027671  0.69556155  1  0  0.108105  0  0.944083  0  0  0.111656  0  1.012368  0  0  0.115552  0  1.008012  0  0  0.12548  0.108726  0  1.015589  0
H  H12  1  0.79305237  0.70219383  0.29545874  1  0  0.085291  0  0.953291  0  0  0.092761  0  1.020372  0  0  0.094869  0  1.018266  0  0  0.1168  0.090901  0  1.022348  0
H  H13  1  0.20694681  0.29780793  0.70454195  1  0  0.085262  0  0.953237  0  0  0.092742  0  1.020321  0  0  0.09485  0  1.018213  0  0  0.116782  0.090895  0  1.022277  0
H  H14  1  0.72867711  0.58485161  0.04621803  1  0  0.115343  0  0.933699  0  0  0.124553  0  0.990727  0  0  0.127962  0  0.989962  0  0  0.110259  0.122119  0  0.991484  0
H  H15  1  0.27131981  0.41515230  0.95378189  1  0  0.115265  0  0.933661  0  0  0.124489  0  0.990703  0  0  0.127896  0  0.989941  0  0  0.110228  0.122058  0  0.991454  0
H  H16  1  0.92328443  0.60616445  0.92044126  1  0  0.108279  0  0.946325  0  0  0.120741  0  1.00351  0  0  0.123743  0  1.001123  0  0  0.110752  0.118627  0  1.005063  0
H  H17  1  0.07671198  0.39383517  0.07955848  1  0  0.108299  0  0.946369  0  0  0.120746  0  1.003562  0  0  0.123747  0  1.001175  0  0  0.110758  0.118635  0  1.005114  0
H  H18  1  0.51298310  0.85308012  0.52623116  1  0  0.127902  0  0.918681  0  0  0.136701  0  0.978373  0  0  0.141355  0  0.973742  0  0  0.116688  0.132946  0  0.982398  0
H  H19  1  0.48702040  0.14691947  0.47376873  1  0  0.127901  0  0.918634  0  0  0.1367  0  0.978341  0  0  0.141353  0  0.973707  0  0  0.116686  0.132949  0  0.982366  0
H  H20  1  0.34008628  0.51989270  0.69311478  1  0  0.120411  0  0.954396  0  0  0.121413  0  1.029281  0  0  0.126465  0  1.023562  0  0  0.115235  0.117692  0  1.033499  0
H  H21  1  0.65991967  0.48011117  0.30689033  1  0  0.120414  0  0.954446  0  0  0.121427  0  1.029292  0  0  0.12647  0  1.02358  0  0  0.115272  0.117694  0  1.033534  0
H  H22  1  0.78232089  0.62990929  0.65763078  1  0  0.134505  0  0.932968  0  0  0.13996  0  0.995609  0  0  0.145237  0  0.990194  0  0  0.119023  0.136318  0  0.998999  0
H  H23  1  0.21768444  0.37009565  0.34237355  1  0  0.134506  0  0.932929  0  0  0.139938  0  0.995595  0  0  0.145213  0  0.990183  0  0  0.119024  0.136291  0  0.998984  0
H  H24  1  0.15738392  0.66449245  0.82608324  1  0  0.32207  0  0.867032  0  0  0.305843  0  0.922006  0  0  0.313587  0  0.915883  0  0  0.337294  0.300094  0  0.926779  0
H  H25  1  0.84261221  0.33550932  0.17391793  1  0  0.322008  0  0.867166  0  0  0.3058  0  0.92209  0  0  0.31356  0  0.915962  0  0  0.337271  0.300047  0  0.926868  0
C  C26  1  0.89047292  0.02456761  0.16401707  1  0  0.117006  0  3.719274  0  0  0.08033  0  3.97748  0  0  0.087462  0  3.996587  0  0  0.037526  0.075473  0  3.965845  0
C  C27  1  0.10952385  0.97542986  0.83597652  1  0  0.117083  0  3.71924  0  0  0.080357  0  3.977482  0  0  0.087495  0  3.996586  0  0  0.037539  0.075501  0  3.96584  0
C  C28  1  0.82608233  0.96983784  0.02611449  1  0  -0.132942  0  3.785166  0  0  -0.146116  0  4.042826  0  0  -0.153609  0  4.065572  0  0  -0.093983  -0.141721  0  4.028472  0
C  C29  1  0.17391266  0.03015749  0.97387924  1  0  -0.133024  0  3.785132  0  0  -0.146151  0  4.0428  0  0  -0.153661  0  4.06552  0  0  -0.093982  -0.141759  0  4.028453  0
C  C30  1  0.67761383  0.90140808  0.98295070  1  0  -0.022498  0  3.676886  0  0  -0.052921  0  3.92477  0  0  -0.048739  0  3.942611  0  0  -0.063138  -0.056472  0  3.91338  0
C  C31  1  0.32238250  0.09858832  0.01704634  1  0  -0.022376  0  3.676774  0  0  -0.052769  0  3.924723  0  0  -0.04859  0  3.942549  0  0  -0.063093  -0.056322  0  3.913341  0
C  C32  1  0.59738565  0.88897955  0.08020444  1  0  -0.024567  0  3.76881  0  0  -0.00327  0  4.002127  0  0  -0.008548  0  4.023516  0  0  0.007442  -0.000347  0  3.987317  0
C  C33  1  0.40261305  0.11101792  0.91979418  1  0  -0.024416  0  3.768884  0  0  -0.003275  0  4.002328  0  0  -0.00855  0  4.023711  0  0  0.007492  -0.000356  0  3.987517  0
C  C34  1  0.67043506  0.94485818  0.21670447  1  0  0.124092  0  3.619578  0  0  0.081632  0  3.869538  0  0  0.088851  0  3.886528  0  0  0.061008  0.078559  0  3.856998  0
C  C35  1  0.32956443  0.05514143  0.78329290  1  0  0.123986  0  3.619614  0  0  0.081581  0  3.869576  0  0  0.088798  0  3.88657  0  0  0.060981  0.078522  0  3.85704  0
C  C36  1  0.44100878  0.82334190  0.04097540  1  0  0.281208  0  3.85037  0  0  0.25854  0  4.129432  0  0  0.269424  0  4.146179  0  0  0.210241  0.251937  0  4.117242  0
C  C37  1  0.55898886  0.17665558  0.95902590  1  0  0.281103  0  3.850511  0  0  0.2586  0  4.129409  0  0  0.269484  0  4.146149  0  0  0.210231  0.252001  0  4.117214  0
C  C38  1  0.22143396  0.75587319  0.04933725  1  0  0.310484  0  3.789724  0  0  0.274526  0  4.06565  0  0  0.288756  0  4.081457  0  0  0.222496  0.265418  0  4.055149  0
C  C39  1  0.77856334  0.24412321  0.95066184  1  0  0.310504  0  3.789762  0  0  0.274512  0  4.065684  0  0  0.288774  0  4.081486  0  0  0.222478  0.265397  0  4.055186  0
C  C40  1  0.09350630  0.73296983  0.10366348  1  0  -0.050563  0  3.795414  0  0  -0.026295  0  4.031598  0  0  -0.033102  0  4.053862  0  0  -0.000735  -0.022616  0  4.016925  0
C  C41  1  0.90649209  0.26702978  0.89633847  1  0  -0.0506  0  3.795395  0  0  -0.026332  0  4.031584  0  0  -0.033143  0  4.053844  0  0  -0.000773  -0.022652  0  4.016915  0
C  C42  1  0.11901109  0.79267033  0.24429372  1  0  0.122813  0  3.632419  0  0  0.084545  0  3.871538  0  0  0.092367  0  3.888294  0  0  0.059185  0.080638  0  3.860012  0
C  C43  1  0.88098758  0.20732714  0.75570679  1  0  0.122828  0  3.632358  0  0  0.084536  0  3.87153  0  0  0.092356  0  3.888289  0  0  0.059195  0.080633  0  3.86  0
C  C44  1  0.87628971  0.70854983  0.23896400  1  0  0.138672  0  3.67217  0  0  0.102798  0  3.927945  0  0  0.110989  0  3.945997  0  0  0.049417  0.097889  0  3.91597  0
C  C45  1  0.12370704  0.29145087  0.76103795  1  0  0.138726  0  3.672287  0  0  0.102845  0  3.928072  0  0  0.111037  0  3.946126  0  0  0.049443  0.097921  0  3.916094  0
C  C46  1  0.84116814  0.64423773  0.09928496  1  0  -0.11201  0  3.730121  0  0  -0.12668  0  3.994264  0  0  -0.134067  0  4.0161  0  0  -0.084622  -0.122339  0  3.980203  0
C  C47  1  0.15882904  0.35576403  0.90071448  1  0  -0.111959  0  3.730179  0  0  -0.126653  0  3.994327  0  0  -0.13404  0  4.016167  0  0  -0.084614  -0.122313  0  3.98027  0
C  C48  1  0.95056419  0.65662430  0.02975013  1  0  -0.047719  0  3.696615  0  0  -0.080785  0  3.953197  0  0  -0.076779  0  3.971123  0  0  -0.069798  -0.083268  0  3.941074  0
C  C49  1  0.04943457  0.34337638  0.97025213  1  0  -0.047721  0  3.696605  0  0  -0.080763  0  3.953179  0  0  -0.076759  0  3.971107  0  0  -0.069781  -0.083249  0  3.941061  0
C  C50  1  0.78709344  0.84038145  0.54868591  1  0  0.657004  0  3.898683  0  0  0.60074  0  4.196697  0  0  0.636407  0  4.189615  0  0  0.216384  0.576541  0  4.200644  0
C  C51  1  0.21290907  0.15961814  0.45131288  1  0  0.657028  0  3.898619  0  0  0.600755  0  4.196689  0  0  0.636421  0  4.189604  0  0  0.216373  0.576553  0  4.200633  0
C  C52  1  0.66126060  0.75188655  0.58861885  1  0  -0.073252  0  3.737541  0  0  -0.047151  0  3.979437  0  0  -0.05933  0  4.004516  0  0  -0.019452  -0.039533  0  3.96271  0
C  C53  1  0.33874164  0.24811519  0.41138137  1  0  -0.073253  0  3.737449  0  0  -0.047206  0  3.979445  0  0  -0.059384  0  4.004515  0  0  -0.0195  -0.039572  0  3.962691  0
C  C54  1  0.52701699  0.77152535  0.56970334  1  0  -0.024608  0  3.61181  0  0  -0.070787  0  3.869415  0  0  -0.064507  0  3.884691  0  0  -0.059903  -0.07457  0  3.859554  0
C  C55  1  0.47298665  0.22847745  0.43029641  1  0  -0.024557  0  3.611635  0  0  -0.070722  0  3.869296  0  0  -0.064431  0  3.884559  0  0  -0.059839  -0.074513  0  3.859436  0
C  C56  1  0.41048904  0.68691157  0.60552520  1  0  -0.053466  0  3.70837  0  0  -0.029805  0  3.951164  0  0  -0.040039  0  3.973484  0  0  -0.010011  -0.02349  0  3.93651  0
C  C57  1  0.58951619  0.31309016  0.39447738  1  0  -0.053414  0  3.708259  0  0  -0.029793  0  3.951119  0  0  -0.040032  0  3.973437  0  0  -0.010045  -0.02348  0  3.936469  0
C  C58  1  0.42944485  0.58384193  0.66309506  1  0  -0.067198  0  3.704586  0  0  -0.10935  0  3.970138  0  0  -0.103277  0  3.983985  0  0  -0.060326  -0.112735  0  3.960423  0
C  C59  1  0.57056112  0.41616194  0.33690910  1  0  -0.067241  0  3.70472  0  0  -0.109372  0  3.970227  0  0  -0.103281  0  3.984062  0  0  -0.06036  -0.112748  0  3.960513  0
C  C60  1  0.56345054  0.56672856  0.68256662  1  0  0.050657  0  3.733699  0  0  0.037729  0  3.991019  0  0  0.036222  0  4.017992  0  0  0.068913  0.041348  0  3.974717  0
C  C61  1  0.43655481  0.43327639  0.31743676  1  0  0.050774  0  3.733746  0  0  0.037844  0  3.990954  0  0  0.036369  0  4.017935  0  0  0.068963  0.041463  0  3.974648  0
C  C62  1  0.67972684  0.64783751  0.64502824  1  0  -0.088285  0  3.696646  0  0  -0.12619  0  3.953391  0  0  -0.121628  0  3.969601  0  0  -0.0696  -0.128093  0  3.940904  0
C  C63  1  0.32027813  0.35216636  0.35497483  1  0  -0.088359  0  3.696577  0  0  -0.126232  0  3.953338  0  0  -0.121663  0  3.969534  0  0  -0.06963  -0.128134  0  3.940836  0
C  C64  1  0.26554202  0.70844803  0.58894869  1  0  0.647273  0  3.916435  0  0  0.596706  0  4.21329  0  0  0.630989  0  4.206611  0  0  0.202591  0.573588  0  4.216321  0
C  C65  1  0.73446019  0.29155372  0.41105248  1  0  0.646972  0  3.916717  0  0  0.596364  0  4.213653  0  0  0.63065  0  4.206977  0  0  0.202429  0.573246  0  4.216691  0
N  N66  1  0.81392307  0.01169216  0.25758342  1  0  -0.326554  0  3.298043  0  0  -0.245822  0  3.568617  0  0  -0.265682  0  3.58692  0  0  -0.320771  -0.232863  0  3.556083  0
N  N67  1  0.18607746  0.98830744  0.74241317  1  0  -0.326648  0  3.298098  0  0  -0.245878  0  3.568633  0  0  -0.265738  0  3.586935  0  0  -0.320839  -0.232911  0  3.556078  0
N  N68  1  0.35442105  0.82708109  0.12869186  1  0  -0.448958  0  2.956105  0  0  -0.423989  0  3.231328  0  0  -0.439483  0  3.242275  0  0  -0.326597  -0.415574  0  3.224762  0
N  N69  1  0.64557784  0.17291424  0.87131006  1  0  -0.448937  0  2.956174  0  0  -0.424003  0  3.231347  0  0  -0.439501  0  3.242292  0  0  -0.326592  -0.415589  0  3.224776  0
N  N70  1  0.36975529  0.75534017  0.91146346  1  0  -0.246437  0  2.894698  0  0  -0.233462  0  3.167853  0  0  -0.244273  0  3.1877  0  0  -0.211732  -0.225093  0  3.153324  0
N  N71  1  0.63024145  0.24466052  0.08853849  1  0  -0.246225  0  2.894734  0  0  -0.233331  0  3.167822  0  0  -0.244114  0  3.187685  0  0  -0.211628  -0.224961  0  3.153288  0
N  N72  1  0.23082021  0.71270745  0.91831289  1  0  -0.221459  0  3.43506  0  0  -0.161591  0  3.675022  0  0  -0.176682  0  3.69402  0  0  -0.258005  -0.150906  0  3.662323  0
N  N73  1  0.76917618  0.28729217  0.08168779  1  0  -0.221656  0  3.435396  0  0  -0.161712  0  3.67525  0  0  -0.176875  0  3.694302  0  0  -0.258085  -0.151019  0  3.66255  0
N  N74  1  0.01363336  0.78195043  0.31028441  1  0  -0.323628  0  3.2659  0  0  -0.241387  0  3.532224  0  0  -0.261197  0  3.548414  0  0  -0.315193  -0.228344  0  3.520763  0
N  N75  1  0.98636402  0.21804919  0.68971738  1  0  -0.323597  0  3.265922  0  0  -0.241348  0  3.532259  0  0  -0.261158  0  3.548449  0  0  -0.315157  -0.228307  0  3.520802  0
N  N76  1  0.58429072  0.46130812  0.74685304  1  0  0.469423  0  3.942147  0  0  0.528892  0  4.198622  0  0  0.532852  0  4.234287  0  0  0.056793  0.51501  0  4.192475  0
N  N77  1  0.41571526  0.53869575  0.25315018  1  0  0.469201  0  3.942513  0  0  0.528803  0  4.198816  0  0  0.532645  0  4.234653  0  0  0.056759  0.514919  0  4.19267  0
O  O78  1  0.90065868  0.80712226  0.56363143  1  0  -0.633557  0  2.109525  0  0  -0.56404  0  2.391644  0  0  -0.591529  0  2.373317  0  0  -0.311688  -0.544645  0  2.403854  0
O  O79  1  0.09934280  0.19287734  0.43636815  1  0  -0.633566  0  2.109548  0  0  -0.564038  0  2.391657  0  0  -0.591537  0  2.373353  0  0  -0.311671  -0.544644  0  2.403875  0
O  O80  1  0.77075352  0.93927455  0.50457545  1  0  -0.623784  0  2.111696  0  0  -0.559565  0  2.391308  0  0  -0.587398  0  2.376974  0  0  -0.301716  -0.540027  0  2.400345  0
O  O81  1  0.22924801  0.06072504  0.49542129  1  0  -0.623803  0  2.111655  0  0  -0.559572  0  2.391294  0  0  -0.587403  0  2.376958  0  0  -0.301714  -0.540048  0  2.400358  0
O  O82  1  0.70565823  0.45000039  0.76564313  1  0  -0.341923  0  1.77226  0  0  -0.33399  0  1.965683  0  0  -0.340322  0  1.971548  0  0  -0.119754  -0.325892  0  1.967512  0
O  O83  1  0.29434704  0.55000133  0.23435756  1  0  -0.34182  0  1.772397  0  0  -0.333912  0  1.965741  0  0  -0.340188  0  1.971651  0  0  -0.119726  -0.325811  0  1.967566  0
O  O84  1  0.48011530  0.39013778  0.78077488  1  0  -0.349791  0  1.754542  0  0  -0.342669  0  1.948321  0  0  -0.349094  0  1.954336  0  0  -0.127678  -0.334428  0  1.950141  0
O  O85  1  0.51989029  0.60986503  0.21922896  1  0  -0.349714  0  1.754744  0  0  -0.342656  0  1.948464  0  0  -0.349056  0  1.954552  0  0  -0.127657  -0.334422  0  1.950302  0
O  O86  1  0.25475519  0.79542437  0.52256894  1  0  -0.647824  0  2.083443  0  0  -0.574779  0  2.35194  0  0  -0.606299  0  2.339489  0  0  -0.32544  -0.551726  0  2.359718  0
O  O87  1  0.74524910  0.20457735  0.47742970  1  0  -0.64774  0  2.083531  0  0  -0.574634  0  2.352  0  0  -0.606152  0  2.339544  0  0  -0.325418  -0.551585  0  2.359788  0
O  O88  1  0.17064466  0.64601827  0.63955414  1  0  -0.606573  0  1.891659  0  0  -0.568839  0  2.105715  0  0  -0.589108  0  2.094857  0  0  -0.331736  -0.553464  0  2.112245  0
O  O89  1  0.82935791  0.35398454  0.36044830  1  0  -0.606401  0  1.891792  0  0  -0.568664  0  2.105864  0  0  -0.588936  0  2.09501  0  0  -0.331602  -0.553279  0  2.112389  0
