# generated using pymatgen
data_CuH8C9S2IN4
_symmetry_space_group_name_H-M   'P 1'
_cell_length_a   7.57094239
_cell_length_b   8.58140390
_cell_length_c   20.24615659
_cell_angle_alpha   90.00021239
_cell_angle_beta   90.00030218
_cell_angle_gamma   112.02609533
_symmetry_Int_Tables_number   1
_chemical_formula_structural   CuH8C9S2IN4
_chemical_formula_sum   'Cu4 H32 C36 S8 I4 N16'
_cell_volume   1219.37354358
_cell_formula_units_Z   4
loop_
 _symmetry_equiv_pos_site_id
 _symmetry_equiv_pos_as_xyz
  1  'x, y, z'
loop_
 _atom_site_type_symbol
 _atom_site_label
 _atom_site_symmetry_multiplicity
 _atom_site_fract_x
 _atom_site_fract_y
 _atom_site_fract_z
 _atom_site_occupancy
 _atom_site_hle17_bader_spin_density
 _atom_site_hle17_ddec_charge
 _atom_site_hle17_ddec_spin_density
 _atom_site_hle17_ddec_sum_bond_order
 _atom_site_hle17_magmom
 _atom_site_hse06_10hf_bader_spin_density
 _atom_site_hse06_10hf_ddec_charge
 _atom_site_hse06_10hf_ddec_spin_density
 _atom_site_hse06_10hf_ddec_sum_bond_order
 _atom_site_hse06_10hf_magmom
 _atom_site_hse06_bader_spin_density
 _atom_site_hse06_ddec_charge
 _atom_site_hse06_ddec_spin_density
 _atom_site_hse06_ddec_sum_bond_order
 _atom_site_hse06_magmom
 _atom_site_pbe_bader_spin_density
 _atom_site_pbe_cm5_charge
 _atom_site_pbe_ddec_charge
 _atom_site_pbe_ddec_spin_density
 _atom_site_pbe_ddec_sum_bond_order
 _atom_site_pbe_magmom
Cu  Cu0  1  0.53916175  0.57879552  0.56803274  1  0  0.319915  0  2.131562  0  0  0.228033  0  2.602878  0  0  0.23137  0  2.555497  0  0  0.367238  0.229549  0  2.632008  0
Cu  Cu1  1  0.46083665  0.92120643  0.06802589  1  0  0.319864  0  2.131404  0  0  0.22795  0  2.602725  0  0  0.231303  0  2.555342  0  0  0.367206  0.229503  0  2.631895  0
Cu  Cu2  1  0.46082666  0.42120696  0.43197264  1  0  0.31984  0  2.131622  0  0  0.227946  0  2.602971  0  0  0.231285  0  2.555581  0  0  0.36721  0.229469  0  2.632061  0
Cu  Cu3  1  0.53917116  0.07879205  0.93197258  1  0  0.319818  0  2.131543  0  0  0.227911  0  2.602837  0  0  0.231266  0  2.555461  0  0  0.367198  0.229464  0  2.631999  0
H  H4  1  0.94402375  0.66966475  0.53075949  1  0  0.066647  0  0.967878  0  0  0.072602  0  1.041603  0  0  0.075488  0  1.037988  0  0  0.100021  0.070367  0  1.044278  0
H  H5  1  0.05598431  0.83033017  0.03074869  1  0  0.06655  0  0.967907  0  0  0.072539  0  1.041623  0  0  0.075429  0  1.038002  0  0  0.099998  0.070302  0  1.044292  0
H  H6  1  0.05596728  0.33032255  0.46924342  1  0  0.066591  0  0.967911  0  0  0.072617  0  1.041583  0  0  0.075507  0  1.037962  0  0  0.100036  0.070382  0  1.044258  0
H  H7  1  0.94403051  0.16967834  0.96924335  1  0  0.066592  0  0.967873  0  0  0.072615  0  1.041551  0  0  0.075505  0  1.037929  0  0  0.100029  0.070375  0  1.044225  0
H  H8  1  0.25089639  0.92288448  0.54366212  1  0  0.116386  0  0.98694  0  0  0.119022  0  1.059353  0  0  0.123067  0  1.058895  0  0  0.091416  0.115929  0  1.060185  0
H  H9  1  0.74910076  0.57711833  0.04365837  1  0  0.116417  0  0.986855  0  0  0.11904  0  1.059278  0  0  0.123087  0  1.058818  0  0  0.091418  0.115947  0  1.060119  0
H  H10  1  0.74910647  0.07708753  0.45634277  1  0  0.11633  0  0.987095  0  0  0.119053  0  1.05941  0  0  0.123091  0  1.058984  0  0  0.091423  0.115966  0  1.06023  0
H  H11  1  0.25090170  0.42290420  0.95634059  1  0  0.116381  0  0.98689  0  0  0.119002  0  1.059342  0  0  0.123051  0  1.058886  0  0  0.091404  0.115911  0  1.060173  0
H  H12  1  0.23090212  0.17480245  0.60361271  1  0  0.076393  0  0.945923  0  0  0.081584  0  1.015905  0  0  0.084842  0  1.011893  0  0  0.105043  0.078995  0  1.019073  0
H  H13  1  0.76908761  0.32520886  0.10361281  1  0  0.076357  0  0.945776  0  0  0.081529  0  1.015749  0  0  0.084796  0  1.011728  0  0  0.105021  0.078944  0  1.018908  0
H  H14  1  0.76911411  0.82518205  0.39639119  1  0  0.076409  0  0.945964  0  0  0.081594  0  1.015951  0  0  0.084847  0  1.011943  0  0  0.105067  0.079006  0  1.01912  0
H  H15  1  0.23089556  0.67480882  0.89638813  1  0  0.076406  0  0.94595  0  0  0.081571  0  1.015968  0  0  0.084845  0  1.011939  0  0  0.105049  0.078984  0  1.019135  0
H  H16  1  0.77350760  0.17334938  0.67863542  1  0  0.12166  0  0.990074  0  0  0.128851  0  1.060521  0  0  0.130982  0  1.060015  0  0  0.101917  0.127306  0  1.060985  0
H  H17  1  0.22648175  0.32664677  0.17863536  1  0  0.121732  0  0.990033  0  0  0.128967  0  1.060441  0  0  0.131103  0  1.059926  0  0  0.101949  0.127412  0  1.060892  0
H  H18  1  0.22650788  0.82665155  0.32136798  1  0  0.121828  0  0.98991  0  0  0.128958  0  1.060467  0  0  0.131093  0  1.059967  0  0  0.101936  0.127408  0  1.060909  0
H  H19  1  0.77350150  0.67334692  0.82136607  1  0  0.121807  0  0.989941  0  0  0.128971  0  1.060429  0  0  0.131102  0  1.059922  0  0  0.101971  0.12742  0  1.060898  0
H  H20  1  0.53214203  0.16426004  0.67873246  1  0  0.124478  0  0.966736  0  0  0.128774  0  1.040775  0  0  0.131144  0  1.03954  0  0  0.097039  0.127007  0  1.041771  0
H  H21  1  0.46784568  0.33573234  0.17873441  1  0  0.124434  0  0.966726  0  0  0.128721  0  1.040773  0  0  0.131093  0  1.039539  0  0  0.097045  0.126953  0  1.041769  0
H  H22  1  0.46787147  0.83573333  0.32127292  1  0  0.124526  0  0.966751  0  0  0.128832  0  1.040769  0  0  0.131204  0  1.039539  0  0  0.097065  0.127057  0  1.041766  0
H  H23  1  0.53213714  0.66426640  0.82126900  1  0  0.124482  0  0.966761  0  0  0.128786  0  1.040804  0  0  0.131145  0  1.039581  0  0  0.09705  0.127017  0  1.041808  0
H  H24  1  0.12358653  0.97285788  0.93127682  1  0  0.066558  0  0.973888  0  0  0.072278  0  1.048122  0  0  0.075508  0  1.043795  0  0  0.099388  0.069773  0  1.051342  0
H  H25  1  0.87640467  0.52715018  0.43128019  1  0  0.066541  0  0.9738  0  0  0.072262  0  1.04803  0  0  0.075492  0  1.043701  0  0  0.099361  0.069752  0  1.051257  0
H  H26  1  0.87641425  0.02713057  0.06871918  1  0  0.066557  0  0.973859  0  0  0.072247  0  1.048094  0  0  0.075474  0  1.043776  0  0  0.099364  0.069736  0  1.051322  0
H  H27  1  0.12357992  0.47285865  0.56872322  1  0  0.066562  0  0.973825  0  0  0.072264  0  1.048083  0  0  0.075495  0  1.043753  0  0  0.099375  0.069753  0  1.051313  0
H  H28  1  0.87765423  0.96800388  0.84733131  1  0  0.104464  0  1.00928  0  0  0.108773  0  1.082174  0  0  0.112596  0  1.081581  0  0  0.090181  0.10593  0  1.082911  0
H  H29  1  0.12234529  0.53203174  0.34733408  1  0  0.104496  0  1.00925  0  0  0.108774  0  1.082165  0  0  0.112593  0  1.081577  0  0  0.090195  0.105931  0  1.082899  0
H  H30  1  0.12236092  0.03199326  0.15266172  1  0  0.104536  0  1.009325  0  0  0.108784  0  1.082312  0  0  0.112612  0  1.08172  0  0  0.090158  0.105952  0  1.083018  0
H  H31  1  0.87764281  0.46798210  0.65267032  1  0  0.104531  0  1.009375  0  0  0.108808  0  1.082288  0  0  0.112634  0  1.081698  0  0  0.090212  0.105962  0  1.083035  0
H  H32  1  0.98450016  0.01089018  0.72686741  1  0  0.0725  0  0.96991  0  0  0.080005  0  1.034171  0  0  0.08278  0  1.030896  0  0  0.108197  0.077917  0  1.036642  0
H  H33  1  0.01551321  0.48917471  0.22686959  1  0  0.07223  0  0.970026  0  0  0.079773  0  1.034227  0  0  0.082548  0  1.030952  0  0  0.108049  0.077681  0  1.036695  0
H  H34  1  0.01551684  0.98909306  0.27312711  1  0  0.072382  0  0.970007  0  0  0.079968  0  1.034187  0  0  0.082744  0  1.03091  0  0  0.108134  0.077876  0  1.036656  0
H  H35  1  0.98447806  0.51084036  0.77313481  1  0  0.072296  0  0.969978  0  0  0.079823  0  1.034215  0  0  0.082602  0  1.030931  0  0  0.108061  0.077734  0  1.036686  0
C  C36  1  0.94814373  0.78457364  0.55508073  1  0  0.183828  0  3.666826  0  0  0.153006  0  3.913789  0  0  0.163878  0  3.928259  0  0  0.052742  0.145839  0  3.904434  0
C  C37  1  0.05186197  0.71542423  0.05507520  1  0  0.184043  0  3.666741  0  0  0.153204  0  3.913742  0  0  0.164075  0  3.928211  0  0  0.052813  0.146046  0  3.904383  0
C  C38  1  0.05185399  0.21541990  0.44491922  1  0  0.184006  0  3.666648  0  0  0.153094  0  3.91365  0  0  0.163968  0  3.928116  0  0  0.052788  0.145925  0  3.904303  0
C  C39  1  0.94814836  0.28458307  0.94492030  1  0  0.183901  0  3.666708  0  0  0.153004  0  3.913714  0  0  0.163876  0  3.928183  0  0  0.052764  0.145849  0  3.904351  0
C  C40  1  0.11642284  0.92339523  0.56241615  1  0  -0.181967  0  3.709386  0  0  -0.195191  0  3.961272  0  0  -0.206645  0  3.982198  0  0  -0.097673  -0.188204  0  3.948239  0
C  C41  1  0.88357841  0.57661038  0.06241466  1  0  -0.182158  0  3.70944  0  0  -0.195401  0  3.96132  0  0  -0.206859  0  3.982252  0  0  -0.097778  -0.188422  0  3.948293  0
C  C42  1  0.88358057  0.07659320  0.43758429  1  0  -0.182024  0  3.709528  0  0  -0.195317  0  3.961349  0  0  -0.206786  0  3.982277  0  0  -0.097712  -0.18834  0  3.948338  0
C  C43  1  0.11642283  0.42340332  0.93758232  1  0  -0.181899  0  3.709401  0  0  -0.195106  0  3.961269  0  0  -0.20657  0  3.982211  0  0  -0.097628  -0.188121  0  3.948246  0
C  C44  1  0.10434648  0.06148246  0.59540155  1  0  0.19694  0  3.673415  0  0  0.165275  0  3.936873  0  0  0.178047  0  3.947926  0  0  0.062396  0.156749  0  3.929731  0
C  C45  1  0.89565076  0.43853117  0.09540208  1  0  0.197067  0  3.673422  0  0  0.165499  0  3.936787  0  0  0.178264  0  3.94784  0  0  0.062555  0.156969  0  3.929647  0
C  C46  1  0.89566417  0.93851347  0.40459987  1  0  0.196977  0  3.673373  0  0  0.165316  0  3.936806  0  0  0.178095  0  3.947859  0  0  0.062383  0.15679  0  3.929668  0
C  C47  1  0.10434238  0.56148514  0.90459787  1  0  0.196833  0  3.673492  0  0  0.165172  0  3.936929  0  0  0.177929  0  3.947983  0  0  0.062358  0.156647  0  3.929789  0
C  C48  1  0.78277147  0.92364529  0.60901978  1  0  0.326594  0  3.779642  0  0  0.309152  0  4.061782  0  0  0.326348  0  4.073603  0  0  0.233023  0.29749  0  4.054026  0
C  C49  1  0.21722644  0.57635734  0.10901984  1  0  0.326855  0  3.779246  0  0  0.309395  0  4.061467  0  0  0.326592  0  4.073288  0  0  0.233069  0.297719  0  4.053732  0
C  C50  1  0.21723820  0.07635444  0.39098066  1  0  0.326681  0  3.77942  0  0  0.309315  0  4.061394  0  0  0.326506  0  4.073228  0  0  0.233143  0.297654  0  4.053617  0
C  C51  1  0.78276680  0.42365013  0.89098208  1  0  0.32672  0  3.779258  0  0  0.309244  0  4.061436  0  0  0.326437  0  4.073258  0  0  0.233071  0.297571  0  4.05369  0
C  C52  1  0.62459675  0.09556429  0.68996230  1  0  -0.202764  0  3.62402  0  0  -0.229102  0  3.8853  0  0  -0.227876  0  3.892002  0  0  -0.150204  -0.229896  0  3.880643  0
C  C53  1  0.37539657  0.40443453  0.18996216  1  0  -0.202855  0  3.62399  0  0  -0.229239  0  3.885315  0  0  -0.228012  0  3.892005  0  0  -0.150239  -0.229997  0  3.880597  0
C  C54  1  0.37542323  0.90443785  0.31004061  1  0  -0.203033  0  3.624363  0  0  -0.229471  0  3.885859  0  0  -0.228181  0  3.892369  0  0  -0.150301  -0.230289  0  3.881293  0
C  C55  1  0.62458461  0.59556044  0.81003976  1  0  -0.202954  0  3.624359  0  0  -0.229347  0  3.885722  0  0  -0.228104  0  3.892412  0  0  -0.150256  -0.230121  0  3.881038  0
C  C56  1  0.37745858  0.02419937  0.79615350  1  0  0.333344  0  3.791005  0  0  0.315965  0  4.072121  0  0  0.333036  0  4.084235  0  0  0.233544  0.304497  0  4.064049  0
C  C57  1  0.62253642  0.47582141  0.29615399  1  0  0.333233  0  3.791098  0  0  0.315953  0  4.072082  0  0  0.333027  0  4.08419  0  0  0.233574  0.30448  0  4.064005  0
C  C58  1  0.62255261  0.97578267  0.20384595  1  0  0.333208  0  3.790682  0  0  0.315748  0  4.071918  0  0  0.332812  0  4.084045  0  0  0.233458  0.304304  0  4.063802  0
C  C59  1  0.37745243  0.52419116  0.70384793  1  0  0.333312  0  3.790974  0  0  0.315978  0  4.072028  0  0  0.33305  0  4.084139  0  0  0.23356  0.304514  0  4.063942  0
C  C60  1  0.15610954  0.98580277  0.87863378  1  0  0.196468  0  3.665249  0  0  0.160993  0  3.917778  0  0  0.173384  0  3.929633  0  0  0.055421  0.152748  0  3.91033  0
C  C61  1  0.84388752  0.51422329  0.37863657  1  0  0.196481  0  3.665336  0  0  0.160997  0  3.917876  0  0  0.173387  0  3.929734  0  0  0.055389  0.152746  0  3.910423  0
C  C62  1  0.84389672  0.01418310  0.12136122  1  0  0.19635  0  3.665051  0  0  0.160967  0  3.917463  0  0  0.173351  0  3.929325  0  0  0.055422  0.15272  0  3.910017  0
C  C63  1  0.15609696  0.48579437  0.62136634  1  0  0.196489  0  3.665159  0  0  0.161027  0  3.917633  0  0  0.173418  0  3.929489  0  0  0.055455  0.152784  0  3.910181  0
C  C64  1  0.02138091  0.98459837  0.83207517  1  0  -0.190435  0  3.738087  0  0  -0.202039  0  3.988757  0  0  -0.213481  0  4.008027  0  0  -0.099558  -0.195036  0  3.976589  0
C  C65  1  0.97861961  0.51543699  0.33207677  1  0  -0.190533  0  3.73813  0  0  -0.202067  0  3.988692  0  0  -0.21351  0  4.007973  0  0  -0.0995  -0.195054  0  3.976499  0
C  C66  1  0.97863181  0.01538112  0.16791885  1  0  -0.190385  0  3.737872  0  0  -0.201988  0  3.988607  0  0  -0.213435  0  4.007881  0  0  -0.099433  -0.194979  0  3.976438  0
C  C67  1  0.02136585  0.48457688  0.66792614  1  0  -0.190508  0  3.738254  0  0  -0.202059  0  3.988834  0  0  -0.213506  0  4.008111  0  0  -0.099591  -0.195052  0  3.976666  0
C  C68  1  0.07993693  0.00609598  0.76648038  1  0  0.183947  0  3.682777  0  0  0.155996  0  3.937011  0  0  0.169185  0  3.948066  0  0  0.054775  0.147209  0  3.929707  0
C  C69  1  0.92006616  0.49395325  0.26648054  1  0  0.184473  0  3.682416  0  0  0.156551  0  3.936558  0  0  0.169742  0  3.947611  0  0  0.054971  0.147766  0  3.929237  0
C  C70  1  0.92007865  0.99388095  0.23351413  1  0  0.184116  0  3.682316  0  0  0.156062  0  3.936589  0  0  0.169252  0  3.947641  0  0  0.054825  0.147278  0  3.929277  0
C  C71  1  0.07992040  0.50606313  0.73352336  1  0  0.184204  0  3.682392  0  0  0.156238  0  3.936597  0  0  0.169432  0  3.947645  0  0  0.054926  0.147448  0  3.929292  0
S  S72  1  0.55859133  0.91347592  0.63639065  1  0  0.032315  0  2.462546  0  0  0.02208  0  2.819509  0  0  0.018144  0  2.818524  0  0  0.032984  0.024644  0  2.820417  0
S  S73  1  0.44140448  0.58651204  0.13638577  1  0  0.032302  0  2.46251  0  0  0.022098  0  2.81949  0  0  0.018157  0  2.818507  0  0  0.032994  0.024659  0  2.820386  0
S  S74  1  0.44141527  0.08652889  0.36360880  1  0  0.032433  0  2.462653  0  0  0.022228  0  2.819557  0  0  0.018278  0  2.818563  0  0  0.03304  0.024797  0  2.820441  0
S  S75  1  0.55858633  0.41347778  0.86361220  1  0  0.032369  0  2.462523  0  0  0.022164  0  2.81949  0  0  0.018225  0  2.818501  0  0  0.032996  0.024728  0  2.820381  0
S  S76  1  0.61388728  0.05316286  0.77773694  1  0  0.01616  0  2.440008  0  0  0.004952  0  2.800114  0  0  0.001025  0  2.797842  0  0  0.034004  0.007803  0  2.801434  0
S  S77  1  0.38610264  0.44684377  0.27773640  1  0  0.016249  0  2.439891  0  0  0.005003  0  2.799988  0  0  0.001071  0  2.79772  0  0  0.033991  0.007847  0  2.801285  0
S  S78  1  0.38612556  0.94682294  0.22226498  1  0  0.016276  0  2.440015  0  0  0.005099  0  2.800223  0  0  0.001158  0  2.79794  0  0  0.034021  0.00794  0  2.80153  0
S  S79  1  0.61388216  0.55316253  0.72226553  1  0  0.016204  0  2.440168  0  0  0.004992  0  2.80026  0  0  0.001065  0  2.797984  0  0  0.033972  0.007837  0  2.801575  0
I  I80  1  0.63045886  0.32330272  0.53383851  1  0  -0.464016  0  1.44236  0  0  -0.413783  0  1.862461  0  0  -0.431739  0  1.828422  0  0  -0.20547  -0.399974  0  1.88409  0
I  I81  1  0.36954470  0.17670603  0.03383607  1  0  -0.46403  0  1.44242  0  0  -0.41371  0  1.862411  0  0  -0.431677  0  1.828379  0  0  -0.205448  -0.399924  0  1.884071  0
I  I82  1  0.36953459  0.67670222  0.46616391  1  0  -0.464031  0  1.442397  0  0  -0.413763  0  1.862451  0  0  -0.431723  0  1.828404  0  0  -0.205462  -0.399949  0  1.884079  0
I  I83  1  0.63046508  0.82330001  0.96615894  1  0  -0.463992  0  1.442461  0  0  -0.413672  0  1.862445  0  0  -0.431637  0  1.828412  0  0  -0.20544  -0.399884  0  1.884116  0
N  N84  1  0.77994874  0.78152325  0.57836892  1  0  -0.368078  0  3.358665  0  0  -0.296102  0  3.645139  0  0  -0.311123  0  3.650547  0  0  -0.362594  -0.287049  0  3.641654  0
N  N85  1  0.22005370  0.71847252  0.07836425  1  0  -0.368146  0  3.358505  0  0  -0.296236  0  3.645082  0  0  -0.31126  0  3.650494  0  0  -0.362611  -0.287194  0  3.641633  0
N  N86  1  0.22005249  0.21847531  0.42163251  1  0  -0.368064  0  3.358501  0  0  -0.29612  0  3.645017  0  0  -0.31114  0  3.650422  0  0  -0.362617  -0.287062  0  3.64151  0
N  N87  1  0.77994973  0.28153106  0.92163373  1  0  -0.368019  0  3.358232  0  0  -0.296081  0  3.644805  0  0  -0.311103  0  3.650219  0  0  -0.362581  -0.287036  0  3.641339  0
N  N88  1  0.33672724  0.01011008  0.86200150  1  0  -0.376208  0  3.352617  0  0  -0.302567  0  3.636782  0  0  -0.317253  0  3.640735  0  0  -0.364533  -0.293872  0  3.634339  0
N  N89  1  0.66326678  0.48990043  0.36200259  1  0  -0.376161  0  3.352597  0  0  -0.302561  0  3.636766  0  0  -0.317246  0  3.640708  0  0  -0.364538  -0.293857  0  3.634287  0
N  N90  1  0.66327979  0.98987452  0.13799647  1  0  -0.376092  0  3.352237  0  0  -0.302421  0  3.636358  0  0  -0.317101  0  3.640303  0  0  -0.364477  -0.293732  0  3.633911  0
N  N91  1  0.33672153  0.51011088  0.63799884  1  0  -0.376185  0  3.352462  0  0  -0.302562  0  3.636622  0  0  -0.317245  0  3.640567  0  0  -0.364527  -0.293855  0  3.634145  0
N  N92  1  0.93826274  0.06216556  0.61825616  1  0  -0.38514  0  3.092084  0  0  -0.339435  0  3.353787  0  0  -0.357075  0  3.367683  0  0  -0.320644  -0.327613  0  3.344408  0
N  N93  1  0.06172530  0.43783844  0.11825837  1  0  -0.385279  0  3.091983  0  0  -0.339634  0  3.353749  0  0  -0.35727  0  3.367624  0  0  -0.320735  -0.327799  0  3.344364  0
N  N94  1  0.06174452  0.93783167  0.38174230  1  0  -0.385358  0  3.091939  0  0  -0.339662  0  3.353599  0  0  -0.357306  0  3.367495  0  0  -0.320787  -0.327832  0  3.344204  0
N  N95  1  0.93825742  0.56216914  0.88174405  1  0  -0.385225  0  3.091991  0  0  -0.339451  0  3.35362  0  0  -0.357094  0  3.367529  0  0  -0.320698  -0.327622  0  3.344237  0
N  N96  1  0.25654322  0.02260257  0.74808054  1  0  -0.370003  0  3.04483  0  0  -0.329137  0  3.30695  0  0  -0.345653  0  3.319428  0  0  -0.318651  -0.318123  0  3.298523  0
N  N97  1  0.74345742  0.47744765  0.24808030  1  0  -0.37018  0  3.044745  0  0  -0.329381  0  3.30683  0  0  -0.345899  0  3.319304  0  0  -0.318742  -0.318389  0  3.298438  0
N  N98  1  0.74346973  0.97737439  0.25191595  1  0  -0.370092  0  3.044507  0  0  -0.329165  0  3.306691  0  0  -0.345687  0  3.319175  0  0  -0.31873  -0.318157  0  3.298251  0
N  N99  1  0.25653396  0.52257373  0.75192162  1  0  -0.370061  0  3.044553  0  0  -0.329227  0  3.306665  0  0  -0.345742  0  3.319138  0  0  -0.318692  -0.318235  0  3.298276  0
