# generated using pymatgen
data_NdH10C9O11F12
_symmetry_space_group_name_H-M   'P 1'
_cell_length_a   9.65368549
_cell_length_b   10.33092269
_cell_length_c   10.88857299
_cell_angle_alpha   83.76186829
_cell_angle_beta   86.87243872
_cell_angle_gamma   69.56771539
_symmetry_Int_Tables_number   1
_chemical_formula_structural   NdH10C9O11F12
_chemical_formula_sum   'Nd2 H20 C18 O22 F24'
_cell_volume   1011.42590212
_cell_formula_units_Z   2
loop_
 _symmetry_equiv_pos_site_id
 _symmetry_equiv_pos_as_xyz
  1  'x, y, z'
loop_
 _atom_site_type_symbol
 _atom_site_label
 _atom_site_symmetry_multiplicity
 _atom_site_fract_x
 _atom_site_fract_y
 _atom_site_fract_z
 _atom_site_occupancy
 _atom_site_hle17_bader_spin_density
 _atom_site_hle17_ddec_charge
 _atom_site_hle17_ddec_spin_density
 _atom_site_hle17_ddec_sum_bond_order
 _atom_site_hle17_magmom
 _atom_site_hse06_10hf_bader_spin_density
 _atom_site_hse06_10hf_ddec_charge
 _atom_site_hse06_10hf_ddec_spin_density
 _atom_site_hse06_10hf_ddec_sum_bond_order
 _atom_site_hse06_10hf_magmom
 _atom_site_hse06_bader_spin_density
 _atom_site_hse06_ddec_charge
 _atom_site_hse06_ddec_spin_density
 _atom_site_hse06_ddec_sum_bond_order
 _atom_site_hse06_magmom
 _atom_site_pbe_bader_spin_density
 _atom_site_pbe_cm5_charge
 _atom_site_pbe_ddec_charge
 _atom_site_pbe_ddec_spin_density
 _atom_site_pbe_ddec_sum_bond_order
 _atom_site_pbe_magmom
Nd  Nd0  1  0.38798853  0.28148205  0.46914917  1  0  2.386429  0  1.527667  0  0  2.284263  0  1.889637  0  0  2.320203  0  1.847651  0  0  1.468555  2.258609  0  1.919065  0
Nd  Nd1  1  0.61201142  0.71852281  0.53085175  1  0  2.386398  0  1.527631  0  0  2.284234  0  1.889576  0  0  2.320177  0  1.847611  0  0  1.468601  2.258574  0  1.919008  0
H  H2  1  0.42583743  0.19466756  0.73997583  1  0  0.440433  0  0.807295  0  0  0.418853  0  0.865276  0  0  0.427266  0  0.855772  0  0  0.32673  0.412757  0  0.872355  0
H  H3  1  0.57416003  0.80534147  0.26002110  1  0  0.440426  0  0.80729  0  0  0.418858  0  0.865257  0  0  0.427269  0  0.85575  0  0  0.32674  0.412759  0  0.872332  0
H  H4  1  0.26908315  0.17879140  0.73676832  1  0  0.443572  0  0.852366  0  0  0.410234  0  0.918454  0  0  0.421964  0  0.901435  0  0  0.296267  0.402018  0  0.930356  0
H  H5  1  0.73091372  0.82121348  0.26323087  1  0  0.44362  0  0.852303  0  0  0.410321  0  0.91832  0  0  0.42204  0  0.901323  0  0  0.296292  0.402092  0  0.930246  0
H  H6  1  0.60743787  0.16194482  0.26600498  1  0  0.441832  0  0.833225  0  0  0.413478  0  0.893661  0  0  0.422756  0  0.879697  0  0  0.308739  0.406649  0  0.904  0
H  H7  1  0.39256363  0.83806417  0.73399916  1  0  0.441733  0  0.83345  0  0  0.413345  0  0.89388  0  0  0.42266  0  0.879847  0  0  0.308699  0.406549  0  0.904153  0
H  H8  1  0.56287087  0.02940080  0.30655837  1  0  0.45064  0  0.834573  0  0  0.423171  0  0.890874  0  0  0.433502  0  0.87572  0  0  0.303384  0.415449  0  0.902221  0
H  H9  1  0.43712541  0.97059994  0.69344214  1  0  0.450665  0  0.834561  0  0  0.423165  0  0.890916  0  0  0.433506  0  0.87574  0  0  0.303402  0.415448  0  0.902251  0
H  H10  1  0.06677516  0.36937473  0.60982289  1  0  0.445373  0  0.853013  0  0  0.409782  0  0.923078  0  0  0.421681  0  0.905699  0  0  0.296098  0.401357  0  0.935423  0
H  H11  1  0.93322435  0.63062289  0.39017689  1  0  0.445445  0  0.852917  0  0  0.409856  0  0.922969  0  0  0.421757  0  0.90559  0  0  0.296101  0.401437  0  0.935302  0
H  H12  1  0.05970517  0.34569696  0.46972378  1  0  0.450004  0  0.808981  0  0  0.424905  0  0.873424  0  0  0.433353  0  0.860933  0  0  0.321138  0.418658  0  0.882808  0
H  H13  1  0.94029186  0.65430170  0.53027782  1  0  0.450064  0  0.809089  0  0  0.424971  0  0.873374  0  0  0.433419  0  0.860881  0  0  0.321197  0.418724  0  0.882755  0
H  H14  1  0.35778657  0.58699767  0.40646765  1  0  0.438499  0  0.849774  0  0  0.410184  0  0.912668  0  0  0.42051  0  0.89738  0  0  0.307484  0.402843  0  0.923554  0
H  H15  1  0.64220810  0.41300206  0.59352751  1  0  0.438527  0  0.849718  0  0  0.410205  0  0.912634  0  0  0.420534  0  0.897343  0  0  0.307495  0.402865  0  0.92352  0
H  H16  1  0.20297857  0.58570253  0.36635441  1  0  0.435295  0  0.860958  0  0  0.404439  0  0.924444  0  0  0.414299  0  0.910017  0  0  0.299186  0.397432  0  0.93472  0
H  H17  1  0.79702551  0.41429718  0.63363675  1  0  0.435268  0  0.861013  0  0  0.404408  0  0.924495  0  0  0.414265  0  0.910073  0  0  0.299168  0.397405  0  0.934765  0
H  H18  1  0.16980745  0.44425536  0.25250363  1  0  0.446854  0  0.847629  0  0  0.410527  0  0.919846  0  0  0.421403  0  0.903699  0  0  0.29928  0.402771  0  0.931406  0
H  H19  1  0.83019545  0.55574432  0.74749675  1  0  0.44675  0  0.847751  0  0  0.410454  0  0.919901  0  0  0.421328  0  0.903758  0  0  0.299256  0.402693  0  0.931467  0
H  H20  1  0.25751899  0.29365479  0.20920619  1  0  0.464315  0  0.780863  0  0  0.445404  0  0.830013  0  0  0.453524  0  0.818202  0  0  0.336407  0.439698  0  0.838365  0
H  H21  1  0.74247565  0.70634494  0.79079081  1  0  0.464307  0  0.780835  0  0  0.445435  0  0.829956  0  0  0.453553  0  0.818146  0  0  0.33639  0.439721  0  0.838317  0
C  C22  1  0.39251090  0.52776011  0.67499271  1  0  0.64341  0  3.896491  0  0  0.589077  0  4.198321  0  0  0.622235  0  4.187853  0  0  0.232357  0.566255  0  4.205931  0
C  C23  1  0.60751438  0.47225501  0.32500542  1  0  0.643694  0  3.896139  0  0  0.589196  0  4.198167  0  0  0.622371  0  4.187681  0  0  0.232414  0.566383  0  4.205761  0
C  C24  1  0.25608426  0.54582458  0.76467705  1  0  0.313637  0  3.610871  0  0  0.268902  0  3.913363  0  0  0.28256  0  3.902621  0  0  0.197406  0.257967  0  3.922737  0
C  C25  1  0.74392217  0.45416579  0.23531491  1  0  0.313396  0  3.611239  0  0  0.268582  0  3.913817  0  0  0.282211  0  3.903047  0  0  0.197188  0.257636  0  3.923178  0
C  C26  1  0.25111397  0.63578546  0.87284412  1  0  0.345021  0  3.636459  0  0  0.287325  0  3.947444  0  0  0.303596  0  3.937387  0  0  0.194447  0.275253  0  3.956038  0
C  C27  1  0.74887746  0.36421738  0.12715270  1  0  0.344633  0  3.637177  0  0  0.287328  0  3.947619  0  0  0.303653  0  3.937489  0  0  0.194484  0.275281  0  3.956263  0
C  C28  1  0.13249657  0.63599503  0.97717781  1  0  0.335206  0  3.641205  0  0  0.284568  0  3.947474  0  0  0.300221  0  3.937521  0  0  0.190981  0.273243  0  3.955417  0
C  C29  1  0.86749018  0.36401396  0.02284063  1  0  0.3357  0  3.640755  0  0  0.284913  0  3.947204  0  0  0.300574  0  3.937225  0  0  0.19104  0.2735  0  3.95526  0
C  C30  1  0.12046382  0.72937309  0.08365534  1  0  0.314122  0  3.642731  0  0  0.269361  0  3.949263  0  0  0.283024  0  3.939467  0  0  0.187754  0.25931  0  3.956789  0
C  C31  1  0.87954168  0.27062131  0.91636658  1  0  0.313798  0  3.642163  0  0  0.268731  0  3.949271  0  0  0.282384  0  3.939498  0  0  0.1876  0.258744  0  3.956737  0
C  C32  1  0.00074549  0.71797897  0.18440310  1  0  0.582279  0  3.913002  0  0  0.516809  0  4.233849  0  0  0.547897  0  4.227569  0  0  0.206452  0.495733  0  4.237688  0
C  C33  1  0.99927344  0.28201845  0.81556783  1  0  0.582058  0  3.914054  0  0  0.516599  0  4.234959  0  0  0.547693  0  4.228674  0  0  0.206518  0.495523  0  4.238761  0
C  C34  1  0.29199965  0.97703307  0.42737962  1  0  0.631766  0  3.93301  0  0  0.58017  0  4.236667  0  0  0.612593  0  4.226922  0  0  0.224437  0.558366  0  4.242912  0
C  C35  1  0.70800308  0.02297283  0.57261834  1  0  0.631783  0  3.932966  0  0  0.580542  0  4.236101  0  0  0.612734  0  4.226774  0  0  0.224383  0.558522  0  4.242737  0
C  C36  1  0.14405523  0.00673664  0.35958370  1  0  0.317233  0  3.623497  0  0  0.27224  0  3.926351  0  0  0.286291  0  3.914608  0  0  0.192928  0.261952  0  3.935327  0
C  C37  1  0.85593979  0.99327031  0.64041811  1  0  0.317321  0  3.623391  0  0  0.271931  0  3.926906  0  0  0.286076  0  3.915008  0  0  0.192906  0.261731  0  3.935745  0
C  C38  1  0.02192601  0.96677110  0.43784946  1  0  0.340795  0  3.645141  0  0  0.28011  0  3.962335  0  0  0.295795  0  3.953085  0  0  0.193188  0.268451  0  3.970073  0
C  C39  1  0.97807500  0.03322750  0.56216304  1  0  0.340929  0  3.644961  0  0  0.279856  0  3.962847  0  0  0.295891  0  3.953067  0  0  0.193085  0.268538  0  3.97005  0
O  O40  1  0.45018351  0.41032358  0.63389074  1  0  -0.686766  0  2.058461  0  0  -0.644507  0  2.300086  0  0  -0.667685  0  2.287768  0  0  -0.35181  -0.628404  0  2.308713  0
O  O41  1  0.54980572  0.58967098  0.36610877  1  0  -0.686695  0  2.058567  0  0  -0.644405  0  2.300298  0  0  -0.667564  0  2.287939  0  0  -0.351695  -0.628299  0  2.308918  0
O  O42  1  0.42896142  0.63295569  0.65159498  1  0  -0.663271  0  2.07824  0  0  -0.629755  0  2.332623  0  0  -0.652615  0  2.321389  0  0  -0.359061  -0.613915  0  2.340552  0
O  O43  1  0.57103369  0.36705128  0.34840131  1  0  -0.663641  0  2.07789  0  0  -0.630051  0  2.332336  0  0  -0.652896  0  2.321093  0  0  -0.359237  -0.614177  0  2.340258  0
O  O44  1  0.87574461  0.80799887  0.17358156  1  0  -0.52799  0  1.976348  0  0  -0.49436  0  2.194456  0  0  -0.515403  0  2.184244  0  0  -0.296095  -0.480087  0  2.201339  0
O  O45  1  0.12424973  0.19199764  0.82644147  1  0  -0.528027  0  1.97676  0  0  -0.494474  0  2.195011  0  0  -0.515412  0  2.184646  0  0  -0.29627  -0.480094  0  2.201734  0
O  O46  1  0.04580256  0.61633036  0.26818495  1  0  -0.639451  0  2.081213  0  0  -0.576132  0  2.303083  0  0  -0.602594  0  2.292847  0  0  -0.304049  -0.557661  0  2.309872  0
O  O47  1  0.95420019  0.38365788  0.73182663  1  0  -0.638926  0  2.082158  0  0  -0.575545  0  2.303909  0  0  -0.60201  0  2.293693  0  0  -0.30381  -0.557098  0  2.310724  0
O  O48  1  0.31838688  0.07978680  0.45690678  1  0  -0.687467  0  2.116134  0  0  -0.656267  0  2.383925  0  0  -0.678518  0  2.371509  0  0  -0.383258  -0.641143  0  2.392086  0
O  O49  1  0.68159447  0.92022957  0.54308726  1  0  -0.687492  0  2.116079  0  0  -0.656202  0  2.383457  0  0  -0.678548  0  2.371384  0  0  -0.383197  -0.641161  0  2.391921  0
O  O50  1  0.36969569  0.85052241  0.44347712  1  0  -0.668555  0  2.067458  0  0  -0.63965  0  2.326155  0  0  -0.661418  0  2.314251  0  0  -0.381269  -0.624535  0  2.333614  0
O  O51  1  0.63031159  0.14948244  0.55651986  1  0  -0.66862  0  2.067498  0  0  -0.639725  0  2.32593  0  0  -0.661518  0  2.314258  0  0  -0.381287  -0.624649  0  2.333625  0
O  O52  1  0.36774423  0.15905056  0.69111462  1  0  -0.894655  0  1.881223  0  0  -0.843528  0  2.064067  0  0  -0.862692  0  2.035516  0  0  -0.59235  -0.829895  0  2.084417  0
O  O53  1  0.63225407  0.84095016  0.30888951  1  0  -0.89469  0  1.881159  0  0  -0.843564  0  2.063909  0  0  -0.862742  0  2.035434  0  0  -0.592378  -0.829938  0  2.084313  0
O  O54  1  0.52581558  0.13246238  0.29825367  1  0  -0.89668  0  1.825463  0  0  -0.851995  0  1.996235  0  0  -0.86916  0  1.965486  0  0  -0.626972  -0.839745  0  2.018609  0
O  O55  1  0.47418583  0.86754146  0.70174454  1  0  -0.896628  0  1.825688  0  0  -0.85194  0  1.996465  0  0  -0.86908  0  1.965647  0  0  -0.62696  -0.839659  0  2.018769  0
O  O56  1  0.12385422  0.35910267  0.52927755  1  0  -0.918249  0  1.837548  0  0  -0.877494  0  2.046929  0  0  -0.894176  0  2.013753  0  0  -0.652922  -0.865763  0  2.070896  0
O  O57  1  0.87614950  0.64090322  0.47072314  1  0  -0.918334  0  1.83754  0  0  -0.877579  0  2.046823  0  0  -0.89425  0  2.013649  0  0  -0.653005  -0.865834  0  2.070794  0
O  O58  1  0.28207130  0.54379241  0.42720075  1  0  -0.904868  0  1.882788  0  0  -0.865929  0  2.075557  0  0  -0.883886  0  2.044576  0  0  -0.639062  -0.853461  0  2.097577  0
O  O59  1  0.71793369  0.45620726  0.57279864  1  0  -0.904879  0  1.882855  0  0  -0.865918  0  2.07563  0  0  -0.883893  0  2.044678  0  0  -0.639014  -0.85347  0  2.097686  0
O  O60  1  0.24191189  0.35094137  0.27713419  1  0  -0.921606  0  1.862677  0  0  -0.88142  0  2.061184  0  0  -0.897706  0  2.028664  0  0  -0.642174  -0.869697  0  2.083991  0
O  O61  1  0.75808499  0.64905526  0.72285842  1  0  -0.921477  0  1.862811  0  0  -0.881348  0  2.061279  0  0  -0.897642  0  2.02877  0  0  -0.642097  -0.869631  0  2.08409  0
F  F62  1  0.25638913  0.41809395  0.81547050  1  0  -0.192311  0  1.230567  0  0  -0.161225  0  1.40543  0  0  -0.169105  0  1.391931  0  0  -0.095983  -0.156002  0  1.415407  0
F  F63  1  0.74361816  0.58189637  0.18453338  1  0  -0.192254  0  1.230708  0  0  -0.161183  0  1.405606  0  0  -0.169035  0  1.392104  0  0  -0.095897  -0.155931  0  1.415575  0
F  F64  1  0.13014699  0.60596563  0.69639489  1  0  -0.195833  0  1.231291  0  0  -0.153188  0  1.396697  0  0  -0.162752  0  1.385331  0  0  -0.092083  -0.14261  0  1.400931  0
F  F65  1  0.86983438  0.39404447  0.30361077  1  0  -0.195706  0  1.231455  0  0  -0.153075  0  1.396901  0  0  -0.162598  0  1.385516  0  0  -0.092017  -0.142469  0  1.401125  0
F  F66  1  0.38841464  0.58509952  0.92406624  1  0  -0.176201  0  1.199548  0  0  -0.147201  0  1.368286  0  0  -0.155079  0  1.353618  0  0  -0.096498  -0.141474  0  1.37859  0
F  F67  1  0.61159294  0.41487635  0.07592706  1  0  -0.176052  0  1.199941  0  0  -0.147173  0  1.368552  0  0  -0.15504  0  1.353863  0  0  -0.096508  -0.141419  0  1.378849  0
F  F68  1  0.22381612  0.77075123  0.82559295  1  0  -0.185753  0  1.235241  0  0  -0.145831  0  1.403312  0  0  -0.153371  0  1.387629  0  0  -0.083757  -0.140394  0  1.414429  0
F  F69  1  0.77619092  0.22925156  0.17440148  1  0  -0.185631  0  1.235349  0  0  -0.145681  0  1.403106  0  0  -0.153362  0  1.387609  0  0  -0.083731  -0.14037  0  1.414426  0
F  F70  1  0.16404527  0.50241461  0.03057590  1  0  -0.195607  0  1.237114  0  0  -0.163987  0  1.413811  0  0  -0.172265  0  1.399378  0  0  -0.09848  -0.157991  0  1.42379  0
F  F71  1  0.83595681  0.49757573  0.96942908  1  0  -0.19565  0  1.237101  0  0  -0.163998  0  1.413847  0  0  -0.172279  0  1.399411  0  0  -0.098454  -0.157979  0  1.423857  0
F  F72  1  0.99718788  0.67776907  0.92304360  1  0  -0.177241  0  1.207266  0  0  -0.148973  0  1.378192  0  0  -0.156942  0  1.364468  0  0  -0.097066  -0.143476  0  1.387951  0
F  F73  1  0.00281448  0.32222134  0.07694391  1  0  -0.177349  0  1.207125  0  0  -0.149046  0  1.37809  0  0  -0.157015  0  1.364355  0  0  -0.097075  -0.143521  0  1.387873  0
F  F74  1  0.25743940  0.68661696  0.13768709  1  0  -0.208575  0  1.181325  0  0  -0.170382  0  1.340218  0  0  -0.177746  0  1.32613  0  0  -0.11342  -0.165059  0  1.350084  0
F  F75  1  0.74257256  0.31338061  0.86231318  1  0  -0.208699  0  1.181261  0  0  -0.170406  0  1.340283  0  0  -0.177783  0  1.3262  0  0  -0.113542  -0.165099  0  1.350127  0
F  F76  1  0.08762669  0.86324295  0.03484423  1  0  -0.172372  0  1.237345  0  0  -0.145751  0  1.409588  0  0  -0.1532  0  1.394849  0  0  -0.099891  -0.140298  0  1.419818  0
F  F77  1  0.91238328  0.13674325  0.96515168  1  0  -0.172353  0  1.23744  0  0  -0.14563  0  1.409805  0  0  -0.153086  0  1.395074  0  0  -0.099901  -0.140189  0  1.42001  0
F  F78  1  0.08537340  0.14391688  0.31670859  1  0  -0.195549  0  1.260282  0  0  -0.16996  0  1.446137  0  0  -0.177139  0  1.431205  0  0  -0.100418  -0.165267  0  1.456881  0
F  F79  1  0.91459895  0.85608708  0.68328879  1  0  -0.195655  0  1.260089  0  0  -0.170094  0  1.446229  0  0  -0.177189  0  1.431141  0  0  -0.100457  -0.165317  0  1.456824  0
F  F80  1  0.17275301  0.93181957  0.25848870  1  0  -0.191146  0  1.195466  0  0  -0.156544  0  1.359744  0  0  -0.163184  0  1.344337  0  0  -0.107111  -0.151768  0  1.370649  0
F  F81  1  0.82724506  0.06818222  0.74150614  1  0  -0.191095  0  1.195667  0  0  -0.156436  0  1.360155  0  0  -0.163027  0  1.344634  0  0  -0.107033  -0.151608  0  1.370945  0
F  F82  1  0.89749935  0.00608987  0.36770829  1  0  -0.182467  0  1.213416  0  0  -0.140873  0  1.377761  0  0  -0.150972  0  1.367167  0  0  -0.085986  -0.133199  0  1.385037  0
F  F83  1  0.10250759  0.99389836  0.63230039  1  0  -0.182559  0  1.213461  0  0  -0.140646  0  1.377785  0  0  -0.150983  0  1.367165  0  0  -0.085924  -0.133211  0  1.385041  0
F  F84  1  0.07033907  0.82553425  0.46239055  1  0  -0.184092  0  1.243785  0  0  -0.138805  0  1.41279  0  0  -0.147102  0  1.400091  0  0  -0.083504  -0.132965  0  1.422106  0
F  F85  1  0.92965913  0.17446957  0.53761420  1  0  -0.184112  0  1.243665  0  0  -0.138856  0  1.412777  0  0  -0.147107  0  1.399984  0  0  -0.083469  -0.132962  0  1.421994  0
