# generated using pymatgen
data_CuH12C16S(NO2)2
_symmetry_space_group_name_H-M   'P 1'
_cell_length_a   9.21613183
_cell_length_b   9.40488683
_cell_length_c   9.86971340
_cell_angle_alpha   75.00561250
_cell_angle_beta   66.89213982
_cell_angle_gamma   82.92152947
_symmetry_Int_Tables_number   1
_chemical_formula_structural   CuH12C16S(NO2)2
_chemical_formula_sum   'Cu2 H24 C32 S2 N4 O8'
_cell_volume   759.81989636
_cell_formula_units_Z   2
loop_
 _symmetry_equiv_pos_site_id
 _symmetry_equiv_pos_as_xyz
  1  'x, y, z'
loop_
 _atom_site_type_symbol
 _atom_site_label
 _atom_site_symmetry_multiplicity
 _atom_site_fract_x
 _atom_site_fract_y
 _atom_site_fract_z
 _atom_site_occupancy
 _atom_site_hle17_ddec_charge
 _atom_site_hle17_ddec_spin_density
 _atom_site_hle17_ddec_sum_bond_order
 _atom_site_hle17_magmom
 _atom_site_hse06_10hf_ddec_charge
 _atom_site_hse06_10hf_ddec_spin_density
 _atom_site_hse06_10hf_ddec_sum_bond_order
 _atom_site_hse06_10hf_magmom
 _atom_site_hse06_ddec_charge
 _atom_site_hse06_ddec_spin_density
 _atom_site_hse06_ddec_sum_bond_order
 _atom_site_hse06_magmom
 _atom_site_pbe_cm5_charge
 _atom_site_pbe_ddec_charge
 _atom_site_pbe_ddec_spin_density
 _atom_site_pbe_ddec_sum_bond_order
 _atom_site_pbe_magmom
Cu  Cu0  1  0.83926161  0.20352139  0.55949282  1  0.878356  0.742837  1.779985  0.511  0.856285  0.812487  2.167201  0.623  0.945537  0.887511  2.098355  0.706  0.7448  0.802342  0.757035  2.21538  0.568
Cu  Cu1  1  0.16073956  0.79647919  0.44050556  1  0.878316  -0.742802  1.779971  -0.511  0.856265  -0.812493  2.167225  -0.623  0.945533  -0.887488  2.098338  -0.706  0.744781  0.8023  -0.75703  2.215413  -0.568
H  H2  1  0.86809257  0.97035565  0.40336870  1  0.090076  0.001413  0.977411  0.002  0.090681  0.001026  1.052992  0.002  0.092245  0.000764  1.051477  0.001  0.115762  0.089385  0.001234  1.054104  0.002
H  H3  1  0.13190165  0.02964054  0.59663640  1  0.09007  -0.001405  0.977426  -0.002  0.090684  -0.001026  1.052984  -0.002  0.09225  -0.000764  1.051465  -0.001  0.115766  0.089389  -0.001233  1.054107  -0.002
H  H4  1  0.72137450  0.89198043  0.26812922  1  0.097301  0.00049  0.972106  0.0  0.104502  0.000547  1.03707  0.001  0.106114  0.000391  1.039277  0.0  0.101192  0.10345  0.000672  1.035271  0.001
H  H5  1  0.27861865  0.10801135  0.73187836  1  0.097246  -0.000486  0.972095  0.0  0.104424  -0.000547  1.037115  -0.001  0.106029  -0.000392  1.039341  0.0  0.101185  0.10338  -0.000672  1.035292  -0.001
H  H6  1  0.49304094  0.04858691  0.23170058  1  0.096792  0.000439  0.971725  0.001  0.101898  4.1e-05  1.043769  0.0  0.104674  1.7e-05  1.041643  0.0  0.098948  0.099295  1.3e-05  1.046283  0.0
H  H7  1  0.50695332  0.95140598  0.76830327  1  0.096776  -0.000424  0.971683  -0.001  0.101867  -4.1e-05  1.043751  0.0  0.104646  -1.7e-05  1.041614  0.0  0.098939  0.09926  -1.3e-05  1.046262  0.0
H  H8  1  0.42525030  0.28409277  0.32814551  1  0.116271  0.00044  0.955564  0.0  0.124185  0.000516  1.016303  0.001  0.126764  0.000367  1.016397  0.0  0.108312  0.122215  0.000614  1.016647  0.001
H  H9  1  0.57474624  0.71590233  0.67185290  1  0.116257  -0.000443  0.95566  0.0  0.124171  -0.000516  1.01639  -0.001  0.12675  -0.000367  1.016483  0.0  0.108307  0.122195  -0.000614  1.016734  -0.001
H  H10  1  0.58074148  0.34287584  0.46100335  1  0.087755  0.001191  0.950214  0.002  0.09417  0.000883  1.017651  0.001  0.096192  0.000637  1.015386  0.001  0.118512  0.09233  0.001089  1.019853  0.001
H  H11  1  0.41925737  0.65712254  0.53899542  1  0.08776  -0.001181  0.950266  -0.002  0.094179  -0.000882  1.01768  -0.001  0.096201  -0.000637  1.015416  -0.001  0.118481  0.092334  -0.001088  1.019878  -0.001
H  H12  1  0.79540333  0.11946532  0.87844607  1  0.087469  0.000942  0.960825  0.002  0.089321  0.000726  1.03468  0.001  0.092373  0.000527  1.031268  0.001  0.113088  0.087541  0.000896  1.036213  0.002
H  H13  1  0.20460260  0.88053303  0.12155006  1  0.087375  -0.00095  0.960913  -0.002  0.089281  -0.000726  1.034717  -0.001  0.092331  -0.000527  1.031307  -0.001  0.113089  0.087501  -0.000896  1.036249  -0.002
H  H14  1  0.90641141  0.18256261  0.05025422  1  0.10536  0.000398  0.953837  0.0  0.115981  0.000468  1.00966  0.0  0.118282  0.000333  1.011101  0.0  0.104641  0.114394  0.000566  1.008781  0.001
H  H15  1  0.09359692  0.81743462  0.94974330  1  0.105379  -0.000408  0.953932  0.0  0.116026  -0.000468  1.009715  0.0  0.118311  -0.000334  1.011174  0.0  0.10466  0.114451  -0.000566  1.008818  -0.001
H  H16  1  0.12264724  0.36729505  0.93770525  1  0.085435  0.000372  0.998797  0.001  0.095732  2.7e-05  1.061733  0.0  0.096513  -1e-05  1.063069  0.0  0.098417  0.095089  7.5e-05  1.061005  0.0
H  H17  1  0.87735384  0.63271102  0.06229386  1  0.085401  -0.00036  0.998875  -0.001  0.095733  -2.7e-05  1.061764  0.0  0.096515  1.1e-05  1.063101  0.0  0.098412  0.095087  -7.5e-05  1.061039  0.0
H  H18  1  0.22572268  0.47206937  0.65455105  1  0.11245  0.000469  0.950866  0.0  0.118766  0.000552  1.016529  0.0  0.121452  0.000417  1.015781  0.0  0.110116  0.116965  0.000602  1.016795  0.001
H  H19  1  0.77427243  0.52794112  0.34545124  1  0.112446  -0.000472  0.950811  0.0  0.118772  -0.000552  1.016485  0.0  0.121457  -0.000417  1.015738  0.0  0.110107  0.116972  -0.000602  1.016754  -0.001
H  H20  1  0.10453523  0.39444171  0.50158108  1  0.09773  0.000983  0.953994  0.002  0.103401  0.000687  1.020426  0.001  0.105826  0.00048  1.018334  0.001  0.120497  0.101183  0.000864  1.022867  0.002
H  H21  1  0.89546587  0.60556217  0.49841652  1  0.09774  -0.000985  0.954027  -0.002  0.103397  -0.000686  1.020483  -0.001  0.105821  -0.00048  1.018393  -0.001  0.120512  0.101181  -0.000864  1.022918  -0.002
H  H22  1  0.40464174  0.57062582  0.88851629  1  0.108157  -6.9e-05  0.970791  0.0  0.117763  -1.2e-05  1.033506  0.0  0.120107  -1.8e-05  1.033887  0.0  0.103638  0.11616  -3.7e-05  1.033269  0.0
H  H23  1  0.59535479  0.42937584  0.11149268  1  0.108095  5.4e-05  0.97072  0.0  0.117699  1.3e-05  1.033469  0.0  0.120054  1.8e-05  1.033833  0.0  0.103573  0.116094  3.7e-05  1.033252  0.0
H  H24  1  0.18724598  0.49284251  0.16635689  1  0.115145  0.000631  0.964782  0.0  0.123718  0.000424  1.027386  0.0  0.125594  0.000278  1.028147  0.0  0.104519  0.122114  0.000431  1.027349  0.0
H  H25  1  0.81275424  0.50715034  0.83364880  1  0.115102  -0.000614  0.964798  0.0  0.123685  -0.000423  1.02742  0.0  0.125555  -0.000278  1.028189  0.0  0.104492  0.122082  -0.000431  1.027378  0.0
C  C26  1  0.76885176  0.03477372  0.38357798  1  0.117305  -0.009677  3.675141  -0.01  0.090088  -0.000659  3.924996  -0.002  0.098192  -0.001828  3.945367  -0.003  0.042585  0.085174  0.000224  3.910937  -0.001
C  C27  1  0.23114712  0.96522356  0.61642206  1  0.11736  0.00959  3.675325  0.01  0.090165  0.000656  3.925168  0.001  0.098271  0.001832  3.94554  0.003  0.042653  0.085243  -0.000224  3.911121  0.001
C  C28  1  0.68713985  0.99332026  0.30804092  1  -0.121266  0.01317  3.73827  0.013  -0.127691  0.004216  3.980356  0.005  -0.135081  0.003876  4.002389  0.004  -0.085107  -0.122452  0.004285  3.965094  0.005
C  C29  1  0.31285554  0.00667483  0.69196096  1  -0.121193  -0.013101  3.738377  -0.013  -0.12761  -0.00421  3.980449  -0.005  -0.135005  -0.00388  4.002479  -0.004  -0.085109  -0.122372  -0.004284  3.965199  -0.005
C  C30  1  0.56081726  0.08132672  0.28717849  1  -0.002701  -0.011766  3.705343  -0.011  -0.023549  -0.002774  3.951183  -0.003  -0.019258  -0.003059  3.969513  -0.003  -0.067266  -0.026414  -0.002649  3.939326  -0.002
C  C31  1  0.43917698  0.91866837  0.71282585  1  -0.002614  0.011652  3.705199  0.011  -0.023462  0.002771  3.951053  0.003  -0.019164  0.003062  3.969379  0.003  -0.067248  -0.026323  0.00265  3.939184  0.002
C  C32  1  0.52191348  0.20977814  0.34110540  1  -0.124105  0.01266  3.730954  0.013  -0.129448  0.003852  3.972929  0.004  -0.137461  0.00361  3.994926  0.004  -0.08166  -0.12452  0.003988  3.958185  0.004
C  C33  1  0.47808428  0.79021584  0.65889485  1  -0.124204  -0.012552  3.73103  -0.013  -0.12953  -0.003847  3.972985  -0.004  -0.137543  -0.003615  3.994982  -0.004  -0.08167  -0.124604  -0.003987  3.95823  -0.004
C  C34  1  0.60879767  0.24456556  0.41543705  1  0.122007  -0.010064  3.676488  -0.01  0.094435  -0.001107  3.925822  -0.002  0.103319  -0.002173  3.944703  -0.003  0.046985  0.08894  -0.000294  3.91354  -0.001
C  C35  1  0.39120591  0.75543170  0.58455920  1  0.122048  0.009959  3.676443  0.01  0.094488  0.001104  3.925769  0.002  0.103369  0.002177  3.944654  0.003  0.047004  0.088995  0.000294  3.913475  0.001
C  C36  1  0.89055889  0.19682450  0.83570159  1  0.12485  -0.008607  3.678144  -0.009  0.099006  -0.000669  3.924732  -0.001  0.107904  -0.00172  3.94357  -0.003  0.045206  0.093368  7.5e-05  3.911416  0.0
C  C37  1  0.10944461  0.80317826  0.16429640  1  0.125013  0.008548  3.678162  0.009  0.099158  0.000672  3.92473  0.001  0.108057  0.00172  3.943566  0.003  0.045259  0.093517  -7.5e-05  3.911414  0.0
C  C38  1  0.95323023  0.23296843  0.92943609  1  -0.127605  0.011523  3.735246  0.012  -0.1338  0.003664  3.975395  0.004  -0.141899  0.003399  3.99647  0.004  -0.085165  -0.128093  0.003868  3.961196  0.004
C  C39  1  0.04677091  0.76703434  0.07056278  1  -0.127691  -0.011399  3.735256  -0.011  -0.133931  -0.003666  3.975438  -0.004  -0.142017  -0.0034  3.996523  -0.004  -0.085203  -0.128233  -0.003869  3.961225  -0.004
C  C40  1  0.07404191  0.33449024  0.86638689  1  -0.014121  -0.010717  3.737378  -0.01  -0.032973  -0.00276  3.981251  -0.003  -0.027885  -0.002965  3.999506  -0.003  -0.069351  -0.036157  -0.002652  3.968643  -0.002
C  C41  1  0.92595561  0.66551694  0.13361327  1  -0.014073  0.010572  3.737398  0.01  -0.032935  0.002761  3.981261  0.003  -0.027847  0.002963  3.999513  0.003  -0.069357  -0.036122  0.002652  3.968661  0.002
C  C42  1  0.13065196  0.39378013  0.71073662  1  -0.107525  0.012022  3.708855  0.012  -0.118036  0.003946  3.957856  0.005  -0.125143  0.003636  3.97761  0.004  -0.07862  -0.113844  0.004208  3.943744  0.005
C  C43  1  0.86934437  0.60622597  0.28926223  1  -0.107515  -0.011915  3.708549  -0.012  -0.118053  -0.003949  3.957594  -0.005  -0.125163  -0.003638  3.977354  -0.004  -0.078603  -0.113865  -0.004209  3.943487  -0.005
C  C44  1  0.06298795  0.35193885  0.62369593  1  0.127158  -0.008542  3.661527  -0.009  0.098238  -0.000692  3.914832  -0.001  0.10717  -0.001728  3.932926  -0.003  0.051847  0.092558  0.00025  3.90333  0.0
C  C45  1  0.93701315  0.64806722  0.37630520  1  0.127109  0.008479  3.661296  0.009  0.098198  0.000697  3.914649  0.001  0.107131  0.001728  3.932743  0.003  0.051832  0.092518  -0.000249  3.903136  0.0
C  C46  1  0.57502343  0.33657340  0.74269139  1  0.622407  -0.003031  3.984639  -0.006  0.581363  0.000598  4.287462  -0.002  0.617841  0.000166  4.280782  -0.002  0.187927  0.556793  0.001435  4.290479  -0.001
C  C47  1  0.42498234  0.66343375  0.25730569  1  0.622555  0.003003  3.984751  0.006  0.581504  -0.000597  4.28758  0.002  0.617983  -0.000163  4.280898  0.002  0.187951  0.556936  -0.001433  4.290591  0.002
C  C48  1  0.44262726  0.33792296  0.88941802  1  -0.145598  0.007205  3.71536  0.008  -0.124888  0.004574  3.973928  0.005  -0.130072  0.003394  3.991687  0.004  -0.02668  -0.120689  0.006224  3.960627  0.007
C  C49  1  0.55738219  0.66207866  0.11058106  1  -0.145652  -0.00723  3.715445  -0.008  -0.124948  -0.004577  3.974052  -0.005  -0.130139  -0.003391  3.991822  -0.004  -0.026721  -0.120755  -0.006225  3.960767  -0.007
C  C50  1  0.37162627  0.45820779  0.94953909  1  -0.083779  -0.000307  3.759055  0.0  -0.110237  0.000212  4.015604  0.001  -0.111091  5.6e-05  4.034713  0.0  -0.098645  -0.109496  0.000874  4.002345  0.001
C  C51  1  0.62837610  0.54179496  0.05046338  1  -0.083682  0.000387  3.758957  0.0  -0.11016  -0.00021  4.015549  -0.001  -0.111013  -6e-05  4.034663  0.0  -0.098587  -0.109427  -0.000874  4.002311  -0.001
C  C52  1  0.25623193  0.41719770  0.09691773  1  -0.08182  -0.001173  3.741564  -0.001  -0.109311  -0.000147  4.000453  0.0  -0.106895  -0.000227  4.017264  0.0  -0.098432  -0.110534  8e-06  3.989526  0.0
C  C53  1  0.74376816  0.58279957  0.90308389  1  -0.081717  0.001068  3.741509  0.001  -0.10922  0.00014  4.000359  0.0  -0.10681  0.00023  4.017178  0.0  -0.098345  -0.110436  -8e-06  3.989418  0.0
C  C54  1  0.23877206  0.26610898  0.14685350  1  -0.152366  0.008078  3.71983  0.008  -0.132746  0.004853  3.977562  0.005  -0.139834  0.003477  3.994981  0.004  -0.027883  -0.128544  0.005723  3.966808  0.006
C  C55  1  0.76122680  0.73388940  0.85314628  1  -0.152361  -0.008022  3.719746  -0.008  -0.132715  -0.004845  3.977471  -0.005  -0.139796  -0.003483  3.99488  -0.004  -0.0279  -0.128507  -0.005723  3.966696  -0.006
C  C56  1  0.12532046  0.18215189  0.29134677  1  0.656093  -0.002654  3.950689  -0.006  0.620947  0.000804  4.239991  -0.002  0.660131  0.000317  4.229908  -0.001  0.200163  0.594844  0.001311  4.245784  -0.002
C  C57  1  0.87467841  0.81784648  0.70865402  1  0.656122  0.00263  3.95059  0.006  0.620931  -0.000805  4.239942  0.002  0.660118  -0.000314  4.229857  0.001  0.200146  0.594836  -0.001311  4.24571  0.002
S  S58  1  0.36645836  0.17469446  0.01396565  1  0.164547  0.001536  2.659683  0.002  0.163303  0.001282  2.987631  0.002  0.164522  0.000718  2.993824  0.001  0.106883  0.161896  0.002425  2.983677  0.002
S  S59  1  0.63354637  0.82530609  0.98603343  1  0.164508  -0.001539  2.659742  -0.002  0.163264  -0.001279  2.987692  -0.002  0.164482  -0.00072  2.993884  -0.001  0.10688  0.161856  -0.002425  2.98374  -0.002
N  N60  1  0.72948755  0.15809001  0.43679177  1  -0.297229  0.086985  3.33674  0.105  -0.245215  0.057289  3.623711  0.075  -0.275813  0.047998  3.646428  0.066  -0.348759  -0.226837  0.062116  3.610296  0.078
N  N61  1  0.27051120  0.84191059  0.56320244  1  -0.297286  -0.086909  3.336649  -0.105  -0.245306  -0.057281  3.623662  -0.075  -0.275907  -0.048  3.646367  -0.066  -0.34882  -0.226923  -0.062112  3.610242  -0.078
N  N62  1  0.94398960  0.25651889  0.68539625  1  -0.301365  0.078312  3.31671  0.094  -0.24746  0.052818  3.599073  0.069  -0.277458  0.044417  3.621459  0.061  -0.343726  -0.229556  0.057691  3.585583  0.072
N  N63  1  0.05601267  0.74348498  0.31459990  1  -0.301358  -0.078266  3.316779  -0.094  -0.247509  -0.05282  3.599216  -0.069  -0.277512  -0.044418  3.621592  -0.061  -0.343777  -0.229599  -0.057691  3.585712  -0.072
O  O64  1  0.63173121  0.20508527  0.72859264  1  -0.606885  0.104768  2.079  0.133  -0.587236  0.064018  2.371568  0.091  -0.629909  0.048938  2.36542  0.073  -0.334255  -0.559568  0.071738  2.376067  0.097
O  O65  1  0.36827337  0.79491861  0.27139859  1  -0.606908  -0.10473  2.079083  -0.133  -0.587285  -0.064013  2.371701  -0.091  -0.629954  -0.048943  2.365541  -0.073  -0.334233  -0.559614  -0.071737  2.376193  -0.097
O  O66  1  0.62455322  0.45410679  0.64697470  1  -0.60237  -0.001217  1.889519  -0.001  -0.56733  -0.001257  2.118988  -0.001  -0.591093  -0.00169  2.110214  -0.002  -0.322369  -0.550534  9.3e-05  2.12549  0.001
O  O67  1  0.37545382  0.54589596  0.35302298  1  -0.602458  0.001206  1.889571  0.0  -0.567393  0.001245  2.119019  0.001  -0.591169  0.001689  2.11025  0.002  -0.322385  -0.550596  -9.4e-05  2.125515  -0.001
O  O68  1  0.12874561  0.04409317  0.31711705  1  -0.631683  0.001305  2.030116  0.001  -0.606299  0.000832  2.300984  0.001  -0.632885  0.000288  2.286378  0.0  -0.325695  -0.589154  0.001354  2.311025  0.002
O  O69  1  0.87125796  0.95590629  0.68288172  1  -0.631709  -0.001286  2.030001  -0.001  -0.606322  -0.000827  2.300921  -0.001  -0.632912  -0.000291  2.286322  0.0  -0.325691  -0.589189  -0.001355  2.310945  -0.002
O  O70  1  0.03027059  0.26368209  0.37753687  1  -0.612245  0.090766  2.102258  0.116  -0.587534  0.057665  2.391979  0.082  -0.628938  0.044383  2.382086  0.067  -0.330409  -0.559608  0.06648  2.398765  0.091
O  O71  1  0.96972596  0.73631300  0.62246255  1  -0.612257  -0.09078  2.102171  -0.116  -0.58754  -0.057677  2.391926  -0.082  -0.62895  -0.044393  2.382031  -0.067  -0.330392  -0.559597  -0.066492  2.398662  -0.091
