# generated using pymatgen
data_CuH4(C3N)3
_symmetry_space_group_name_H-M   'P 1'
_cell_length_a   33.70826672
_cell_length_b   34.13942122
_cell_length_c   34.08924994
_cell_angle_alpha   89.98894864
_cell_angle_beta   89.99765651
_cell_angle_gamma   89.95118324
_symmetry_Int_Tables_number   1
_chemical_formula_structural   CuH4(C3N)3
_chemical_formula_sum   'Cu12 H48 C108 N36'
_cell_volume   39229.23646632
_cell_formula_units_Z   12
loop_
 _symmetry_equiv_pos_site_id
 _symmetry_equiv_pos_as_xyz
  1  'x, y, z'
loop_
 _atom_site_type_symbol
 _atom_site_label
 _atom_site_symmetry_multiplicity
 _atom_site_fract_x
 _atom_site_fract_y
 _atom_site_fract_z
 _atom_site_occupancy
 _atom_site_pbe_bader_charge
 _atom_site_pbe_bader_spin_density
 _atom_site_pbe_cm5_charge
 _atom_site_pbe_ddec_charge
 _atom_site_pbe_ddec_spin_density
 _atom_site_pbe_ddec_sum_bond_order
 _atom_site_pbe_magmom
Cu  Cu0  1  0.37503838  0.58891731  0.66123854  1  0.544847  0  0.490315  0.210057  0  2.107226  0
Cu  Cu1  1  0.33655574  0.62643330  0.58522829  1  0.548828  0  0.487505  0.210331  0  2.090154  0
Cu  Cu2  1  0.41367603  0.66511601  0.62386932  1  0.548346  0  0.491534  0.20935  0  2.110723  0
Cu  Cu3  1  0.62472303  0.91173275  0.16103319  1  0.545472  0  0.493052  0.209631  0  2.121443  0
Cu  Cu4  1  0.66314405  0.87416928  0.08489656  1  0.5468  0  0.491266  0.209931  0  2.109296  0
Cu  Cu5  1  0.58597048  0.83593490  0.12345103  1  0.546534  0  0.489425  0.209906  0  2.100134  0
Cu  Cu6  1  0.87553722  0.41177978  0.83916136  1  0.543981  0  0.488572  0.210328  0  2.100666  0
Cu  Cu7  1  0.83609541  0.37349479  0.91447914  1  0.548214  0  0.488159  0.210755  0  2.093965  0
Cu  Cu8  1  0.91344302  0.33489919  0.87597261  1  0.54487  0  0.48973  0.210373  0  2.099782  0
Cu  Cu9  1  0.12416696  0.08753564  0.33946627  1  0.545448  0  0.491172  0.210193  0  2.112915  0
Cu  Cu10  1  0.16361608  0.12590147  0.41485734  1  0.548389  0  0.49181  0.210329  0  2.110907  0
Cu  Cu11  1  0.08620858  0.16406339  0.37632875  1  0.547661  0  0.486948  0.20988  0  2.089297  0
H  H12  1  0.31731035  0.51675564  0.67531786  1  0.112489  0  0.126061  0.120096  0  0.980434  0
H  H13  1  0.26398048  0.56761736  0.57141885  1  0.092846  0  0.126066  0.119662  0  0.980521  0
H  H14  1  0.48602890  0.67873945  0.68257609  1  0.086919  0  0.126574  0.120284  0  0.980318  0
H  H15  1  0.43287332  0.57487621  0.73333795  1  0.109369  0  0.126118  0.119761  0  0.980928  0
H  H16  1  0.32300753  0.68455124  0.51354142  1  0.096104  0  0.126253  0.120349  0  0.98125  0
H  H17  1  0.42733469  0.73677909  0.56616662  1  0.089351  0  0.126235  0.120171  0  0.979532  0
H  H18  1  0.68263040  0.98347846  0.17515420  1  0.105575  0  0.126504  0.120227  0  0.980582  0
H  H19  1  0.73577069  0.93250311  0.07121007  1  0.108234  0  0.126242  0.120267  0  0.980708  0
H  H20  1  0.51340192  0.82253434  0.18229346  1  0.109892  0  0.125957  0.119773  0  0.980311  0
H  H21  1  0.56709645  0.92603537  0.23318470  1  0.125597  0  0.126106  0.119731  0  0.98003  0
H  H22  1  0.67681548  0.81638974  0.01320008  1  0.10033  0  0.126049  0.120101  0  0.980624  0
H  H23  1  0.57218986  0.76432400  0.06546931  1  0.112675  0  0.126051  0.120162  0  0.980792  0
H  H24  1  0.81783521  0.48418245  0.82536455  1  0.098952  0  0.125884  0.119912  0  0.980704  0
H  H25  1  0.76307427  0.43185512  0.92773866  1  0.111518  0  0.126287  0.120575  0  0.980312  0
H  H26  1  0.98570098  0.32089622  0.81699115  1  0.105787  0  0.126231  0.120302  0  0.979812  0
H  H27  1  0.93394506  0.42608518  0.76742681  1  0.147898  0  0.125829  0.119757  0  0.980938  0
H  H28  1  0.82223400  0.31526382  0.98594078  1  0.105694  0  0.126059  0.120285  0  0.980779  0
H  H29  1  0.92680616  0.26301462  0.93363130  1  0.10418  0  0.126144  0.120038  0  0.98011  0
H  H30  1  0.18198851  0.01548332  0.32567053  1  0.094005  0  0.126383  0.120582  0  0.980136  0
H  H31  1  0.23668264  0.06795646  0.42800464  1  0.102657  0  0.126242  0.120353  0  0.9803  0
H  H32  1  0.01377192  0.17783291  0.31719307  1  0.149227  0  0.125894  0.120085  0  0.981006  0
H  H33  1  0.06598605  0.07285332  0.26766986  1  0.080935  0  0.125958  0.119581  0  0.979798  0
H  H34  1  0.17761656  0.18395282  0.48620983  1  0.084578  0  0.126317  0.120409  0  0.97973  0
H  H35  1  0.07281229  0.23602671  0.43415133  1  0.102443  0  0.125726  0.119642  0  0.981379  0
H  H36  1  0.78633120  0.08618479  0.07345060  1  0.070583  0  0.119561  0.119561  0  1.006479  0
H  H37  1  0.83724202  0.03558514  0.17536758  1  0.095418  0  0.119598  0.119956  0  1.004766  0
H  H38  1  0.91199592  0.07353782  0.21361939  1  0.089211  0  0.119103  0.119139  0  1.004997  0
H  H39  1  0.96333655  0.17525657  0.16333793  1  0.104333  0  0.119498  0.119359  0  1.007463  0
H  H40  1  0.92565061  0.21259831  0.08802973  1  0.103864  0  0.119524  0.120172  0  1.007143  0
H  H41  1  0.82388774  0.16085766  0.03637331  1  0.109266  0  0.119394  0.119212  0  1.007148  0
H  H42  1  0.21374711  0.41333810  0.57366144  1  0.065011  0  0.119418  0.119285  0  1.006303  0
H  H43  1  0.16262808  0.46380118  0.67555617  1  0.100745  0  0.11969  0.120143  0  1.006818  0
H  H44  1  0.08776460  0.42550273  0.71385694  1  0.100234  0  0.119677  0.119823  0  1.006947  0
H  H45  1  0.03701681  0.32361928  0.66337836  1  0.087955  0  0.119286  0.119622  0  1.005093  0
H  H46  1  0.07469592  0.28653383  0.58845639  1  0.093234  0  0.119151  0.119377  0  1.004978  0
H  H47  1  0.17629907  0.33832590  0.53655008  1  0.100293  0  0.119238  0.118988  0  1.007548  0
H  H48  1  0.28686676  0.91368271  0.42654828  1  0.081372  0  0.119441  0.119036  0  1.005179  0
H  H49  1  0.33767796  0.96426121  0.32458917  1  0.097031  0  0.11971  0.119797  0  1.005354  0
H  H50  1  0.41243847  0.92631932  0.28631576  1  0.089921  0  0.119465  0.119324  0  1.005298  0
H  H51  1  0.46392728  0.82458531  0.33657209  1  0.09296  0  0.119477  0.119063  0  1.005735  0
H  H52  1  0.42638514  0.78725149  0.41178819  1  0.083298  0  0.119236  0.119261  0  1.005765  0
H  H53  1  0.32456725  0.83894774  0.46356516  1  0.089068  0  0.119146  0.119111  0  1.005001  0
H  H54  1  0.71329359  0.58672209  0.92625283  1  0.080312  0  0.119356  0.119274  0  1.005677  0
H  H55  1  0.66208658  0.53627546  0.82441503  1  0.101534  0  0.119529  0.119677  0  1.006923  0
H  H56  1  0.58730898  0.57456107  0.78613751  1  0.103161  0  0.11979  0.120104  0  1.006297  0
H  H57  1  0.53652913  0.67658167  0.83645624  1  0.07284  0  0.119446  0.11939  0  1.005956  0
H  H58  1  0.57404244  0.71368761  0.91116196  1  0.111378  0  0.119536  0.119205  0  1.006683  0
H  H59  1  0.67566780  0.66203865  0.96331206  1  0.086212  0  0.119406  0.119416  0  1.005761  0
C  C60  1  0.30933253  0.53420683  0.64991769  1  0.417349  0  0.016014  -0.047219  0  3.92595  0
C  C61  1  0.27765018  0.52906519  0.62345225  1  0.132157  0  -0.030242  0.061142  0  4.199512  0
C  C62  1  0.28201417  0.56030843  0.59674677  1  0.412413  0  0.016344  -0.045943  0  3.921182  0
C  C63  1  0.46802524  0.65343302  0.68984219  1  0.428066  0  0.016201  -0.047667  0  3.923135  0
C  C64  1  0.47240175  0.62670335  0.72103592  1  0.125079  0  -0.029796  0.062057  0  4.205228  0
C  C65  1  0.44076923  0.60026630  0.71588684  1  0.423354  0  0.016112  -0.046545  0  3.925446  0
C  C66  1  0.34845511  0.69220172  0.53142782  1  0.412916  0  0.015937  -0.048414  0  3.927327  0
C  C67  1  0.37515685  0.72360727  0.52695143  1  0.151096  0  -0.029768  0.063668  0  4.203841  0
C  C68  1  0.40186308  0.71899409  0.55839160  1  0.450457  0  0.016046  -0.047389  0  3.923828  0
C  C69  1  0.69051735  0.96601711  0.14973768  1  0.430498  0  0.015828  -0.047386  0  3.927069  0
C  C70  1  0.72218758  0.97100152  0.12325857  1  0.169751  0  -0.03012  0.061528  0  4.208161  0
C  C71  1  0.71775381  0.93985413  0.09652482  1  0.429863  0  0.016728  -0.046376  0  3.923523  0
C  C72  1  0.53154538  0.84773313  0.18956638  1  0.415378  0  0.016815  -0.045673  0  3.924027  0
C  C73  1  0.52732598  0.87441830  0.22081507  1  0.126632  0  -0.030263  0.061075  0  4.20813  0
C  C74  1  0.55906483  0.90071465  0.21569827  1  0.399959  0  0.016525  -0.045453  0  3.926117  0
C  C75  1  0.65127005  0.80874926  0.03097002  1  0.434669  0  0.015966  -0.047469  0  3.9258  0
C  C76  1  0.62448772  0.77743882  0.02637514  1  0.107307  0  -0.02994  0.062482  0  4.205815  0
C  C77  1  0.59771484  0.78206023  0.05776882  1  0.439181  0  0.016487  -0.047005  0  3.924711  0
C  C78  1  0.80954967  0.46637662  0.85041065  1  0.439234  0  0.01616  -0.046606  0  3.923897  0
C  C79  1  0.77740657  0.47108509  0.87643362  1  0.138935  0  -0.029857  0.06163  0  4.199481  0
C  C80  1  0.78149656  0.43952928  0.90280518  1  0.398454  0  0.015903  -0.047616  0  3.923655  0
C  C81  1  0.96804310  0.34654983  0.81000959  1  0.395586  0  0.016225  -0.047136  0  3.921821  0
C  C82  1  0.97280630  0.37355805  0.77909486  1  0.135371  0  -0.029899  0.061952  0  4.201542  0
C  C83  1  0.94151057  0.40038830  0.78458613  1  0.40028  0  0.016327  -0.046883  0  3.924469  0
C  C84  1  0.84776230  0.30759149  0.96815339  1  0.445706  0  0.016312  -0.046954  0  3.924243  0
C  C85  1  0.87447918  0.27615655  0.97270576  1  0.091869  0  -0.030484  0.061309  0  4.201802  0
C  C86  1  0.90128497  0.28080800  0.94133751  1  0.44895  0  0.016144  -0.046814  0  3.92449  0
C  C87  1  0.19022252  0.03332156  0.35070265  1  0.443616  0  0.016028  -0.047833  0  3.927588  0
C  C88  1  0.22237407  0.02876738  0.37669313  1  0.13831  0  -0.030228  0.062089  0  4.208975  0
C  C89  1  0.21825709  0.06024726  0.40309395  1  0.402408  0  0.016625  -0.047065  0  3.924463  0
C  C90  1  0.03153191  0.15224596  0.31025124  1  0.373616  0  0.016149  -0.048182  0  3.924973  0
C  C91  1  0.02689682  0.12523538  0.27931870  1  0.130395  0  -0.030228  0.061626  0  4.202195  0
C  C92  1  0.05828558  0.09851392  0.28482889  1  0.455362  0  0.016235  -0.0453  0  3.924958  0
C  C93  1  0.15201007  0.19159551  0.46850473  1  0.424493  0  0.015902  -0.047268  0  3.92327  0
C  C94  1  0.12525055  0.22297606  0.47310361  1  0.170157  0  -0.029817  0.062197  0  4.203006  0
C  C95  1  0.09836624  0.21827565  0.44180452  1  0.413424  0  0.016693  -0.046522  0  3.923243  0
C  C96  1  0.84005948  0.10656676  0.10734774  1  0.102727  0  -0.027869  -0.01091  0  4.101126  0
C  C97  1  0.85741428  0.14117845  0.09022716  1  0.025479  0  -0.027752  -0.01082  0  4.101384  0
C  C98  1  0.89227186  0.15880274  0.10791442  1  -0.036326  0  -0.026977  -0.007624  0  4.093954  0
C  C99  1  0.90956837  0.14164515  0.14266227  1  0.023402  0  -0.027102  -0.009758  0  4.097203  0
C  C100  1  0.89206833  0.10680966  0.15987548  1  0.087477  0  -0.028227  -0.011891  0  4.101836  0
C  C101  1  0.85744703  0.08930636  0.14225351  1  6.6e-05  0  -0.027155  -0.007016  0  4.096031  0
C  C102  1  0.80768309  0.08407698  0.09709713  1  0.278371  0  -0.011401  -0.139855  0  3.886152  0
C  C103  1  0.83505265  0.05688926  0.15191956  1  0.300945  0  -0.011582  -0.141551  0  3.885887  0
C  C104  1  0.91436245  0.09702023  0.19239161  1  0.280444  0  -0.011234  -0.139642  0  3.883734  0
C  C105  1  0.94193063  0.15170455  0.16534101  1  0.27254  0  -0.011838  -0.140443  0  3.884726  0
C  C106  1  0.90216813  0.19111329  0.08560856  1  0.332505  0  -0.012265  -0.143727  0  3.886114  0
C  C107  1  0.84744513  0.16333931  0.05783402  1  0.292503  0  -0.011751  -0.140534  0  3.885137  0
C  C108  1  0.16007542  0.39283201  0.60752623  1  0.054613  0  -0.027374  -0.010226  0  4.098245  0
C  C109  1  0.14282121  0.35811981  0.59042438  1  0.061119  0  -0.027671  -0.009919  0  4.096724  0
C  C110  1  0.10801588  0.34042059  0.60814660  1  0.032765  0  -0.027604  -0.009771  0  4.097853  0
C  C111  1  0.09064812  0.35752262  0.64284554  1  0.048176  0  -0.027507  -0.009826  0  4.098719  0
C  C112  1  0.10799224  0.39242288  0.66006653  1  0.00179  0  -0.027188  -0.009285  0  4.096632  0
C  C113  1  0.14260265  0.41005882  0.64243481  1  0.018571  0  -0.026811  -0.007268  0  4.093715  0
C  C114  1  0.19239383  0.41544139  0.59729993  1  0.292546  0  -0.012001  -0.14057  0  3.884817  0
C  C115  1  0.16493508  0.44254377  0.65208829  1  0.314846  0  -0.012805  -0.143538  0  3.887324  0
C  C116  1  0.08558054  0.40205506  0.69257145  1  0.306447  0  -0.012348  -0.141831  0  3.886  0
C  C117  1  0.05830233  0.34727385  0.66545094  1  0.291878  0  -0.011905  -0.141681  0  3.883664  0
C  C118  1  0.09815342  0.30804809  0.58595663  1  0.279209  0  -0.011395  -0.140385  0  3.883697  0
C  C119  1  0.15279935  0.33587630  0.55807424  1  0.257049  0  -0.01092  -0.139583  0  3.884714  0
C  C120  1  0.34060236  0.89331140  0.39262785  1  0.069098  0  -0.027419  -0.01072  0  4.103131  0
C  C121  1  0.35801801  0.85869757  0.40971423  1  0.060033  0  -0.027326  -0.009206  0  4.099632  0
C  C122  1  0.39289172  0.84107896  0.39201358  1  0.075242  0  -0.02776  -0.010138  0  4.09802  0
C  C123  1  0.41013331  0.85823674  0.35729382  1  0.012537  0  -0.027665  -0.010467  0  4.100056  0
C  C124  1  0.39256715  0.89307290  0.34009611  1  0.10665  0  -0.027218  -0.009872  0  4.102668  0
C  C125  1  0.35793540  0.91056468  0.35772364  1  -0.013282  0  -0.027305  -0.008561  0  4.102483  0
C  C126  1  0.30820263  0.91579566  0.40289279  1  0.282212  0  -0.011538  -0.13981  0  3.883963  0
C  C127  1  0.33550338  0.94297629  0.34805080  1  0.304856  0  -0.011624  -0.141984  0  3.886491  0
C  C128  1  0.41481317  0.90285054  0.30757305  1  0.229537  0  -0.011389  -0.140429  0  3.884334  0
C  C129  1  0.44248460  0.84814860  0.33461421  1  0.293777  0  -0.011088  -0.139525  0  3.884004  0
C  C130  1  0.40286930  0.80874324  0.41424869  1  0.228656  0  -0.010999  -0.140014  0  3.884279  0
C  C131  1  0.34810070  0.83649596  0.44207487  1  0.278384  0  -0.010957  -0.139816  0  3.885656  0
C  C132  1  0.65959832  0.60731272  0.89239731  1  0.014302  0  -0.027642  -0.009921  0  4.09606  0
C  C133  1  0.64231441  0.64207716  0.90943321  1  -0.005936  0  -0.027246  -0.009442  0  4.094538  0
C  C134  1  0.60749769  0.65976192  0.89166874  1  0.063459  0  -0.027432  -0.010292  0  4.100492  0
C  C135  1  0.59016651  0.64262513  0.85702753  1  0.07791  0  -0.027412  -0.010219  0  4.102713  0
C  C136  1  0.60752958  0.60769285  0.83986969  1  -0.00108  0  -0.026921  -0.007691  0  4.0983  0
C  C137  1  0.64213009  0.59006315  0.85751957  1  0.064906  0  -0.0273  -0.009493  0  4.099601  0
C  C138  1  0.69193030  0.58464764  0.90262298  1  0.299021  0  -0.012078  -0.140869  0  3.883043  0
C  C139  1  0.66443335  0.55753214  0.84787832  1  0.242549  0  -0.012093  -0.141066  0  3.886063  0
C  C140  1  0.58513684  0.59803379  0.80739262  1  0.31217  0  -0.012421  -0.143029  0  3.887929  0
C  C141  1  0.55783434  0.65290206  0.83443300  1  0.287195  0  -0.011811  -0.140563  0  3.885825  0
C  C142  1  0.59754309  0.69218330  0.91373940  1  0.242893  0  -0.011338  -0.139467  0  3.885238  0
C  C143  1  0.65221474  0.66441531  0.94173957  1  0.351824  0  -0.011875  -0.141303  0  3.883497  0
C  C144  1  0.75148227  0.00031540  0.12356219  1  0.211348  0  -0.067247  -0.17697  0  4.235448  0
C  C145  1  0.77676724  0.02571059  0.12397396  1  0.0121  0  0.055862  -0.015088  0  4.224874  0
C  C146  1  0.24841972  0.49955352  0.62373963  1  0.120642  0  -0.066817  -0.175894  0  4.223702  0
C  C147  1  0.22322764  0.47401334  0.62414816  1  0.130072  0  0.055911  -0.016092  0  4.214222  0
C  C148  1  0.25177389  0.99949662  0.37634785  1  0.268752  0  -0.067824  -0.177654  0  4.234686  0
C  C149  1  0.27714883  0.97414137  0.37598936  1  -0.022561  0  0.056588  -0.015867  0  4.223906  0
C  C150  1  0.74805384  0.50052669  0.87612992  1  0.264868  0  -0.067415  -0.176494  0  4.224954  0
C  C151  1  0.72277608  0.52602899  0.87576682  1  -0.012447  0  0.055943  -0.015994  0  4.216324  0
C  C152  1  0.99774074  0.12497612  0.24968984  1  0.25716  0  -0.067205  -0.177209  0  4.226873  0
C  C153  1  0.97263100  0.12469330  0.22401941  1  -0.003291  0  0.056252  -0.014819  0  4.218072  0
C  C154  1  0.50163779  0.62639640  0.75050385  1  0.293817  0  -0.067249  -0.17646  0  4.231765  0
C  C155  1  0.52690463  0.62601459  0.77598621  1  -0.043745  0  0.056342  -0.015804  0  4.222152  0
C  C156  1  0.00206010  0.37377720  0.74956876  1  0.25966  0  -0.066662  -0.175706  0  4.226602  0
C  C157  1  0.02729788  0.37412220  0.72402165  1  -0.006781  0  0.055766  -0.016565  0  4.217146  0
C  C158  1  0.49818754  0.87476625  0.25037200  1  0.281391  0  -0.067397  -0.177667  0  4.232845  0
C  C159  1  0.47306533  0.87513802  0.27599474  1  -0.027812  0  0.056053  -0.015406  0  4.220764  0
C  C160  1  0.87453077  0.24693684  0.00189594  1  0.174138  0  -0.067179  -0.176225  0  4.228603  0
C  C161  1  0.87469534  0.22171023  0.02713846  1  0.083121  0  0.055501  -0.017338  0  4.21923  0
C  C162  1  0.37522991  0.75282483  0.49780999  1  0.186961  0  -0.068222  -0.178306  0  4.233075  0
C  C163  1  0.37541680  0.77809217  0.47262934  1  0.070395  0  0.056028  -0.015824  0  4.223881  0
C  C164  1  0.62458391  0.74822987  0.99723062  1  0.277919  0  -0.067739  -0.177408  0  4.232269  0
C  C165  1  0.62477241  0.72292632  0.97209482  1  -0.025876  0  0.056004  -0.016265  0  4.222692  0
C  C166  1  0.12536043  0.25220591  0.50226066  1  0.196622  0  -0.067592  -0.17706  0  4.229161  0
C  C167  1  0.12548223  0.27744356  0.52747945  1  0.05955  0  0.056026  -0.015756  0  4.218993  0
N  N168  1  0.31375430  0.58207293  0.60662477  1  -0.772982  0  -0.334442  -0.140539  0  3.763408  0
N  N169  1  0.33060394  0.56592909  0.63968738  1  -0.780439  0  -0.335485  -0.139553  0  3.77212  0
N  N170  1  0.41946489  0.61053938  0.68414318  1  -0.771321  0  -0.33616  -0.140478  0  3.775169  0
N  N171  1  0.43628474  0.64357166  0.66807504  1  -0.780011  0  -0.336644  -0.138518  0  3.775281  0
N  N172  1  0.39175169  0.68735313  0.57966839  1  -0.771653  0  -0.336556  -0.139972  0  3.775034  0
N  N173  1  0.35854293  0.67077754  0.56303181  1  -0.769569  0  -0.333358  -0.138271  0  3.765606  0
N  N174  1  0.68593764  0.91824390  0.10641778  1  -0.768412  0  -0.336543  -0.140364  0  3.774595  0
N  N175  1  0.66915475  0.93439688  0.13946611  1  -0.789655  0  -0.337459  -0.13893  0  3.780649  0
N  N176  1  0.58027891  0.89039174  0.18392915  1  -0.78066  0  -0.33829  -0.141459  0  3.781806  0
N  N177  1  0.56331689  0.85747543  0.16777262  1  -0.773434  0  -0.334586  -0.139385  0  3.769097  0
N  N178  1  0.60785430  0.81361608  0.07915216  1  -0.770082  0  -0.335263  -0.139556  0  3.770262  0
N  N179  1  0.64114737  0.83009058  0.06259126  1  -0.778969  0  -0.335576  -0.139311  0  3.774061  0
N  N180  1  0.81350303  0.41799319  0.89315753  1  -0.77071  0  -0.33395  -0.139453  0  3.765906  0
N  N181  1  0.83082848  0.43459417  0.86057001  1  -0.781978  0  -0.335303  -0.140583  0  3.769104  0
N  N182  1  0.92005339  0.39009046  0.81622488  1  -0.771649  0  -0.335172  -0.14033  0  3.770364  0
N  N183  1  0.93642790  0.35661397  0.83192062  1  -0.775781  0  -0.335446  -0.139793  0  3.769277  0
N  N184  1  0.89123926  0.31248495  0.92004530  1  -0.770639  0  -0.334751  -0.139343  0  3.77079  0
N  N185  1  0.85794778  0.32904500  0.93660774  1  -0.765167  0  -0.334436  -0.140142  0  3.767412  0
N  N186  1  0.18617020  0.08163347  0.39346920  1  -0.767569  0  -0.336448  -0.139534  0  3.775455  0
N  N187  1  0.16886945  0.06501136  0.36092241  1  -0.782515  0  -0.336432  -0.139355  0  3.776143  0
N  N188  1  0.07965161  0.10890200  0.31648306  1  -0.783877  0  -0.336589  -0.142098  0  3.778398  0
N  N189  1  0.06316212  0.14230410  0.33220536  1  -0.767274  0  -0.333069  -0.137446  0  3.763544  0
N  N190  1  0.10840883  0.18662026  0.42047008  1  -0.790887  0  -0.333663  -0.139171  0  3.76224  0
N  N191  1  0.14176889  0.17016159  0.43698967  1  -0.769839  0  -0.336668  -0.140652  0  3.774736  0
N  N192  1  0.80467479  0.05373685  0.12432681  1  -1.305707  0  -0.223052  0.114497  0  3.984442  0
N  N193  1  0.94484069  0.12444816  0.19573198  1  -1.265883  0  -0.222824  0.115171  0  3.971688  0
N  N194  1  0.87479152  0.19386205  0.05501396  1  -1.317933  0  -0.222218  0.118594  0  3.971986  0
N  N195  1  0.19536769  0.44583712  0.62451173  1  -1.257359  0  -0.222252  0.116459  0  3.973211  0
N  N196  1  0.05521584  0.37447459  0.69585410  1  -1.2661  0  -0.222533  0.11665  0  3.972508  0
N  N197  1  0.12550633  0.30528468  0.55535360  1  -1.271305  0  -0.223207  0.115083  0  3.974554  0
N  N198  1  0.30513112  0.94613414  0.37565866  1  -1.256673  0  -0.223689  0.116907  0  3.97992  0
N  N199  1  0.44530250  0.87540370  0.30424648  1  -1.23542  0  -0.223738  0.11586  0  3.975566  0
N  N200  1  0.37549645  0.80597405  0.44482378  1  -1.278155  0  -0.223349  0.1154  0  3.979887  0
N  N201  1  0.69487844  0.55421373  0.87543400  1  -1.265294  0  -0.222149  0.115796  0  3.970831  0
N  N202  1  0.55479916  0.62565661  0.80410634  1  -1.262592  0  -0.223289  0.116102  0  3.981103  0
N  N203  1  0.62486547  0.69500992  0.94433136  1  -1.27273  0  -0.222996  0.116628  0  3.976467  0
