# generated using pymatgen
data_CdAs2H18C16(NO5)2
_symmetry_space_group_name_H-M   'P 1'
_cell_length_a   4.73963230
_cell_length_b   9.73377063
_cell_length_c   22.63233552
_cell_angle_alpha   90.00015802
_cell_angle_beta   92.11483173
_cell_angle_gamma   89.99998181
_symmetry_Int_Tables_number   1
_chemical_formula_structural   CdAs2H18C16(NO5)2
_chemical_formula_sum   'Cd2 As4 H36 C32 N4 O20'
_cell_volume   1043.42015559
_cell_formula_units_Z   2
loop_
 _symmetry_equiv_pos_site_id
 _symmetry_equiv_pos_as_xyz
  1  'x, y, z'
loop_
 _atom_site_type_symbol
 _atom_site_label
 _atom_site_symmetry_multiplicity
 _atom_site_fract_x
 _atom_site_fract_y
 _atom_site_fract_z
 _atom_site_occupancy
 _atom_site_hle17_bader_spin_density
 _atom_site_hle17_ddec_charge
 _atom_site_hle17_ddec_spin_density
 _atom_site_hle17_ddec_sum_bond_order
 _atom_site_hle17_magmom
 _atom_site_hse06_10hf_bader_spin_density
 _atom_site_hse06_10hf_ddec_charge
 _atom_site_hse06_10hf_ddec_spin_density
 _atom_site_hse06_10hf_ddec_sum_bond_order
 _atom_site_hse06_10hf_magmom
 _atom_site_hse06_bader_spin_density
 _atom_site_hse06_ddec_charge
 _atom_site_hse06_ddec_spin_density
 _atom_site_hse06_ddec_sum_bond_order
 _atom_site_hse06_magmom
 _atom_site_pbe_bader_spin_density
 _atom_site_pbe_cm5_charge
 _atom_site_pbe_ddec_charge
 _atom_site_pbe_ddec_spin_density
 _atom_site_pbe_ddec_sum_bond_order
 _atom_site_pbe_magmom
Cd  Cd0  1  0.99999773  0.99999941  0.49999987  1  0  1.294432  0  1.662578  0  0  1.122362  0  2.129033  0  0  1.177269  0  2.066182  0  0  0.772934  1.082935  0  2.172318  0
Cd  Cd1  1  0.99999796  0.50000246  0.00000047  1  0  1.294423  0  1.662541  0  0  1.122334  0  2.128991  0  0  1.177238  0  2.066147  0  0  0.772933  1.082908  0  2.172273  0
As  As2  1  0.45965144  0.14267054  0.40341947  1  0  1.548527  0  3.925727  0  0  1.483351  0  4.377717  0  0  1.530732  0  4.35007  0  0  0.602925  1.450006  0  4.396712  0
As  As3  1  0.54034215  0.64267311  0.09658245  1  0  1.54847  0  3.92567  0  0  1.483307  0  4.377655  0  0  1.530686  0  4.350012  0  0  0.602932  1.449963  0  4.396651  0
As  As4  1  0.54034619  0.85732842  0.59658083  1  0  1.548497  0  3.925776  0  0  1.483323  0  4.377763  0  0  1.530702  0  4.350117  0  0  0.602917  1.449978  0  4.39676  0
As  As5  1  0.45965128  0.35732893  0.90341915  1  0  1.548484  0  3.925738  0  0  1.483308  0  4.377731  0  0  1.530688  0  4.350086  0  0  0.6029  1.449963  0  4.396727  0
H  H6  1  0.19155872  0.94741947  0.12793942  1  0  0.282917  0  0.945237  0  0  0.270604  0  1.002475  0  0  0.277109  0  0.997834  0  0  0.299216  0.265952  0  1.005855  0
H  H7  1  0.80843895  0.44741767  0.37206201  1  0  0.282831  0  0.945253  0  0  0.270537  0  1.002487  0  0  0.277043  0  0.997846  0  0  0.299223  0.265884  0  1.005866  0
H  H8  1  0.80843892  0.05257846  0.87206133  1  0  0.282824  0  0.945204  0  0  0.270507  0  1.00248  0  0  0.277012  0  0.99784  0  0  0.299229  0.265855  0  1.005858  0
H  H9  1  0.19156291  0.55258334  0.62793876  1  0  0.282821  0  0.945285  0  0  0.270491  0  1.002543  0  0  0.276996  0  0.997902  0  0  0.29923  0.26584  0  1.00592  0
H  H10  1  0.89619541  0.24416258  0.42156678  1  0  0.418305  0  0.899654  0  0  0.382086  0  0.974246  0  0  0.394671  0  0.956241  0  0  0.279887  0.373269  0  0.986818  0
H  H11  1  0.10380023  0.74416613  0.07843484  1  0  0.418416  0  0.8995  0  0  0.382141  0  0.974176  0  0  0.394725  0  0.956171  0  0  0.279898  0.373323  0  0.986748  0
H  H12  1  0.10380223  0.75583741  0.57843441  1  0  0.418413  0  0.899499  0  0  0.38215  0  0.974153  0  0  0.394733  0  0.95615  0  0  0.27991  0.373332  0  0.986725  0
H  H13  1  0.89619319  0.25583592  0.92156632  1  0  0.418313  0  0.899644  0  0  0.382087  0  0.974248  0  0  0.394671  0  0.956244  0  0  0.279887  0.37327  0  0.98682  0
H  H14  1  0.33270317  0.36405548  0.09002167  1  0  0.423013  0  0.879921  0  0  0.388621  0  0.959096  0  0  0.401452  0  0.941015  0  0  0.298782  0.379613  0  0.971719  0
H  H15  1  0.66730084  0.86405697  0.40997750  1  0  0.423038  0  0.879798  0  0  0.388573  0  0.959145  0  0  0.401426  0  0.941033  0  0  0.298787  0.379566  0  0.971766  0
H  H16  1  0.66730710  0.63593937  0.90997652  1  0  0.423077  0  0.879811  0  0  0.388641  0  0.959055  0  0  0.401495  0  0.940943  0  0  0.29882  0.379634  0  0.971677  0
H  H17  1  0.33270522  0.13594405  0.59002154  1  0  0.423059  0  0.879866  0  0  0.388621  0  0.959098  0  0  0.401475  0  0.940984  0  0  0.298793  0.379613  0  0.97172  0
H  H18  1  0.05156571  0.28033328  0.31743419  1  0  0.08675  0  0.987957  0  0  0.090432  0  1.06405  0  0  0.093666  0  1.061327  0  0  0.099583  0.088205  0  1.065778  0
H  H19  1  0.94842782  0.78033429  0.18256834  1  0  0.086759  0  0.987943  0  0  0.090449  0  1.064009  0  0  0.093683  0  1.061286  0  0  0.099594  0.088226  0  1.065734  0
H  H20  1  0.94843191  0.71966773  0.68256523  1  0  0.086783  0  0.987904  0  0  0.090427  0  1.064053  0  0  0.09366  0  1.061332  0  0  0.099581  0.0882  0  1.065784  0
H  H21  1  0.05156980  0.21966672  0.81743152  1  0  0.08671  0  0.988007  0  0  0.090435  0  1.064039  0  0  0.093667  0  1.061319  0  0  0.099593  0.08821  0  1.065765  0
H  H22  1  0.89856479  0.23593283  0.21507240  1  0  0.099608  0  0.966824  0  0  0.110851  0  1.026801  0  0  0.11338  0  1.027463  0  0  0.100231  0.108929  0  1.0267  0
H  H23  1  0.10143086  0.73592743  0.28492921  1  0  0.099602  0  0.966854  0  0  0.110835  0  1.026844  0  0  0.113363  0  1.027508  0  0  0.100211  0.108915  0  1.026745  0
H  H24  1  0.10143494  0.76406613  0.78492704  1  0  0.099602  0  0.966861  0  0  0.110841  0  1.02684  0  0  0.113371  0  1.027502  0  0  0.100216  0.10892  0  1.02674  0
H  H25  1  0.89856887  0.26406845  0.71507023  1  0  0.099577  0  0.966832  0  0  0.110813  0  1.026813  0  0  0.113344  0  1.027474  0  0  0.100186  0.108893  0  1.026713  0
H  H26  1  0.46866982  0.88837785  0.21039974  1  0  0.100224  0  0.972197  0  0  0.108834  0  1.037236  0  0  0.111522  0  1.037408  0  0  0.09912  0.106926  0  1.037289  0
H  H27  1  0.53132151  0.38837454  0.28959980  1  0  0.100222  0  0.972132  0  0  0.108831  0  1.037169  0  0  0.111519  0  1.037341  0  0  0.099121  0.106923  0  1.03722  0
H  H28  1  0.53132571  0.11161700  0.78960143  1  0  0.100238  0  0.972221  0  0  0.108834  0  1.037276  0  0  0.111522  0  1.037446  0  0  0.099132  0.106926  0  1.037327  0
H  H29  1  0.46867611  0.61162442  0.71039962  1  0  0.1002  0  0.972241  0  0  0.108803  0  1.037288  0  0  0.111492  0  1.037459  0  0  0.099104  0.106896  0  1.037338  0
H  H30  1  0.62779789  0.93541441  0.31280356  1  0  0.097264  0  0.962418  0  0  0.105898  0  1.027166  0  0  0.10885  0  1.025259  0  0  0.103137  0.103679  0  1.028643  0
H  H31  1  0.37219554  0.43541560  0.18719650  1  0  0.097284  0  0.962357  0  0  0.105885  0  1.027152  0  0  0.108831  0  1.025258  0  0  0.103132  0.103666  0  1.028626  0
H  H32  1  0.37219129  0.06458661  0.68719668  1  0  0.097276  0  0.962286  0  0  0.105883  0  1.027083  0  0  0.108832  0  1.025184  0  0  0.103137  0.103665  0  1.028558  0
H  H33  1  0.62780210  0.56458644  0.81280425  1  0  0.097273  0  0.962365  0  0  0.105868  0  1.027174  0  0  0.108818  0  1.025274  0  0  0.103119  0.103649  0  1.02865  0
H  H34  1  0.69775372  0.13063115  0.13485406  1  0  0.11016  0  0.93225  0  0  0.11913  0  1.000433  0  0  0.121203  0  0.999344  0  0  0.117717  0.117809  0  1.001116  0
H  H35  1  0.30224829  0.63062727  0.36514526  1  0  0.110183  0  0.932233  0  0  0.119154  0  1.00044  0  0  0.121229  0  0.999349  0  0  0.117722  0.117827  0  1.001121  0
H  H36  1  0.30225024  0.86937089  0.86514540  1  0  0.110149  0  0.932222  0  0  0.119123  0  1.000417  0  0  0.121196  0  0.999326  0  0  0.117716  0.117799  0  1.001102  0
H  H37  1  0.69775777  0.36937272  0.63485334  1  0  0.110182  0  0.932272  0  0  0.119154  0  1.000462  0  0  0.121227  0  0.999373  0  0  0.117745  0.117834  0  1.001142  0
H  H38  1  0.82214345  0.04402319  0.07321534  1  0  0.12318  0  0.881789  0  0  0.142185  0  0.92645  0  0  0.144253  0  0.92549  0  0  0.131201  0.140123  0  0.928028  0
H  H39  1  0.17785649  0.54402281  0.42678475  1  0  0.123171  0  0.881799  0  0  0.142216  0  0.926436  0  0  0.144286  0  0.925473  0  0  0.131198  0.140144  0  0.928016  0
H  H40  1  0.17785840  0.95597679  0.92678456  1  0  0.123176  0  0.881782  0  0  0.14218  0  0.926451  0  0  0.144247  0  0.925494  0  0  0.131202  0.140117  0  0.92803  0
H  H41  1  0.82214746  0.45597924  0.57321472  1  0  0.123113  0  0.881892  0  0  0.142169  0  0.926507  0  0  0.144238  0  0.925543  0  0  0.131181  0.140103  0  0.928087  0
C  C42  1  0.34716774  0.11023681  0.32256096  1  0  -0.305992  0  3.806932  0  0  -0.288978  0  4.08701  0  0  -0.303737  0  4.113974  0  0  -0.075486  -0.279386  0  4.068926  0
C  C43  1  0.65282374  0.61023475  0.17744091  1  0  -0.305957  0  3.806895  0  0  -0.288961  0  4.086983  0  0  -0.30372  0  4.113948  0  0  -0.075506  -0.279367  0  4.068898  0
C  C44  1  0.65283199  0.88976318  0.67743892  1  0  -0.306011  0  3.806972  0  0  -0.28899  0  4.08703  0  0  -0.303749  0  4.113994  0  0  -0.075481  -0.279396  0  4.068944  0
C  C45  1  0.34716757  0.38976421  0.82256068  1  0  -0.305954  0  3.806908  0  0  -0.28893  0  4.086974  0  0  -0.303689  0  4.113938  0  0  -0.075459  -0.279336  0  4.06889  0
C  C46  1  0.14345074  0.19414666  0.29419913  1  0  -0.033577  0  3.837586  0  0  -0.056495  0  4.095146  0  0  -0.051161  0  4.115341  0  0  -0.090831  -0.059625  0  4.081243  0
C  C47  1  0.85654704  0.69414681  0.20580245  1  0  -0.033524  0  3.837599  0  0  -0.056425  0  4.095141  0  0  -0.05109  0  4.115335  0  0  -0.090791  -0.059556  0  4.081242  0
C  C48  1  0.85654478  0.80585332  0.70580117  1  0  -0.033609  0  3.837631  0  0  -0.056499  0  4.095178  0  0  -0.051165  0  4.115373  0  0  -0.090843  -0.05963  0  4.081279  0
C  C49  1  0.14345480  0.30585524  0.79419745  1  0  -0.033487  0  3.837692  0  0  -0.056433  0  4.095232  0  0  -0.051099  0  4.115429  0  0  -0.090824  -0.059564  0  4.081331  0
C  C50  1  0.05673044  0.16885926  0.23591687  1  0  -0.18112  0  3.70846  0  0  -0.194563  0  3.955907  0  0  -0.203602  0  3.977414  0  0  -0.106119  -0.188732  0  3.941749  0
C  C51  1  0.94326522  0.66885566  0.26408334  1  0  -0.181291  0  3.708551  0  0  -0.194725  0  3.955986  0  0  -0.203764  0  3.977492  0  0  -0.106172  -0.188894  0  3.941834  0
C  C52  1  0.94326929  0.83114072  0.76408257  1  0  -0.181156  0  3.708463  0  0  -0.194587  0  3.955874  0  0  -0.203625  0  3.97738  0  0  -0.106113  -0.188756  0  3.94172  0
C  C53  1  0.05673450  0.33114330  0.73591566  1  0  -0.181217  0  3.708481  0  0  -0.194646  0  3.95592  0  0  -0.203684  0  3.977426  0  0  -0.106131  -0.188815  0  3.941765  0
C  C54  1  0.16932096  0.05675974  0.20477267  1  0  0.270281  0  3.82949  0  0  0.259672  0  4.080293  0  0  0.273228  0  4.098801  0  0  0.107444  0.250401  0  4.067804  0
C  C55  1  0.83067054  0.55675943  0.29522870  1  0  0.270395  0  3.829229  0  0  0.259763  0  4.080071  0  0  0.273323  0  4.098579  0  0  0.107428  0.250491  0  4.067586  0
C  C56  1  0.83067244  0.94323819  0.79522717  1  0  0.270401  0  3.829255  0  0  0.259806  0  4.080052  0  0  0.273362  0  4.09856  0  0  0.10753  0.250535  0  4.067564  0
C  C57  1  0.16932920  0.44324158  0.70477206  1  0  0.270374  0  3.82926  0  0  0.25975  0  4.08006  0  0  0.273307  0  4.098569  0  0  0.107471  0.250479  0  4.067571  0
C  C58  1  0.37788855  0.97443297  0.23394894  1  0  -0.181753  0  3.704248  0  0  -0.192242  0  3.950658  0  0  -0.200859  0  3.970848  0  0  -0.104536  -0.186543  0  3.937128  0
C  C59  1  0.62210909  0.47443052  0.26605164  1  0  -0.18191  0  3.704212  0  0  -0.192378  0  3.950631  0  0  -0.200995  0  3.970817  0  0  -0.104578  -0.18668  0  3.937098  0
C  C60  1  0.62211538  0.02556804  0.76604920  1  0  -0.181893  0  3.704269  0  0  -0.192373  0  3.950687  0  0  -0.200989  0  3.970874  0  0  -0.104614  -0.186674  0  3.937154  0
C  C61  1  0.37788855  0.52557152  0.73394955  1  0  -0.181829  0  3.704266  0  0  -0.192301  0  3.950674  0  0  -0.200919  0  3.970861  0  0  -0.104558  -0.186604  0  3.937143  0
C  C62  1  0.46644494  0.00069745  0.29182317  1  0  -0.027053  0  3.833412  0  0  -0.051115  0  4.086931  0  0  -0.045673  0  4.107235  0  0  -0.089963  -0.054332  0  4.073074  0
C  C63  1  0.53355292  0.50069354  0.20817774  1  0  -0.027034  0  3.83341  0  0  -0.051072  0  4.086929  0  0  -0.045632  0  4.107232  0  0  -0.089957  -0.054288  0  4.073068  0
C  C64  1  0.53355056  0.99930254  0.70817580  1  0  -0.026992  0  3.833231  0  0  -0.05104  0  4.086772  0  0  -0.045601  0  4.107075  0  0  -0.089934  -0.054255  0  4.07291  0
C  C65  1  0.46644894  0.49930336  0.79182304  1  0  -0.027051  0  3.833375  0  0  -0.051099  0  4.086907  0  0  -0.045659  0  4.10721  0  0  -0.089947  -0.054315  0  4.073047  0
C  C66  1  0.89195495  0.10458463  0.11205542  1  0  -0.110386  0  3.693981  0  0  -0.166849  0  3.950017  0  0  -0.167123  0  3.95695  0  0  -0.050542  -0.166605  0  3.945304  0
C  C67  1  0.10804707  0.60458195  0.38794387  1  0  -0.110471  0  3.69392  0  0  -0.167015  0  3.950062  0  0  -0.167287  0  3.956998  0  0  -0.050537  -0.166739  0  3.9453  0
C  C68  1  0.10805112  0.89541535  0.88794451  1  0  -0.110387  0  3.693925  0  0  -0.166898  0  3.94999  0  0  -0.167169  0  3.956921  0  0  -0.050541  -0.16665  0  3.945271  0
C  C69  1  0.89195687  0.39541804  0.61205471  1  0  -0.110353  0  3.694034  0  0  -0.166882  0  3.950127  0  0  -0.167151  0  3.957059  0  0  -0.050543  -0.166631  0  3.945398  0
C  C70  1  0.00954024  0.23932789  0.08897721  1  0  0.695068  0  3.739546  0  0  0.646063  0  4.039493  0  0  0.679592  0  4.031433  0  0  0.239127  0.623329  0  4.044211  0
C  C71  1  0.99045961  0.73932625  0.41102267  1  0  0.695194  0  3.739406  0  0  0.646257  0  4.039275  0  0  0.679787  0  4.031213  0  0  0.239198  0.623517  0  4.043995  0
C  C72  1  0.99046794  0.76067107  0.91102273  1  0  0.695  0  3.739817  0  0  0.646106  0  4.039595  0  0  0.679638  0  4.031533  0  0  0.239137  0.62337  0  4.044317  0
C  C73  1  0.00954225  0.26067271  0.58897811  1  0  0.694988  0  3.739767  0  0  0.646027  0  4.039686  0  0  0.679555  0  4.031629  0  0  0.239087  0.623292  0  4.0444  0
N  N74  1  0.08220795  0.02336963  0.14837206  1  0  -0.382617  0  3.38315  0  0  -0.329881  0  3.631866  0  0  -0.348975  0  3.644603  0  0  -0.440586  -0.316655  0  3.622795  0
N  N75  1  0.91778988  0.52336556  0.35162755  1  0  -0.382371  0  3.382862  0  0  -0.329662  0  3.631656  0  0  -0.348767  0  3.644411  0  0  -0.440524  -0.316445  0  3.622572  0
N  N76  1  0.91779178  0.97662933  0.85162738  1  0  -0.382437  0  3.382862  0  0  -0.329738  0  3.631646  0  0  -0.348833  0  3.644392  0  0  -0.440605  -0.316512  0  3.62257  0
N  N77  1  0.08221196  0.47663443  0.64837191  1  0  -0.382477  0  3.382905  0  0  -0.329717  0  3.631675  0  0  -0.348815  0  3.644423  0  0  -0.440577  -0.316492  0  3.622597  0
O  O78  1  0.18008038  0.18558828  0.44501965  1  0  -0.869843  0  1.739937  0  0  -0.806214  0  1.998078  0  0  -0.834884  0  1.977319  0  0  -0.423974  -0.78583  0  2.011965  0
O  O79  1  0.81991318  0.68559157  0.05498189  1  0  -0.869824  0  1.739884  0  0  -0.806161  0  1.998039  0  0  -0.834831  0  1.977282  0  0  -0.423969  -0.785775  0  2.011925  0
O  O80  1  0.81991936  0.81441273  0.55498067  1  0  -0.869836  0  1.73992  0  0  -0.806181  0  1.998075  0  0  -0.834852  0  1.977318  0  0  -0.423949  -0.785796  0  2.011961  0
O  O81  1  0.18008024  0.31441253  0.94501927  1  0  -0.86982  0  1.739901  0  0  -0.806182  0  1.998038  0  0  -0.834854  0  1.977282  0  0  -0.42396  -0.785796  0  2.011924  0
O  O82  1  0.69969108  0.28223618  0.40837899  1  0  -0.771837  0  1.800732  0  0  -0.723402  0  2.016037  0  0  -0.743392  0  1.99035  0  0  -0.4423  -0.709281  0  2.034009  0
O  O83  1  0.30030455  0.78223876  0.09162268  1  0  -0.771955  0  1.800563  0  0  -0.723494  0  2.015933  0  0  -0.743485  0  1.990246  0  0  -0.442327  -0.709377  0  2.033917  0
O  O84  1  0.30030656  0.71776381  0.59162221  1  0  -0.771926  0  1.800622  0  0  -0.723452  0  2.015977  0  0  -0.743439  0  1.990287  0  0  -0.442341  -0.709332  0  2.03395  0
O  O85  1  0.69969098  0.21776328  0.90837806  1  0  -0.771831  0  1.800691  0  0  -0.723399  0  2.016008  0  0  -0.743385  0  1.990317  0  0  -0.442292  -0.70928  0  2.033987  0
O  O86  1  0.63671622  0.00320359  0.43182652  1  0  -0.90165  0  1.867338  0  0  -0.832265  0  2.146009  0  0  -0.861507  0  2.123483  0  0  -0.430281  -0.810915  0  2.160711  0
O  O87  1  0.36328374  0.50320498  0.06817397  1  0  -0.901587  0  1.867274  0  0  -0.832235  0  2.145853  0  0  -0.861461  0  2.123342  0  0  -0.430243  -0.810887  0  2.160557  0
O  O88  1  0.36328563  0.99679640  0.56817382  1  0  -0.901625  0  1.867316  0  0  -0.832255  0  2.145945  0  0  -0.861495  0  2.123419  0  0  -0.430253  -0.810905  0  2.160649  0
O  O89  1  0.63671600  0.49679501  0.93182636  1  0  -0.901595  0  1.867311  0  0  -0.832216  0  2.145932  0  0  -0.861459  0  2.123408  0  0  -0.430248  -0.810867  0  2.160634  0
O  O90  1  0.27181986  0.26639451  0.10537070  1  0  -0.545563  0  2.119311  0  0  -0.491155  0  2.339028  0  0  -0.51511  0  2.323305  0  0  -0.313533  -0.474242  0  2.349293  0
O  O91  1  0.72818417  0.76639589  0.39462659  1  0  -0.545692  0  2.119124  0  0  -0.491229  0  2.338921  0  0  -0.5152  0  2.323169  0  0  -0.313598  -0.474309  0  2.349168  0
O  O92  1  0.72819251  0.73360034  0.89462618  1  0  -0.545661  0  2.119222  0  0  -0.491222  0  2.338935  0  0  -0.515194  0  2.323187  0  0  -0.313597  -0.474301  0  2.349179  0
O  O93  1  0.27182187  0.23360615  0.60537113  1  0  -0.545561  0  2.119353  0  0  -0.491151  0  2.339112  0  0  -0.515124  0  2.32336  0  0  -0.313517  -0.474244  0  2.349386  0
O  O94  1  0.85388756  0.31414559  0.05739448  1  0  -0.591154  0  2.032226  0  0  -0.535751  0  2.282604  0  0  -0.562278  0  2.27104  0  0  -0.296711  -0.51757  0  2.289976  0
O  O95  1  0.14611225  0.81414428  0.44260504  1  0  -0.59115  0  2.032195  0  0  -0.535793  0  2.282568  0  0  -0.562319  0  2.271001  0  0  -0.296707  -0.517615  0  2.289946  0
O  O96  1  0.14611642  0.68585542  0.94260720  1  0  -0.591113  0  2.03249  0  0  -0.535747  0  2.282798  0  0  -0.562273  0  2.271231  0  0  -0.296694  -0.517568  0  2.290172  0
O  O97  1  0.85389170  0.18585570  0.55739443  1  0  -0.591118  0  2.03235  0  0  -0.535719  0  2.282674  0  0  -0.562245  0  2.27111  0  0  -0.296707  -0.517537  0  2.290046  0
