# generated using pymatgen
data_Mg3H14C12(SO7)2
_symmetry_space_group_name_H-M   'P 1'
_cell_length_a   6.42557781
_cell_length_b   7.93184433
_cell_length_c   19.31100505
_cell_angle_alpha   89.99915483
_cell_angle_beta   89.99995668
_cell_angle_gamma   96.95657016
_symmetry_Int_Tables_number   1
_chemical_formula_structural   Mg3H14C12(SO7)2
_chemical_formula_sum   'Mg6 H28 C24 S4 O28'
_cell_volume   976.97229876
_cell_formula_units_Z   2
loop_
 _symmetry_equiv_pos_site_id
 _symmetry_equiv_pos_as_xyz
  1  'x, y, z'
loop_
 _atom_site_type_symbol
 _atom_site_label
 _atom_site_symmetry_multiplicity
 _atom_site_fract_x
 _atom_site_fract_y
 _atom_site_fract_z
 _atom_site_occupancy
 _atom_site_hle17_bader_spin_density
 _atom_site_hle17_ddec_charge
 _atom_site_hle17_ddec_spin_density
 _atom_site_hle17_ddec_sum_bond_order
 _atom_site_hle17_magmom
 _atom_site_hse06_10hf_bader_spin_density
 _atom_site_hse06_10hf_ddec_charge
 _atom_site_hse06_10hf_ddec_spin_density
 _atom_site_hse06_10hf_ddec_sum_bond_order
 _atom_site_hse06_10hf_magmom
 _atom_site_hse06_bader_spin_density
 _atom_site_hse06_ddec_charge
 _atom_site_hse06_ddec_spin_density
 _atom_site_hse06_ddec_sum_bond_order
 _atom_site_hse06_magmom
 _atom_site_pbe_bader_spin_density
 _atom_site_pbe_cm5_charge
 _atom_site_pbe_ddec_charge
 _atom_site_pbe_ddec_spin_density
 _atom_site_pbe_ddec_sum_bond_order
 _atom_site_pbe_magmom
Mg  Mg0  1  0.99999495  0.99999615  0.49999981  1  0  1.538888  0  1.11107  0  0  1.427387  0  1.360915  0  0  1.450226  0  1.326211  0  0  0.805792  1.411163  0  1.38531  0
Mg  Mg1  1  0.00000483  0.50000146  0.00000210  1  0  1.538888  0  1.111  0  0  1.427275  0  1.361001  0  0  1.450105  0  1.326311  0  0  0.805751  1.411058  0  1.38537  0
Mg  Mg2  1  0.47290740  0.81019821  0.48279472  1  0  1.519842  0  1.096931  0  0  1.416329  0  1.33912  0  0  1.439654  0  1.302854  0  0  0.786366  1.399771  0  1.364639  0
Mg  Mg3  1  0.52709456  0.68980083  0.98279339  1  0  1.519782  0  1.097016  0  0  1.416264  0  1.339253  0  0  1.439584  0  1.302997  0  0  0.786338  1.399704  0  1.364789  0
Mg  Mg4  1  0.52708325  0.18979389  0.51720755  1  0  1.519869  0  1.096859  0  0  1.416278  0  1.339247  0  0  1.439598  0  1.302988  0  0  0.786358  1.399719  0  1.36478  0
Mg  Mg5  1  0.47291563  0.31020781  0.01720732  1  0  1.519789  0  1.096993  0  0  1.416226  0  1.339325  0  0  1.439547  0  1.303066  0  0  0.78635  1.399666  0  1.364844  0
H  H6  1  0.70690569  0.04605415  0.42203891  1  0  0.428628  0  0.851854  0  0  0.406079  0  0.905554  0  0  0.41447  0  0.892815  0  0  0.31101  0.400085  0  0.914715  0
H  H7  1  0.29309597  0.45395182  0.92204018  1  0  0.428669  0  0.851765  0  0  0.40612  0  0.905485  0  0  0.414512  0  0.892745  0  0  0.311004  0.400124  0  0.914649  0
H  H8  1  0.29307644  0.95393284  0.57795973  1  0  0.428656  0  0.85182  0  0  0.406124  0  0.90549  0  0  0.414513  0  0.892756  0  0  0.311077  0.400129  0  0.914652  0
H  H9  1  0.70690506  0.54605808  0.07796157  1  0  0.428633  0  0.851833  0  0  0.406096  0  0.905519  0  0  0.414485  0  0.892784  0  0  0.311042  0.400101  0  0.914679  0
H  H10  1  0.80342453  0.73376295  0.40994474  1  0  0.437834  0  0.860938  0  0  0.40124  0  0.933574  0  0  0.412134  0  0.917641  0  0  0.308355  0.39355  0  0.944811  0
H  H11  1  0.19656740  0.76625143  0.90994769  1  0  0.437955  0  0.860774  0  0  0.401314  0  0.93346  0  0  0.412207  0  0.917528  0  0  0.308383  0.393627  0  0.944692  0
H  H12  1  0.19656264  0.26622660  0.59005390  1  0  0.43782  0  0.860976  0  0  0.401333  0  0.933462  0  0  0.412228  0  0.917527  0  0  0.308408  0.393641  0  0.944702  0
H  H13  1  0.80342978  0.23375338  0.09005405  1  0  0.4379  0  0.860858  0  0  0.401291  0  0.933512  0  0  0.412185  0  0.917578  0  0  0.308356  0.393601  0  0.944749  0
H  H14  1  0.59399439  0.63400454  0.37902591  1  0  0.43508  0  0.805644  0  0  0.412484  0  0.865885  0  0  0.420346  0  0.857029  0  0  0.331342  0.406853  0  0.872351  0
H  H15  1  0.40599514  0.86602492  0.87902924  1  0  0.435066  0  0.805621  0  0  0.412472  0  0.865858  0  0  0.420332  0  0.857006  0  0  0.331381  0.406843  0  0.872322  0
H  H16  1  0.40598711  0.36598881  0.62097532  1  0  0.435099  0  0.805704  0  0  0.412505  0  0.865952  0  0  0.420365  0  0.857098  0  0  0.331372  0.406876  0  0.872419  0
H  H17  1  0.59399818  0.13397480  0.12096836  1  0  0.435077  0  0.805634  0  0  0.412482  0  0.865873  0  0  0.420341  0  0.857023  0  0  0.331373  0.40685  0  0.87234  0
H  H18  1  0.27277336  0.51420491  0.52595704  1  0  0.436222  0  0.86008  0  0  0.407635  0  0.919229  0  0  0.417354  0  0.905048  0  0  0.300851  0.400755  0  0.929292  0
H  H19  1  0.72722915  0.98579050  0.02595517  1  0  0.436251  0  0.86006  0  0  0.407633  0  0.919268  0  0  0.417352  0  0.905086  0  0  0.300807  0.400748  0  0.929339  0
H  H20  1  0.72721344  0.48578210  0.47404212  1  0  0.436273  0  0.860006  0  0  0.407671  0  0.919184  0  0  0.417392  0  0.904998  0  0  0.300821  0.400787  0  0.929252  0
H  H21  1  0.27277636  0.01421813  0.97404503  1  0  0.436118  0  0.860256  0  0  0.407525  0  0.919412  0  0  0.417242  0  0.905234  0  0  0.300737  0.400638  0  0.929487  0
H  H22  1  0.11440405  0.64992630  0.51541810  1  0  0.434568  0  0.867886  0  0  0.402176  0  0.934221  0  0  0.412792  0  0.918545  0  0  0.302974  0.394662  0  0.945323  0
H  H23  1  0.88560303  0.85006823  0.01541804  1  0  0.434532  0  0.867948  0  0  0.402162  0  0.934241  0  0  0.412775  0  0.918566  0  0  0.302995  0.394657  0  0.945329  0
H  H24  1  0.88558990  0.35006707  0.48458158  1  0  0.434569  0  0.867893  0  0  0.402165  0  0.934245  0  0  0.412781  0  0.918568  0  0  0.302922  0.394653  0  0.945343  0
H  H25  1  0.11440616  0.14994422  0.98458319  1  0  0.434542  0  0.86795  0  0  0.402163  0  0.934249  0  0  0.412775  0  0.918575  0  0  0.30297  0.394658  0  0.945339  0
H  H26  1  0.17219186  0.64170815  0.64629738  1  0  0.117989  0  0.94843  0  0  0.126222  0  1.012479  0  0  0.130421  0  1.008774  0  0  0.10974  0.123134  0  1.01534  0
H  H27  1  0.82783635  0.85831593  0.14629728  1  0  0.117793  0  0.948516  0  0  0.126032  0  1.012568  0  0  0.130245  0  1.008846  0  0  0.109619  0.122945  0  1.015426  0
H  H28  1  0.82780621  0.35828142  0.35369971  1  0  0.117958  0  0.948465  0  0  0.126133  0  1.012548  0  0  0.130368  0  1.008803  0  0  0.109684  0.123045  0  1.015405  0
H  H29  1  0.17219038  0.14172068  0.85369618  1  0  0.117868  0  0.948501  0  0  0.126079  0  1.012551  0  0  0.130312  0  1.008808  0  0  0.109668  0.122995  0  1.01541  0
H  H30  1  0.19386577  0.59765752  0.78233289  1  0  0.11226  0  0.945113  0  0  0.120888  0  1.008079  0  0  0.124819  0  1.004956  0  0  0.104945  0.118014  0  1.01052  0
H  H31  1  0.80614811  0.90236664  0.28233047  1  0  0.112334  0  0.945132  0  0  0.12107  0  1.007981  0  0  0.125004  0  1.004852  0  0  0.105022  0.118199  0  1.010411  0
H  H32  1  0.80612880  0.40232951  0.21766575  1  0  0.112309  0  0.945152  0  0  0.121003  0  1.008067  0  0  0.124937  0  1.004934  0  0  0.104954  0.118135  0  1.010491  0
H  H33  1  0.19386282  0.09764708  0.71766403  1  0  0.112384  0  0.945125  0  0  0.121075  0  1.008037  0  0  0.125002  0  1.004924  0  0  0.104997  0.118208  0  1.01046  0
C  C34  1  0.82333932  0.64072358  0.86277697  1  0  0.712775  0  3.899941  0  0  0.656362  0  4.201368  0  0  0.690725  0  4.191  0  0  0.222373  0.633099  0  4.207608  0
C  C35  1  0.17664333  0.85927980  0.36277548  1  0  0.713102  0  3.89974  0  0  0.656879  0  4.20087  0  0  0.691237  0  4.1905  0  0  0.222511  0.633614  0  4.207118  0
C  C36  1  0.17665608  0.35925837  0.13722168  1  0  0.712749  0  3.899834  0  0  0.656328  0  4.201211  0  0  0.69069  0  4.190846  0  0  0.222337  0.633063  0  4.207455  0
C  C37  1  0.82334532  0.14071991  0.63722265  1  0  0.712938  0  3.899677  0  0  0.656631  0  4.200931  0  0  0.690998  0  4.190557  0  0  0.222533  0.633375  0  4.207168  0
C  C38  1  0.86801282  0.64591984  0.78777256  1  0  -0.15932  0  3.737514  0  0  -0.144047  0  4.011423  0  0  -0.150982  0  4.032748  0  0  -0.028424  -0.139358  0  3.996817  0
C  C39  1  0.13200621  0.85408636  0.28777423  1  0  -0.159481  0  3.737408  0  0  -0.144278  0  4.011348  0  0  -0.151217  0  4.032676  0  0  -0.028492  -0.139582  0  3.996736  0
C  C40  1  0.13197242  0.35406716  0.21222867  1  0  -0.159346  0  3.73764  0  0  -0.143956  0  4.011416  0  0  -0.150894  0  4.032747  0  0  -0.028391  -0.139273  0  3.996817  0
C  C41  1  0.86801762  0.14591978  0.71222701  1  0  -0.159444  0  3.737476  0  0  -0.144094  0  4.011259  0  0  -0.151031  0  4.032586  0  0  -0.028458  -0.139411  0  3.99666  0
C  C42  1  0.84492076  0.68049412  0.66099656  1  0  -0.142632  0  3.69514  0  0  -0.127358  0  3.969012  0  0  -0.133613  0  3.988578  0  0  -0.023407  -0.123229  0  3.955789  0
C  C43  1  0.15508823  0.81950526  0.16099636  1  0  -0.142662  0  3.69491  0  0  -0.127361  0  3.968795  0  0  -0.13361  0  3.988351  0  0  -0.023362  -0.123211  0  3.955552  0
C  C44  1  0.15507486  0.31951068  0.33900519  1  0  -0.142948  0  3.695482  0  0  -0.127543  0  3.969188  0  0  -0.133776  0  3.988731  0  0  -0.023473  -0.123435  0  3.955995  0
C  C45  1  0.84492444  0.18050974  0.83900435  1  0  -0.142893  0  3.695042  0  0  -0.127553  0  3.968843  0  0  -0.133719  0  3.988293  0  0  -0.023432  -0.123459  0  3.955674  0
C  C46  1  0.77885515  0.72608746  0.59081624  1  0  0.712011  0  3.914845  0  0  0.65353  0  4.219125  0  0  0.688571  0  4.207575  0  0  0.222247  0.629786  0  4.226255  0
C  C47  1  0.22116250  0.77389545  0.09081837  1  0  0.712318  0  3.914741  0  0  0.653777  0  4.219103  0  0  0.688813  0  4.207557  0  0  0.222249  0.630029  0  4.226236  0
C  C48  1  0.22113395  0.27390463  0.40918292  1  0  0.712178  0  3.914672  0  0  0.653602  0  4.219033  0  0  0.688638  0  4.207477  0  0  0.22219  0.629864  0  4.226168  0
C  C49  1  0.77886433  0.22609926  0.90918234  1  0  0.712193  0  3.914945  0  0  0.653636  0  4.219302  0  0  0.688644  0  4.20775  0  0  0.222209  0.629905  0  4.226434  0
C  C50  1  0.04256757  0.64752276  0.68220540  1  0  -0.073551  0  3.720757  0  0  -0.10171  0  3.980067  0  0  -0.10143  0  3.997861  0  0  -0.096732  -0.101697  0  3.967901  0
C  C51  1  0.95742781  0.85247962  0.18221359  1  0  -0.073248  0  3.721238  0  0  -0.101399  0  3.980524  0  0  -0.10114  0  3.99832  0  0  -0.096591  -0.101393  0  3.968355  0
C  C52  1  0.95741733  0.35242996  0.31779428  1  0  -0.073241  0  3.721003  0  0  -0.10138  0  3.980293  0  0  -0.101137  0  3.99806  0  0  -0.096548  -0.101364  0  3.968135  0
C  C53  1  0.04258602  0.14756459  0.81778764  1  0  -0.073261  0  3.720926  0  0  -0.101404  0  3.980218  0  0  -0.101183  0  3.997975  0  0  -0.09663  -0.101381  0  3.968063  0
C  C54  1  0.05496543  0.62607724  0.75449119  1  0  -0.0798  0  3.752364  0  0  -0.108733  0  4.014768  0  0  -0.108737  0  4.033916  0  0  -0.09823  -0.108493  0  4.001499  0
C  C55  1  0.94504282  0.87395046  0.25448786  1  0  -0.080003  0  3.752915  0  0  -0.109033  0  4.015328  0  0  -0.109043  0  4.034488  0  0  -0.098329  -0.108791  0  4.002053  0
C  C56  1  0.94503728  0.37394408  0.24551108  1  0  -0.079997  0  3.752745  0  0  -0.109045  0  4.015135  0  0  -0.109069  0  4.03433  0  0  -0.098329  -0.108794  0  4.001848  0
C  C57  1  0.05496688  0.12604421  0.74551233  1  0  -0.080002  0  3.752719  0  0  -0.109036  0  4.015124  0  0  -0.109058  0  4.034308  0  0  -0.098303  -0.108785  0  4.00184  0
S  S58  1  0.67601950  0.68506748  0.72992152  1  0  0.156162  0  2.623194  0  0  0.150189  0  2.941784  0  0  0.14983  0  2.950503  0  0  0.09698  0.150008  0  2.936457  0
S  S59  1  0.32398318  0.81492175  0.22992285  1  0  0.156204  0  2.623287  0  0  0.15024  0  2.941888  0  0  0.149879  0  2.950608  0  0  0.097038  0.150052  0  2.936544  0
S  S60  1  0.32396629  0.31492334  0.27008178  1  0  0.156255  0  2.623188  0  0  0.150192  0  2.9417  0  0  0.149827  0  2.950412  0  0  0.096977  0.15002  0  2.936373  0
S  S61  1  0.67603387  0.18508056  0.77007838  1  0  0.156317  0  2.623228  0  0  0.150288  0  2.941773  0  0  0.149904  0  2.950462  0  0  0.097048  0.150121  0  2.936456  0
O  O62  1  0.92445365  0.76303664  0.54608203  1  0  -0.743634  0  2.093173  0  0  -0.674164  0  2.332158  0  0  -0.698515  0  2.319375  0  0  -0.348175  -0.657159  0  2.340585  0
O  O63  1  0.07556253  0.73695679  0.04608753  1  0  -0.74371  0  2.093029  0  0  -0.67423  0  2.33209  0  0  -0.698561  0  2.31928  0  0  -0.348213  -0.657241  0  2.340533  0
O  O64  1  0.07553737  0.23695799  0.45391868  1  0  -0.743757  0  2.093125  0  0  -0.674139  0  2.331967  0  0  -0.698499  0  2.319206  0  0  -0.348161  -0.657133  0  2.340398  0
O  O65  1  0.92446627  0.26306205  0.95391266  1  0  -0.743724  0  2.093186  0  0  -0.674165  0  2.33213  0  0  -0.698504  0  2.319368  0  0  -0.348163  -0.657173  0  2.340563  0
O  O66  1  0.69704983  0.01722892  0.47098052  1  0  -1.214339  0  1.785751  0  0  -1.139905  0  1.991877  0  0  -1.158572  0  1.961486  0  0  -0.705619  -1.12655  0  2.012985  0
O  O67  1  0.30295145  0.48277526  0.97098110  1  0  -1.214346  0  1.785711  0  0  -1.139902  0  1.991882  0  0  -1.158575  0  1.961498  0  0  -0.705599  -1.126547  0  2.012991  0
O  O68  1  0.30294082  0.98276317  0.52901967  1  0  -1.214389  0  1.785757  0  0  -1.139965  0  1.991875  0  0  -1.158631  0  1.961484  0  0  -0.705663  -1.126607  0  2.012986  0
O  O69  1  0.69705755  0.51723592  0.02902117  1  0  -1.214368  0  1.785843  0  0  -1.13993  0  1.991989  0  0  -1.158604  0  1.96161  0  0  -0.70564  -1.126576  0  2.01309  0
O  O70  1  0.58609869  0.73416992  0.57922441  1  0  -0.687966  0  1.956836  0  0  -0.633554  0  2.197373  0  0  -0.655635  0  2.184417  0  0  -0.339685  -0.61831  0  2.205983  0
O  O71  1  0.41391809  0.76583881  0.07922239  1  0  -0.688026  0  1.956757  0  0  -0.633664  0  2.197431  0  0  -0.655718  0  2.184421  0  0  -0.33964  -0.618418  0  2.206044  0
O  O72  1  0.41389426  0.26582726  0.42077682  1  0  -0.687987  0  1.956765  0  0  -0.633531  0  2.19731  0  0  -0.655615  0  2.184369  0  0  -0.339629  -0.61829  0  2.205922  0
O  O73  1  0.58610897  0.23417876  0.92077521  1  0  -0.68796  0  1.956884  0  0  -0.633526  0  2.197448  0  0  -0.655602  0  2.184502  0  0  -0.339646  -0.618279  0  2.206051  0
O  O74  1  0.67169856  0.65776679  0.42199615  1  0  -0.849293  0  1.899324  0  0  -0.791501  0  2.08305  0  0  -0.809127  0  2.055183  0  0  -0.558943  -0.779124  0  2.102574  0
O  O75  1  0.32829719  0.84224207  0.92199861  1  0  -0.849351  0  1.89919  0  0  -0.791529  0  2.083019  0  0  -0.809162  0  2.055172  0  0  -0.558987  -0.779153  0  2.102543  0
O  O76  1  0.32829035  0.34222403  0.57800508  1  0  -0.849333  0  1.899524  0  0  -0.791649  0  2.083131  0  0  -0.809269  0  2.055258  0  0  -0.559033  -0.779273  0  2.102665  0
O  O77  1  0.67170291  0.15776147  0.07800055  1  0  -0.849315  0  1.899263  0  0  -0.791507  0  2.083016  0  0  -0.809134  0  2.055157  0  0  -0.558949  -0.779135  0  2.102548  0
O  O78  1  0.24041987  0.60730566  0.49514169  1  0  -0.894806  0  1.830851  0  0  -0.84335  0  2.012382  0  0  -0.860851  0  1.981804  0  0  -0.619403  -0.831031  0  2.03376  0
O  O79  1  0.75959115  0.89269167  0.99514011  1  0  -0.894834  0  1.83086  0  0  -0.843357  0  2.012386  0  0  -0.860858  0  1.98182  0  0  -0.619376  -0.831041  0  2.03376  0
O  O80  1  0.75956941  0.39268770  0.50485798  1  0  -0.894826  0  1.830732  0  0  -0.843393  0  2.012333  0  0  -0.860893  0  1.981756  0  0  -0.619337  -0.83108  0  2.033713  0
O  O81  1  0.24042197  0.10731571  0.00486008  1  0  -0.894699  0  1.830914  0  0  -0.843256  0  2.012502  0  0  -0.860757  0  1.981942  0  0  -0.619307  -0.830943  0  2.033873  0
O  O82  1  0.63706354  0.65216154  0.88206596  1  0  -0.700153  0  1.991248  0  0  -0.646838  0  2.233545  0  0  -0.668944  0  2.220425  0  0  -0.342716  -0.6315  0  2.242238  0
O  O83  1  0.36290594  0.84783729  0.38206760  1  0  -0.700333  0  1.991296  0  0  -0.647049  0  2.233482  0  0  -0.669156  0  2.220362  0  0  -0.342816  -0.631711  0  2.242184  0
O  O84  1  0.36293986  0.34784328  0.11793527  1  0  -0.700125  0  1.991086  0  0  -0.646826  0  2.23339  0  0  -0.668932  0  2.220269  0  0  -0.34274  -0.631488  0  2.242082  0
O  O85  1  0.63707418  0.15215732  0.61793260  1  0  -0.700221  0  1.991169  0  0  -0.646904  0  2.233392  0  0  -0.669007  0  2.220262  0  0  -0.342792  -0.63157  0  2.242088  0
O  O86  1  0.97750751  0.62463534  0.90364488  1  0  -0.727322  0  2.042561  0  0  -0.65559  0  2.27375  0  0  -0.679731  0  2.261604  0  0  -0.33873  -0.638769  0  2.281723  0
O  O87  1  0.02249678  0.87539960  0.40364230  1  0  -0.72739  0  2.042357  0  0  -0.655839  0  2.273559  0  0  -0.679973  0  2.2614  0  0  -0.338818  -0.639023  0  2.281543  0
O  O88  1  0.02249416  0.37536820  0.09635531  1  0  -0.727312  0  2.042532  0  0  -0.655598  0  2.273741  0  0  -0.679739  0  2.261597  0  0  -0.338711  -0.638773  0  2.281709  0
O  O89  1  0.97749736  0.12459504  0.59635738  1  0  -0.727299  0  2.042437  0  0  -0.6558  0  2.273674  0  0  -0.679954  0  2.261525  0  0  -0.338833  -0.638978  0  2.281643  0
