# generated using pymatgen
data_ErCdH7C5SN2O11
_symmetry_space_group_name_H-M   'P 1'
_cell_length_a   8.49328902
_cell_length_b   10.48908192
_cell_length_c   13.82953881
_cell_angle_alpha   89.99993000
_cell_angle_beta   102.07930280
_cell_angle_gamma   90.00008217
_symmetry_Int_Tables_number   1
_chemical_formula_structural   ErCdH7C5SN2O11
_chemical_formula_sum   'Er4 Cd4 H28 C20 S4 N8 O44'
_cell_volume   1204.75092374
_cell_formula_units_Z   4
loop_
 _symmetry_equiv_pos_site_id
 _symmetry_equiv_pos_as_xyz
  1  'x, y, z'
loop_
 _atom_site_type_symbol
 _atom_site_label
 _atom_site_symmetry_multiplicity
 _atom_site_fract_x
 _atom_site_fract_y
 _atom_site_fract_z
 _atom_site_occupancy
 _atom_site_hle17_bader_spin_density
 _atom_site_hle17_ddec_charge
 _atom_site_hle17_ddec_spin_density
 _atom_site_hle17_ddec_sum_bond_order
 _atom_site_hle17_magmom
 _atom_site_hse06_10hf_bader_spin_density
 _atom_site_hse06_10hf_ddec_charge
 _atom_site_hse06_10hf_ddec_spin_density
 _atom_site_hse06_10hf_ddec_sum_bond_order
 _atom_site_hse06_10hf_magmom
 _atom_site_hse06_bader_spin_density
 _atom_site_hse06_ddec_charge
 _atom_site_hse06_ddec_spin_density
 _atom_site_hse06_ddec_sum_bond_order
 _atom_site_hse06_magmom
 _atom_site_pbe_bader_spin_density
 _atom_site_pbe_cm5_charge
 _atom_site_pbe_ddec_charge
 _atom_site_pbe_ddec_spin_density
 _atom_site_pbe_ddec_sum_bond_order
 _atom_site_pbe_magmom
Er  Er0  1  0.93209360  0.89577379  0.10777798  1  0  2.347676  0  1.54811  0  0  2.288412  0  1.850261  0  0  2.333908  0  1.811838  0  0  1.522359  2.255759  0  1.877168  0
Er  Er1  1  0.06792135  0.39577029  0.39222453  1  0  2.34772  0  1.548164  0  0  2.288479  0  1.850313  0  0  2.333976  0  1.811883  0  0  1.522455  2.255825  0  1.87722  0
Er  Er2  1  0.06791215  0.10422862  0.89221954  1  0  2.347666  0  1.548048  0  0  2.288419  0  1.850189  0  0  2.333919  0  1.811764  0  0  1.522348  2.255761  0  1.877093  0
Er  Er3  1  0.93207479  0.60422735  0.60777972  1  0  2.34772  0  1.548191  0  0  2.288466  0  1.850346  0  0  2.33396  0  1.811918  0  0  1.522423  2.255805  0  1.877257  0
Cd  Cd4  1  0.62624993  0.48425235  0.13409390  1  0  1.206943  0  1.650873  0  0  1.011385  0  2.100196  0  0  1.065931  0  2.047756  0  0  0.814404  0.971902  0  2.136458  0
Cd  Cd5  1  0.37375313  0.98424525  0.36591064  1  0  1.206956  0  1.65095  0  0  1.011394  0  2.100257  0  0  1.065931  0  2.047819  0  0  0.814418  0.971908  0  2.136519  0
Cd  Cd6  1  0.37374258  0.51575482  0.86590338  1  0  1.207013  0  1.650925  0  0  1.011463  0  2.100228  0  0  1.065991  0  2.047791  0  0  0.814473  0.971979  0  2.136491  0
Cd  Cd7  1  0.62625022  0.01576002  0.63408947  1  0  1.206962  0  1.651023  0  0  1.011423  0  2.100314  0  0  1.065961  0  2.047875  0  0  0.814438  0.971942  0  2.136575  0
H  H8  1  0.63055497  0.26030408  0.33869256  1  0  0.096989  0  0.954344  0  0  0.103056  0  1.020697  0  0  0.105799  0  1.017333  0  0  0.130564  0.10098  0  1.023293  0
H  H9  1  0.36945016  0.76031257  0.16131461  1  0  0.096989  0  0.954341  0  0  0.103095  0  1.02064  0  0  0.10581  0  1.017312  0  0  0.130577  0.10102  0  1.023236  0
H  H10  1  0.36944958  0.73969928  0.66130481  1  0  0.097032  0  0.954476  0  0  0.103139  0  1.020767  0  0  0.105858  0  1.017436  0  0  0.13058  0.101061  0  1.023366  0
H  H11  1  0.63055318  0.23969747  0.83868188  1  0  0.096941  0  0.954445  0  0  0.103085  0  1.020694  0  0  0.105773  0  1.0174  0  0  0.130582  0.101027  0  1.023269  0
H  H12  1  0.98784757  0.89646101  0.33031359  1  0  0.444153  0  0.845013  0  0  0.4158  0  0.903272  0  0  0.42602  0  0.888319  0  0  0.305846  0.408599  0  0.91382  0
H  H13  1  0.01215415  0.39646164  0.16969086  1  0  0.444186  0  0.844953  0  0  0.415853  0  0.903178  0  0  0.426071  0  0.888229  0  0  0.305891  0.408651  0  0.913728  0
H  H14  1  0.01217503  0.10353663  0.66968680  1  0  0.44411  0  0.845055  0  0  0.415754  0  0.903331  0  0  0.425973  0  0.888375  0  0  0.305857  0.408554  0  0.913875  0
H  H15  1  0.98782031  0.60353124  0.83030702  1  0  0.443969  0  0.845209  0  0  0.415611  0  0.903496  0  0  0.425819  0  0.888551  0  0  0.305798  0.408404  0  0.914053  0
H  H16  1  0.79804153  0.91005602  0.29292131  1  0  0.433429  0  0.829419  0  0  0.408344  0  0.896368  0  0  0.416163  0  0.885115  0  0  0.31899  0.402845  0  0.904303  0
H  H17  1  0.20195900  0.41004917  0.20708008  1  0  0.433508  0  0.829247  0  0  0.408364  0  0.896343  0  0  0.416184  0  0.88509  0  0  0.319034  0.402871  0  0.904271  0
H  H18  1  0.20198108  0.08994257  0.70707980  1  0  0.433441  0  0.829339  0  0  0.408316  0  0.896403  0  0  0.416134  0  0.885153  0  0  0.318997  0.40282  0  0.904335  0
H  H19  1  0.79801424  0.58993607  0.79291185  1  0  0.433342  0  0.829555  0  0  0.408194  0  0.896606  0  0  0.416016  0  0.885349  0  0  0.318964  0.402698  0  0.904536  0
H  H20  1  0.02255470  0.63857054  0.16392895  1  0  0.453161  0  0.800994  0  0  0.432706  0  0.858823  0  0  0.442143  0  0.846252  0  0  0.324193  0.4258  0  0.867549  0
H  H21  1  0.97746706  0.13856817  0.33607322  1  0  0.453189  0  0.800966  0  0  0.432738  0  0.858778  0  0  0.442177  0  0.846203  0  0  0.324215  0.425839  0  0.8675  0
H  H22  1  0.97745225  0.36142710  0.83606873  1  0  0.453196  0  0.800985  0  0  0.432731  0  0.858838  0  0  0.44217  0  0.846232  0  0  0.324206  0.425825  0  0.867564  0
H  H23  1  0.02251221  0.86142470  0.66392455  1  0  0.45329  0  0.80094  0  0  0.432837  0  0.85875  0  0  0.442274  0  0.846097  0  0  0.32428  0.425935  0  0.867475  0
H  H24  1  0.05308943  0.68863109  0.27213502  1  0  0.453899  0  0.844539  0  0  0.421838  0  0.90936  0  0  0.432382  0  0.89399  0  0  0.304157  0.414389  0  0.920206  0
H  H25  1  0.94691436  0.18862792  0.22786770  1  0  0.453951  0  0.844473  0  0  0.421896  0  0.909283  0  0  0.432447  0  0.893905  0  0  0.304197  0.41445  0  0.920125  0
H  H26  1  0.94691029  0.31137036  0.72786245  1  0  0.453954  0  0.844519  0  0  0.421873  0  0.909363  0  0  0.432417  0  0.893993  0  0  0.304148  0.414421  0  0.920213  0
H  H27  1  0.05308297  0.81137258  0.77213309  1  0  0.453992  0  0.844423  0  0  0.42194  0  0.909229  0  0  0.432489  0  0.893855  0  0  0.304197  0.414493  0  0.920073  0
H  H28  1  0.55936171  0.88612166  0.06966651  1  0  0.452131  0  0.829564  0  0  0.424904  0  0.886746  0  0  0.433749  0  0.873866  0  0  0.309936  0.418648  0  0.895853  0
H  H29  1  0.44063877  0.38612901  0.43033128  1  0  0.451994  0  0.829763  0  0  0.424793  0  0.886876  0  0  0.433636  0  0.874001  0  0  0.309896  0.418538  0  0.895981  0
H  H30  1  0.44064887  0.11387026  0.93033741  1  0  0.452143  0  0.829566  0  0  0.42491  0  0.886742  0  0  0.433756  0  0.87386  0  0  0.309947  0.418653  0  0.89585  0
H  H31  1  0.55934894  0.61385814  0.56967117  1  0  0.452126  0  0.829584  0  0  0.424904  0  0.88674  0  0  0.433747  0  0.873864  0  0  0.309923  0.418646  0  0.895851  0
H  H32  1  0.62520826  0.02745455  0.08253236  1  0  0.436513  0  0.852384  0  0  0.406259  0  0.918381  0  0  0.416186  0  0.903783  0  0  0.305208  0.399231  0  0.928714  0
H  H33  1  0.37479528  0.52746643  0.41747120  1  0  0.436424  0  0.852671  0  0  0.406188  0  0.91851  0  0  0.416115  0  0.903913  0  0  0.305157  0.399161  0  0.928839  0
H  H34  1  0.37480113  0.97253642  0.91747358  1  0  0.436418  0  0.85274  0  0  0.406195  0  0.918514  0  0  0.41612  0  0.903919  0  0  0.305168  0.399169  0  0.928841  0
H  H35  1  0.62519242  0.47252073  0.58252981  1  0  0.436418  0  0.852537  0  0  0.406124  0  0.918601  0  0  0.416049  0  0.904006  0  0  0.305113  0.399086  0  0.928939  0
C  C36  1  0.53386268  0.24294698  0.27510840  1  0  0.265622  0  3.67394  0  0  0.209973  0  3.951739  0  0  0.224047  0  3.96433  0  0  0.142772  0.200562  0  3.942873  0
C  C37  1  0.46614360  0.74294975  0.22489387  1  0  0.265591  0  3.673927  0  0  0.209919  0  3.951694  0  0  0.22401  0  3.9643  0  0  0.142731  0.200507  0  3.942832  0
C  C38  1  0.46613824  0.75705447  0.72488706  1  0  0.265527  0  3.67412  0  0  0.209858  0  3.951908  0  0  0.223945  0  3.964509  0  0  0.14267  0.200444  0  3.94305  0
C  C39  1  0.53386215  0.25705552  0.77510582  1  0  0.2657  0  3.67396  0  0  0.210002  0  3.951755  0  0  0.224113  0  3.964364  0  0  0.142736  0.200577  0  3.942883  0
C  C40  1  0.33345033  0.15264067  0.17551083  1  0  0.001268  0  3.760869  0  0  -0.00425  0  4.01196  0  0  -0.007317  0  4.032549  0  0  0.074071  -0.002421  0  3.998257  0
C  C41  1  0.66655582  0.65264255  0.32449367  1  0  0.001263  0  3.760957  0  0  -0.004296  0  4.012095  0  0  -0.007358  0  4.032684  0  0  0.074051  -0.002464  0  3.998393  0
C  C42  1  0.66654458  0.84736937  0.82448459  1  0  0.00136  0  3.760804  0  0  -0.004276  0  4.012018  0  0  -0.007344  0  4.032611  0  0  0.074011  -0.002442  0  3.998314  0
C  C43  1  0.33345596  0.34736463  0.67550823  1  0  0.001308  0  3.7606  0  0  -0.004273  0  4.011804  0  0  -0.007336  0  4.032398  0  0  0.074078  -0.002441  0  3.9981  0
C  C44  1  0.37791023  0.26199825  0.12933838  1  0  -0.016007  0  3.766878  0  0  -0.022623  0  4.022602  0  0  -0.023778  0  4.041975  0  0  0.072188  -0.022061  0  4.009649  0
C  C45  1  0.62209008  0.76200191  0.37066672  1  0  -0.015858  0  3.766456  0  0  -0.02248  0  4.02228  0  0  -0.023632  0  4.04165  0  0  0.072277  -0.021921  0  4.009326  0
C  C46  1  0.62209433  0.73800892  0.87066260  1  0  -0.015961  0  3.766655  0  0  -0.022621  0  4.022448  0  0  -0.023769  0  4.04182  0  0  0.07224  -0.022062  0  4.009496  0
C  C47  1  0.37791568  0.23800336  0.62933369  1  0  -0.015782  0  3.76636  0  0  -0.022509  0  4.022334  0  0  -0.023663  0  4.041711  0  0  0.07219  -0.02195  0  4.009378  0
C  C48  1  0.21224614  0.05480461  0.14393392  1  0  0.690861  0  3.894382  0  0  0.642294  0  4.191025  0  0  0.679141  0  4.17748  0  0  0.214667  0.617236  0  4.1997  0
C  C49  1  0.78776346  0.55480752  0.35606966  1  0  0.690977  0  3.89424  0  0  0.642465  0  4.190818  0  0  0.679305  0  4.177284  0  0  0.214841  0.617404  0  4.1995  0
C  C50  1  0.78775238  0.94519971  0.85606195  1  0  0.690793  0  3.894615  0  0  0.642359  0  4.191096  0  0  0.679201  0  4.177558  0  0  0.214761  0.617297  0  4.199776  0
C  C51  1  0.21223628  0.44519679  0.64393071  1  0  0.690824  0  3.894677  0  0  0.642348  0  4.191209  0  0  0.67919  0  4.177672  0  0  0.214751  0.617287  0  4.199892  0
C  C52  1  0.31711011  0.32306656  0.03225390  1  0  0.694843  0  3.894781  0  0  0.643947  0  4.189607  0  0  0.68064  0  4.177286  0  0  0.223063  0.618866  0  4.197375  0
C  C53  1  0.68290235  0.82306726  0.46775849  1  0  0.695007  0  3.894782  0  0  0.644042  0  4.18974  0  0  0.68073  0  4.177421  0  0  0.223049  0.618965  0  4.197509  0
C  C54  1  0.68290048  0.67693489  0.96775292  1  0  0.694597  0  3.895201  0  0  0.643809  0  4.189879  0  0  0.680501  0  4.177557  0  0  0.222897  0.618732  0  4.197644  0
C  C55  1  0.31709256  0.17693514  0.53223765  1  0  0.694631  0  3.895203  0  0  0.643724  0  4.190121  0  0  0.680423  0  4.177794  0  0  0.222959  0.618648  0  4.197883  0
S  S56  1  0.80103695  0.21911206  0.04470330  1  0  1.647332  0  5.740123  0  0  1.520255  0  6.287717  0  0  1.577563  0  6.248339  0  0  0.591141  1.480567  0  6.313908  0
S  S57  1  0.19895005  0.71910556  0.45530087  1  0  1.647146  0  5.739233  0  0  1.520086  0  6.286828  0  0  1.577383  0  6.247444  0  0  0.591057  1.480397  0  6.313022  0
S  S58  1  0.19896278  0.78088939  0.95529345  1  0  1.647084  0  5.73981  0  0  1.519998  0  6.287435  0  0  1.577298  0  6.248056  0  0  0.591025  1.480313  0  6.313626  0
S  S59  1  0.80104489  0.28089017  0.54470467  1  0  1.647337  0  5.739645  0  0  1.520249  0  6.287234  0  0  1.577562  0  6.247855  0  0  0.59123  1.480563  0  6.313423  0
N  N60  1  0.50442105  0.31695065  0.19392955  1  0  -0.430246  0  3.235872  0  0  -0.362376  0  3.521227  0  0  -0.383841  0  3.537943  0  0  -0.363451  -0.346896  0  3.509089  0
N  N61  1  0.49557693  0.81694760  0.30607449  1  0  -0.4303  0  3.235845  0  0  -0.362416  0  3.521224  0  0  -0.38388  0  3.537934  0  0  -0.363508  -0.346944  0  3.509103  0
N  N62  1  0.49558469  0.68305176  0.80606652  1  0  -0.430192  0  3.235868  0  0  -0.362307  0  3.521239  0  0  -0.383772  0  3.537953  0  0  -0.363409  -0.346826  0  3.509103  0
N  N63  1  0.50442642  0.18305958  0.69392634  1  0  -0.430332  0  3.235853  0  0  -0.362436  0  3.521302  0  0  -0.383901  0  3.538005  0  0  -0.363453  -0.346965  0  3.509185  0
N  N64  1  0.43127121  0.14409080  0.26808277  1  0  -0.42961  0  3.207343  0  0  -0.357215  0  3.491818  0  0  -0.378802  0  3.507874  0  0  -0.357667  -0.341727  0  3.480153  0
N  N65  1  0.56873733  0.64409273  0.23192060  1  0  -0.429602  0  3.207422  0  0  -0.357176  0  3.491895  0  0  -0.378766  0  3.507945  0  0  -0.357584  -0.34169  0  3.480231  0
N  N66  1  0.56872489  0.85591542  0.73190991  1  0  -0.429638  0  3.207314  0  0  -0.357206  0  3.491844  0  0  -0.378792  0  3.507891  0  0  -0.357593  -0.341721  0  3.480181  0
N  N67  1  0.43127086  0.35591636  0.76808663  1  0  -0.429656  0  3.207152  0  0  -0.357219  0  3.491673  0  0  -0.378807  0  3.507708  0  0  -0.357637  -0.341733  0  3.480014  0
O  O68  1  0.17623230  0.97865278  0.20869130  1  0  -0.699614  0  2.042287  0  0  -0.642058  0  2.297388  0  0  -0.669469  0  2.285489  0  0  -0.364267  -0.623175  0  2.305238  0
O  O69  1  0.82377798  0.47865127  0.29131416  1  0  -0.699564  0  2.041999  0  0  -0.642082  0  2.297144  0  0  -0.6695  0  2.285252  0  0  -0.364319  -0.623202  0  2.304997  0
O  O70  1  0.82377104  0.02135439  0.79130664  1  0  -0.699602  0  2.042447  0  0  -0.64208  0  2.297465  0  0  -0.66949  0  2.285565  0  0  -0.364288  -0.623195  0  2.305315  0
O  O71  1  0.17622899  0.52134923  0.70868785  1  0  -0.699576  0  2.04232  0  0  -0.642071  0  2.297426  0  0  -0.669485  0  2.285534  0  0  -0.364291  -0.623187  0  2.305278  0
O  O72  1  0.13952885  0.04218390  0.05392444  1  0  -0.828174  0  2.285632  0  0  -0.79162  0  2.546424  0  0  -0.818171  0  2.537439  0  0  -0.431456  -0.773161  0  2.552137  0
O  O73  1  0.86047231  0.54217912  0.44608097  1  0  -0.828356  0  2.285815  0  0  -0.791766  0  2.546485  0  0  -0.818321  0  2.537511  0  0  -0.431587  -0.773303  0  2.552205  0
O  O74  1  0.86047448  0.95781660  0.94607277  1  0  -0.82823  0  2.285625  0  0  -0.791727  0  2.546404  0  0  -0.818279  0  2.53742  0  0  -0.431513  -0.773266  0  2.552121  0
O  O75  1  0.13952142  0.45781185  0.55392370  1  0  -0.828213  0  2.285963  0  0  -0.791663  0  2.546676  0  0  -0.81822  0  2.537701  0  0  -0.431507  -0.773208  0  2.552402  0
O  O76  1  0.21211151  0.27136624  0.96596466  1  0  -0.728451  0  2.116804  0  0  -0.687296  0  2.376014  0  0  -0.712159  0  2.362767  0  0  -0.408856  -0.669851  0  2.384492  0
O  O77  1  0.78788893  0.77136303  0.53403472  1  0  -0.728453  0  2.117323  0  0  -0.687268  0  2.376569  0  0  -0.712132  0  2.363329  0  0  -0.408809  -0.669825  0  2.385043  0
O  O78  1  0.78789666  0.72863712  0.03403896  1  0  -0.728325  0  2.117179  0  0  -0.687186  0  2.376311  0  0  -0.712057  0  2.363073  0  0  -0.408754  -0.669742  0  2.384785  0
O  O79  1  0.21211080  0.22864700  0.46596275  1  0  -0.72826  0  2.117649  0  0  -0.68708  0  2.376869  0  0  -0.711951  0  2.363626  0  0  -0.408751  -0.66964  0  2.385346  0
O  O80  1  0.37785812  0.43238790  0.01956856  1  0  -0.656156  0  2.087392  0  0  -0.573449  0  2.350486  0  0  -0.604851  0  2.335154  0  0  -0.325161  -0.55158  0  2.360533  0
O  O81  1  0.62212559  0.93238661  0.48043284  1  0  -0.65627  0  2.087286  0  0  -0.573543  0  2.35045  0  0  -0.604938  0  2.335109  0  0  -0.325193  -0.551677  0  2.360501  0
O  O82  1  0.62213198  0.56762118  0.98043058  1  0  -0.656023  0  2.087488  0  0  -0.57336  0  2.350546  0  0  -0.604756  0  2.335207  0  0  -0.325103  -0.551494  0  2.360592  0
O  O83  1  0.37786814  0.06760913  0.51956894  1  0  -0.656135  0  2.087414  0  0  -0.573413  0  2.350537  0  0  -0.604815  0  2.335202  0  0  -0.325165  -0.551546  0  2.360583  0
O  O84  1  0.62799560  0.18770219  0.01453756  1  0  -0.742689  0  1.939235  0  0  -0.683259  0  2.181216  0  0  -0.706185  0  2.165292  0  0  -0.344751  -0.667142  0  2.191777  0
O  O85  1  0.37200700  0.68770918  0.48546863  1  0  -0.742667  0  1.938904  0  0  -0.683304  0  2.18095  0  0  -0.706234  0  2.165038  0  0  -0.344797  -0.667181  0  2.191485  0
O  O86  1  0.37201375  0.81229164  0.98545752  1  0  -0.742541  0  1.938935  0  0  -0.683198  0  2.181018  0  0  -0.706131  0  2.165108  0  0  -0.344748  -0.667084  0  2.191549  0
O  O87  1  0.62799277  0.31228274  0.51454115  1  0  -0.742571  0  1.938991  0  0  -0.683206  0  2.181065  0  0  -0.706118  0  2.165114  0  0  -0.344789  -0.667099  0  2.191611  0
O  O88  1  0.82673818  0.34594201  0.09506652  1  0  -0.742601  0  1.976153  0  0  -0.667128  0  2.233783  0  0  -0.691769  0  2.212206  0  0  -0.352028  -0.649738  0  2.248333  0
O  O89  1  0.17323938  0.84594129  0.40493634  1  0  -0.742573  0  1.976101  0  0  -0.667034  0  2.233656  0  0  -0.69167  0  2.212081  0  0  -0.352008  -0.649642  0  2.2482  0
O  O90  1  0.17324348  0.65405944  0.90492649  1  0  -0.742489  0  1.976166  0  0  -0.666983  0  2.233773  0  0  -0.691588  0  2.212174  0  0  -0.351906  -0.649592  0  2.248324  0
O  O91  1  0.82676760  0.15405826  0.59506929  1  0  -0.74256  0  1.976153  0  0  -0.667036  0  2.233729  0  0  -0.691677  0  2.212153  0  0  -0.352014  -0.649647  0  2.248275  0
O  O92  1  0.87976200  0.12101862  0.11925277  1  0  -0.843512  0  2.090386  0  0  -0.780393  0  2.341408  0  0  -0.804411  0  2.325834  0  0  -0.40593  -0.763556  0  2.351861  0
O  O93  1  0.12022964  0.62100453  0.38074775  1  0  -0.843543  0  2.090289  0  0  -0.780458  0  2.34134  0  0  -0.804438  0  2.325735  0  0  -0.405942  -0.7636  0  2.351773  0
O  O94  1  0.12024252  0.87899046  0.88074026  1  0  -0.843521  0  2.090151  0  0  -0.780419  0  2.341204  0  0  -0.804453  0  2.325654  0  0  -0.405999  -0.763571  0  2.351645  0
O  O95  1  0.87976289  0.37899216  0.61925677  1  0  -0.84355  0  2.090204  0  0  -0.780414  0  2.341205  0  0  -0.804435  0  2.325636  0  0  -0.405975  -0.763559  0  2.351638  0
O  O96  1  0.87902168  0.22071968  0.95837988  1  0  -0.811235  0  2.054993  0  0  -0.768892  0  2.328697  0  0  -0.790818  0  2.309713  0  0  -0.415959  -0.753324  0  2.341417  0
O  O97  1  0.12096910  0.72070711  0.54163205  1  0  -0.811145  0  2.05472  0  0  -0.76884  0  2.328484  0  0  -0.790768  0  2.3095  0  0  -0.415886  -0.753274  0  2.341202  0
O  O98  1  0.12098528  0.77929321  0.04162069  1  0  -0.811269  0  2.055304  0  0  -0.768873  0  2.328983  0  0  -0.790797  0  2.310004  0  0  -0.415912  -0.753301  0  2.341694  0
O  O99  1  0.87902585  0.27929529  0.45837566  1  0  -0.811368  0  2.055096  0  0  -0.768997  0  2.328793  0  0  -0.790931  0  2.309818  0  0  -0.41599  -0.753429  0  2.341511  0
O  O100  1  0.90144521  0.93605074  0.27924917  1  0  -0.86891  0  1.852549  0  0  -0.825978  0  2.032555  0  0  -0.844235  0  2.004049  0  0  -0.603351  -0.813111  0  2.052635  0
O  O101  1  0.09856015  0.43605901  0.22074847  1  0  -0.869034  0  1.852366  0  0  -0.826044  0  2.032507  0  0  -0.844304  0  2.004001  0  0  -0.603405  -0.813186  0  2.052582  0
O  O102  1  0.09857498  0.06394880  0.72075018  1  0  -0.868875  0  1.852546  0  0  -0.825874  0  2.032592  0  0  -0.844126  0  2.004093  0  0  -0.603352  -0.813012  0  2.052662  0
O  O103  1  0.90142152  0.56393101  0.77924743  1  0  -0.868622  0  1.852829  0  0  -0.825596  0  2.032845  0  0  -0.843844  0  2.004363  0  0  -0.603237  -0.812727  0  2.052917  0
O  O104  1  0.00582692  0.71324815  0.20246360  1  0  -0.929795  0  1.895981  0  0  -0.900502  0  2.108671  0  0  -0.917663  0  2.077651  0  0  -0.655292  -0.888189  0  2.129999  0
O  O105  1  0.99418533  0.21324872  0.29753729  1  0  -0.929923  0  1.895922  0  0  -0.900635  0  2.108605  0  0  -0.9178  0  2.077564  0  0  -0.655351  -0.888327  0  2.129926  0
O  O106  1  0.99417521  0.28674854  0.79753202  1  0  -0.929897  0  1.895976  0  0  -0.900587  0  2.10868  0  0  -0.917748  0  2.077629  0  0  -0.655295  -0.888269  0  2.13001  0
O  O107  1  0.00580599  0.78674701  0.70246490  1  0  -0.930061  0  1.895939  0  0  -0.90077  0  2.108615  0  0  -0.917935  0  2.077499  0  0  -0.655423  -0.888463  0  2.129943  0
O  O108  1  0.64968245  0.93865441  0.10415742  1  0  -0.897869  0  1.849874  0  0  -0.862218  0  2.030927  0  0  -0.880276  0  2.003198  0  0  -0.625476  -0.849542  0  2.050406  0
O  O109  1  0.35031573  0.43866648  0.39585016  1  0  -0.897617  0  1.850301  0  0  -0.861968  0  2.031275  0  0  -0.880026  0  2.003542  0  0  -0.625384  -0.849293  0  2.050753  0
O  O110  1  0.35032694  0.06133656  0.89584924  1  0  -0.897804  0  1.850126  0  0  -0.862159  0  2.03107  0  0  -0.880209  0  2.003335  0  0  -0.62548  -0.84948  0  2.050546  0
O  O111  1  0.64967198  0.56132068  0.60415375  1  0  -0.897789  0  1.849965  0  0  -0.862107  0  2.031079  0  0  -0.880161  0  2.003349  0  0  -0.625399  -0.849407  0  2.050591  0
