# generated using pymatgen
data_CuH12C19SN3
_symmetry_space_group_name_H-M   'P 1'
_cell_length_a   8.82072954
_cell_length_b   10.81703492
_cell_length_c   15.77891662
_cell_angle_alpha   90.00032668
_cell_angle_beta   90.00032793
_cell_angle_gamma   89.99957350
_symmetry_Int_Tables_number   1
_chemical_formula_structural   CuH12C19SN3
_chemical_formula_sum   'Cu4 H48 C76 S4 N12'
_cell_volume   1505.53175025
_cell_formula_units_Z   4
loop_
 _symmetry_equiv_pos_site_id
 _symmetry_equiv_pos_as_xyz
  1  'x, y, z'
loop_
 _atom_site_type_symbol
 _atom_site_label
 _atom_site_symmetry_multiplicity
 _atom_site_fract_x
 _atom_site_fract_y
 _atom_site_fract_z
 _atom_site_occupancy
 _atom_site_pbe_bader_spin_density
 _atom_site_pbe_cm5_charge
 _atom_site_pbe_ddec_charge
 _atom_site_pbe_ddec_spin_density
 _atom_site_pbe_ddec_sum_bond_order
 _atom_site_pbe_magmom
Cu  Cu0  1  0.76999679  0.43936405  0.24999580  1  0  0.545338  0.380696  0  2.727904  0
Cu  Cu1  1  0.73000262  0.93937388  0.75000253  1  0  0.545372  0.380637  0  2.728058  0
Cu  Cu2  1  0.26999341  0.06062498  0.25000124  1  0  0.545373  0.380745  0  2.728231  0
Cu  Cu3  1  0.23001058  0.56062741  0.75000416  1  0  0.545325  0.380705  0  2.728068  0
H  H4  1  0.12416731  0.79186620  0.18671292  1  0  0.101604  0.112634  0  1.043861  0
H  H5  1  0.37583568  0.29187337  0.81328451  1  0  0.101622  0.112655  0  1.04374  0
H  H6  1  0.62416100  0.70812694  0.31328181  1  0  0.101645  0.112659  0  1.043827  0
H  H7  1  0.87583034  0.20812935  0.68672005  1  0  0.101622  0.112648  0  1.043744  0
H  H8  1  0.87583099  0.20813635  0.81328451  1  0  0.101608  0.112632  0  1.043857  0
H  H9  1  0.62416715  0.70813011  0.18671672  1  0  0.101647  0.112664  0  1.043763  0
H  H10  1  0.37583390  0.29187469  0.68671815  1  0  0.101653  0.11264  0  1.043699  0
H  H11  1  0.12416229  0.79187228  0.31327801  1  0  0.101633  0.112684  0  1.043696  0
H  H12  1  0.10206062  0.79272537  0.03025981  1  0  0.104656  0.104076  0  1.033861  0
H  H13  1  0.39793103  0.29272724  0.96973762  1  0  0.104624  0.103975  0  1.033694  0
H  H14  1  0.60206953  0.70727622  0.46973358  1  0  0.10464  0.103994  0  1.033796  0
H  H15  1  0.89792863  0.20727905  0.53026638  1  0  0.104631  0.103991  0  1.03372  0
H  H16  1  0.89792861  0.20728180  0.96973698  1  0  0.104673  0.104046  0  1.033848  0
H  H17  1  0.60207408  0.70727717  0.03026171  1  0  0.104635  0.103966  0  1.033719  0
H  H18  1  0.39793104  0.29272356  0.53026448  1  0  0.104662  0.10402  0  1.03369  0
H  H19  1  0.10206401  0.79272535  0.46972978  1  0  0.10464  0.104074  0  1.033726  0
H  H20  1  0.97271338  0.71380549  0.89982201  1  0  0.103972  0.112963  0  1.013996  0
H  H21  1  0.52728585  0.21380511  0.10017861  1  0  0.103966  0.112916  0  1.013928  0
H  H22  1  0.47271545  0.78619342  0.60017404  1  0  0.103975  0.112955  0  1.013935  0
H  H23  1  0.02728645  0.28619554  0.39982717  1  0  0.103985  0.112917  0  1.014069  0
H  H24  1  0.02727698  0.28620169  0.10017732  1  0  0.103977  0.112925  0  1.014008  0
H  H25  1  0.47272039  0.78619929  0.89982199  1  0  0.103963  0.112891  0  1.013996  0
H  H26  1  0.52728738  0.21380451  0.39982402  1  0  0.103969  0.112945  0  1.013979  0
H  H27  1  0.97271298  0.71380424  0.60017280  1  0  0.103975  0.1129  0  1.014062  0
H  H28  1  0.78064341  0.57521791  0.83512181  1  0  0.097803  0.104121  0  1.02088  0
H  H29  1  0.71935710  0.07521415  0.16487637  1  0  0.097789  0.104101  0  1.020838  0
H  H30  1  0.28064373  0.92478123  0.66487553  1  0  0.097789  0.104101  0  1.020746  0
H  H31  1  0.21936030  0.42477980  0.33512938  1  0  0.097816  0.104048  0  1.02085  0
H  H32  1  0.21935036  0.42478464  0.16487879  1  0  0.09778  0.10409  0  1.020777  0
H  H33  1  0.28064687  0.92479026  0.83512486  1  0  0.097815  0.104147  0  1.020846  0
H  H34  1  0.71936137  0.07521671  0.33512570  1  0  0.097778  0.104039  0  1.020856  0
H  H35  1  0.78063800  0.57521998  0.66486931  1  0  0.097803  0.104034  0  1.020917  0
H  H36  1  0.63003907  0.43298105  0.92474215  1  0  0.093013  0.090848  0  1.04552  0
H  H37  1  0.86995927  0.93297796  0.07525553  1  0  0.093016  0.090916  0  1.045603  0
H  H38  1  0.13004177  0.06702037  0.57525276  1  0  0.093056  0.090967  0  1.045583  0
H  H39  1  0.36995196  0.56702018  0.42475203  1  0  0.093053  0.090919  0  1.045593  0
H  H40  1  0.36995697  0.56701873  0.07525908  1  0  0.093073  0.090954  0  1.045522  0
H  H41  1  0.13004810  0.06702830  0.92474634  1  0  0.093  0.090857  0  1.045567  0
H  H42  1  0.86995539  0.93297571  0.42474974  1  0  0.093026  0.090897  0  1.045575  0
H  H43  1  0.63004408  0.43298052  0.57524603  1  0  0.093036  0.090924  0  1.045573  0
H  H44  1  0.67091348  0.42617889  0.08181234  1  0  0.096129  0.097919  0  1.055993  0
H  H45  1  0.82908945  0.92618028  0.91818594  1  0  0.096139  0.097958  0  1.05609  0
H  H46  1  0.17091284  0.07381998  0.41818566  1  0  0.096148  0.098005  0  1.056128  0
H  H47  1  0.32908083  0.57382134  0.58181979  1  0  0.096156  0.097995  0  1.056106  0
H  H48  1  0.32908935  0.57381720  0.91818953  1  0  0.096112  0.09789  0  1.056196  0
H  H49  1  0.17091565  0.07382690  0.08181592  1  0  0.096171  0.097979  0  1.056006  0
H  H50  1  0.82908660  0.92617241  0.58181811  1  0  0.096162  0.097937  0  1.056065  0
H  H51  1  0.67091747  0.42617566  0.41817827  1  0  0.096124  0.097954  0  1.056117  0
C  C52  1  0.95501818  0.64665802  0.29683812  1  0  0.11694  0.173299  0  3.979947  0
C  C53  1  0.54498620  0.14665701  0.70315906  1  0  0.116891  0.173155  0  3.980071  0
C  C54  1  0.45501616  0.85334608  0.20315639  1  0  0.116944  0.173201  0  3.980053  0
C  C55  1  0.04498853  0.35334493  0.79684761  1  0  0.116983  0.173288  0  3.980358  0
C  C56  1  0.04498011  0.35333991  0.70315994  1  0  0.11691  0.1733  0  3.979917  0
C  C57  1  0.45500870  0.85334277  0.29684153  1  0  0.116893  0.173323  0  3.98022  0
C  C58  1  0.54499008  0.14665555  0.79684357  1  0  0.116887  0.173239  0  3.980103  0
C  C59  1  0.95501204  0.64664838  0.20315235  1  0  0.116953  0.173164  0  3.980334  0
C  C60  1  0.04586892  0.72917075  0.15536071  1  0  -0.088295  -0.159129  0  3.94696  0
C  C61  1  0.45413351  0.22917309  0.84464345  1  0  -0.088374  -0.159315  0  3.94737  0
C  C62  1  0.54586349  0.77082656  0.34463630  1  0  -0.088384  -0.159426  0  3.94729  0
C  C63  1  0.95413181  0.27083563  0.65535947  1  0  -0.088398  -0.159415  0  3.947734  0
C  C64  1  0.95413051  0.27083180  0.84463799  1  0  -0.088332  -0.159277  0  3.947048  0
C  C65  1  0.54586706  0.77082762  0.15535588  1  0  -0.088443  -0.15943  0  3.947536  0
C  C66  1  0.45413254  0.22916860  0.65535669  1  0  -0.088387  -0.159319  0  3.947556  0
C  C67  1  0.04586536  0.72916692  0.34463923  1  0  -0.088382  -0.159413  0  3.947641  0
C  C68  1  0.03324593  0.73045174  0.06853470  1  0  -0.068382  -0.066878  0  3.946935  0
C  C69  1  0.46674855  0.23045010  0.93145741  1  0  -0.068301  -0.066565  0  3.946915  0
C  C70  1  0.53325161  0.76954842  0.43145910  1  0  -0.06824  -0.066448  0  3.946782  0
C  C71  1  0.96674144  0.26955023  0.56854744  1  0  -0.068319  -0.066515  0  3.946755  0
C  C72  1  0.96674783  0.26954989  0.93146463  1  0  -0.068398  -0.066711  0  3.946632  0
C  C73  1  0.53325201  0.76954876  0.06854382  1  0  -0.06828  -0.066491  0  3.946836  0
C  C74  1  0.46675009  0.23044859  0.56854720  1  0  -0.068366  -0.066577  0  3.94707  0
C  C75  1  0.03325119  0.73045048  0.43144999  1  0  -0.068385  -0.066702  0  3.946942  0
C  C76  1  0.92790565  0.65167684  0.02799961  1  0  -0.004563  0.033459  0  3.996456  0
C  C77  1  0.57208622  0.15167421  0.97199950  1  0  -0.004563  0.033345  0  3.996369  0
C  C78  1  0.42791209  0.84832650  0.47199482  1  0  -0.004656  0.03327  0  3.996525  0
C  C79  1  0.07208811  0.34833311  0.52800473  1  0  -0.004514  0.03329  0  3.996637  0
C  C80  1  0.07208925  0.34833034  0.97199909  1  0  -0.004586  0.033295  0  3.996425  0
C  C81  1  0.42791322  0.84832742  0.02799919  1  0  -0.004554  0.03341  0  3.996494  0
C  C82  1  0.57208734  0.15166866  0.52800324  1  0  -0.00449  0.033386  0  3.996597  0
C  C83  1  0.92791246  0.65166759  0.47199460  1  0  -0.004532  0.033337  0  3.996617  0
C  C84  1  0.90480225  0.65220118  0.93921676  1  0  -0.082457  -0.111656  0  3.947751  0
C  C85  1  0.59519868  0.15219267  0.06078299  1  0  -0.082474  -0.111529  0  3.947859  0
C  C86  1  0.40480222  0.84780739  0.56078161  1  0  -0.082458  -0.111563  0  3.947806  0
C  C87  1  0.09519232  0.34780203  0.43922237  1  0  -0.082499  -0.111546  0  3.94781  0
C  C88  1  0.09519151  0.34780508  0.06078384  1  0  -0.08249  -0.111544  0  3.947678  0
C  C89  1  0.40480302  0.84780896  0.93921951  1  0  -0.082492  -0.11158  0  3.948107  0
C  C90  1  0.59520062  0.15219055  0.43922152  1  0  -0.082508  -0.111623  0  3.948152  0
C  C91  1  0.90480485  0.65219775  0.56077443  1  0  -0.082497  -0.111543  0  3.947998  0
C  C92  1  0.79894383  0.57448411  0.90330713  1  0  -0.088504  -0.074253  0  3.988583  0
C  C93  1  0.70104988  0.07448451  0.09668788  1  0  -0.08848  -0.07427  0  3.988791  0
C  C94  1  0.29895252  0.92551676  0.59668457  1  0  -0.088538  -0.074307  0  3.988941  0
C  C95  1  0.20105604  0.42551509  0.40331655  1  0  -0.088584  -0.074227  0  3.988725  0
C  C96  1  0.20105333  0.42551752  0.09669030  1  0  -0.088476  -0.074264  0  3.988741  0
C  C97  1  0.29894956  0.92551896  0.90331145  1  0  -0.08849  -0.0743  0  3.988699  0
C  C98  1  0.70105258  0.07448302  0.40331476  1  0  -0.088537  -0.074229  0  3.988848  0
C  C99  1  0.79894226  0.57448746  0.59668405  1  0  -0.088518  -0.074173  0  3.98861  0
C  C100  1  0.71367148  0.49289106  0.95463228  1  0  -0.087813  -0.064943  0  3.99817  0
C  C101  1  0.78633084  0.99288729  0.04536689  1  0  -0.087851  -0.065063  0  3.998208  0
C  C102  1  0.21367103  0.00711263  0.54537050  1  0  -0.087838  -0.06502  0  3.998075  0
C  C103  1  0.28632438  0.50710673  0.45463722  1  0  -0.087807  -0.064958  0  3.998268  0
C  C104  1  0.28632795  0.50710872  0.04537085  1  0  -0.087896  -0.065057  0  3.998222  0
C  C105  1  0.21367653  0.00711896  0.95463751  1  0  -0.087796  -0.064937  0  3.998229  0
C  C106  1  0.78632727  0.99288530  0.45463707  1  0  -0.087786  -0.064982  0  3.998207  0
C  C107  1  0.71367392  0.49289028  0.54535767  1  0  -0.087815  -0.064985  0  3.998343  0
C  C108  1  0.73545186  0.48861430  0.04123753  1  0  -0.090697  -0.167215  0  3.9583  0
C  C109  1  0.76454823  0.98861642  0.95875719  1  0  -0.090707  -0.167238  0  3.958347  0
C  C110  1  0.23545221  0.01138695  0.45875243  1  0  -0.09071  -0.16736  0  3.95823  0
C  C111  1  0.26454656  0.51139114  0.54125087  1  0  -0.090752  -0.167371  0  3.95808  0
C  C112  1  0.26455324  0.51138548  0.95875863  1  0  -0.090657  -0.167156  0  3.958202  0
C  C113  1  0.23545687  0.01138983  0.04124151  1  0  -0.090791  -0.167326  0  3.95848  0
C  C114  1  0.76454495  0.98860821  0.54124627  1  0  -0.090778  -0.167258  0  3.958379  0
C  C115  1  0.73545287  0.48861049  0.45875035  1  0  -0.090708  -0.167345  0  3.95848  0
C  C116  1  0.84227166  0.56846505  0.07993633  1  0  0.108868  0.195885  0  3.990725  0
C  C117  1  0.65772664  0.06846239  0.92006055  1  0  0.108921  0.195925  0  3.991033  0
C  C118  1  0.34227453  0.93153511  0.42006099  1  0  0.1089  0.195864  0  3.991089  0
C  C119  1  0.15771243  0.43153424  0.57994395  1  0  0.108784  0.195731  0  3.991426  0
C  C120  1  0.15772891  0.43153196  0.92006363  1  0  0.108926  0.195945  0  3.99081  0
C  C121  1  0.34227279  0.93153739  0.07994131  1  0  0.108841  0.195761  0  3.991232  0
C  C122  1  0.65772603  0.06845913  0.57994404  1  0  0.108817  0.195685  0  3.991409  0
C  C123  1  0.84227907  0.56846184  0.42005347  1  0  0.108795  0.195774  0  3.991386  0
C  C124  1  0.93416804  0.18888641  0.24999621  1  0  0.141221  0.264941  0  4.276044  0
C  C125  1  0.56585409  0.68890000  0.75000621  1  0  0.14107  0.264701  0  4.276364  0
C  C126  1  0.43415441  0.31111087  0.24999692  1  0  0.14112  0.264879  0  4.275716  0
C  C127  1  0.06584273  0.81110875  0.75000312  1  0  0.141078  0.2648  0  4.275621  0
S  S128  1  0.01177331  0.05116567  0.25000144  1  0  -0.184153  -0.350265  0  2.828094  0
S  S129  1  0.48823303  0.55117673  0.75000012  1  0  -0.184153  -0.35027  0  2.827802  0
S  S130  1  0.51176981  0.44882213  0.24999794  1  0  -0.184153  -0.350271  0  2.828221  0
S  S131  1  0.98822952  0.94882579  0.74999916  1  0  -0.184153  -0.350261  0  2.827925  0
N  N132  1  0.85901988  0.56689168  0.33377825  1  0  -0.344763  -0.30095  0  3.564874  0
N  N133  1  0.64098184  0.06689164  0.66622053  1  0  -0.344799  -0.300937  0  3.564985  0
N  N134  1  0.35902354  0.93310929  0.16621660  1  0  -0.344822  -0.301017  0  3.564956  0
N  N135  1  0.14098721  0.43310140  0.83378265  1  0  -0.344953  -0.301287  0  3.56485  0
N  N136  1  0.14098069  0.43310995  0.66621981  1  0  -0.344785  -0.301015  0  3.564829  0
N  N137  1  0.35901533  0.93310352  0.33377943  1  0  -0.344902  -0.301189  0  3.564781  0
N  N138  1  0.64098156  0.06689326  0.83378273  1  0  -0.344892  -0.301196  0  3.564949  0
N  N139  1  0.85902242  0.56689099  0.16621668  1  0  -0.344955  -0.30125  0  3.564817  0
N  N140  1  0.86910495  0.28467349  0.24999629  1  0  -0.437045  -0.454939  0  3.470904  0
N  N141  1  0.63090269  0.78467837  0.75000904  1  0  -0.436902  -0.454655  0  3.47132  0
N  N142  1  0.36908541  0.21531402  0.24999726  1  0  -0.437014  -0.455002  0  3.470514  0
N  N143  1  0.13090468  0.71531890  0.75000494  1  0  -0.436942  -0.45487  0  3.470601  0
