# generated using pymatgen
data_NdH3CSO7
_symmetry_space_group_name_H-M   'P 1'
_cell_length_a   6.96279936
_cell_length_b   6.96243513
_cell_length_c   11.61431228
_cell_angle_alpha   90.00003095
_cell_angle_beta   90.00000282
_cell_angle_gamma   90.00249018
_symmetry_Int_Tables_number   1
_chemical_formula_structural   NdH3CSO7
_chemical_formula_sum   'Nd4 H12 C4 S4 O28'
_cell_volume   563.03908173
_cell_formula_units_Z   4
loop_
 _symmetry_equiv_pos_site_id
 _symmetry_equiv_pos_as_xyz
  1  'x, y, z'
loop_
 _atom_site_type_symbol
 _atom_site_label
 _atom_site_symmetry_multiplicity
 _atom_site_fract_x
 _atom_site_fract_y
 _atom_site_fract_z
 _atom_site_occupancy
 _atom_site_hle17_bader_spin_density
 _atom_site_hle17_ddec_charge
 _atom_site_hle17_ddec_spin_density
 _atom_site_hle17_ddec_sum_bond_order
 _atom_site_hle17_magmom
 _atom_site_hse06_10hf_bader_spin_density
 _atom_site_hse06_10hf_ddec_charge
 _atom_site_hse06_10hf_ddec_spin_density
 _atom_site_hse06_10hf_ddec_sum_bond_order
 _atom_site_hse06_10hf_magmom
 _atom_site_hse06_bader_spin_density
 _atom_site_hse06_ddec_charge
 _atom_site_hse06_ddec_spin_density
 _atom_site_hse06_ddec_sum_bond_order
 _atom_site_hse06_magmom
 _atom_site_pbe_bader_spin_density
 _atom_site_pbe_cm5_charge
 _atom_site_pbe_ddec_charge
 _atom_site_pbe_ddec_spin_density
 _atom_site_pbe_ddec_sum_bond_order
 _atom_site_pbe_magmom
Nd  Nd0  1  0.63875854  0.11293173  0.99533317  1  0  2.398626  0  1.511336  0  0  2.29461  0  1.858969  0  0  2.333368  0  1.818167  0  0  1.51051  2.266133  0  1.887829  0
Nd  Nd1  1  0.36124038  0.88706266  0.49533210  1  0  2.398587  0  1.51135  0  0  2.294601  0  1.858981  0  0  2.333361  0  1.818182  0  0  1.510491  2.266124  0  1.887841  0
Nd  Nd2  1  0.88707811  0.63873007  0.74535462  1  0  2.398543  0  1.512148  0  0  2.29457  0  1.859904  0  0  2.333284  0  1.819094  0  0  1.510754  2.2661  0  1.888762  0
Nd  Nd3  1  0.11292509  0.36127272  0.24535423  1  0  2.398537  0  1.512114  0  0  2.294577  0  1.859853  0  0  2.333284  0  1.819044  0  0  1.510748  2.266109  0  1.888715  0
H  H4  1  0.15473854  0.01946106  0.94869931  1  0  0.039585  0  0.928802  0  0  0.049278  0  0.99249  0  0  0.049968  0  0.988169  0  0  0.135453  0.04847  0  0.995772  0
H  H5  1  0.84526038  0.98055196  0.44870861  1  0  0.039618  0  0.928778  0  0  0.049205  0  0.992582  0  0  0.049987  0  0.988147  0  0  0.135484  0.048398  0  0.995866  0
H  H6  1  0.98050128  0.15463852  0.69862685  1  0  0.039098  0  0.929133  0  0  0.048861  0  0.992805  0  0  0.049518  0  0.988516  0  0  0.135279  0.048088  0  0.996047  0
H  H7  1  0.01950191  0.84536422  0.19862576  1  0  0.039119  0  0.929114  0  0  0.048881  0  0.992777  0  0  0.049537  0  0.988492  0  0  0.135282  0.048109  0  0.99602  0
H  H8  1  0.46795520  0.38221734  0.81802612  1  0  0.447025  0  0.851544  0  0  0.417017  0  0.913221  0  0  0.427216  0  0.898339  0  0  0.30831  0.409802  0  0.923754  0
H  H9  1  0.53204513  0.61777690  0.31802840  1  0  0.447003  0  0.851571  0  0  0.41704  0  0.913151  0  0  0.427233  0  0.898284  0  0  0.308356  0.409828  0  0.923681  0
H  H10  1  0.61766407  0.46791320  0.56804749  1  0  0.447273  0  0.851157  0  0  0.417276  0  0.912833  0  0  0.427494  0  0.897922  0  0  0.308438  0.410064  0  0.923363  0
H  H11  1  0.38233910  0.53209230  0.06805147  1  0  0.447233  0  0.851229  0  0  0.417232  0  0.912913  0  0  0.427447  0  0.898005  0  0  0.308434  0.41002  0  0.923443  0
H  H12  1  0.40590397  0.18206329  0.76770972  1  0  0.459967  0  0.812502  0  0  0.433865  0  0.871524  0  0  0.443119  0  0.857945  0  0  0.318978  0.427242  0  0.881266  0
H  H13  1  0.59409492  0.81793090  0.26771379  1  0  0.460045  0  0.812481  0  0  0.433941  0  0.871448  0  0  0.443196  0  0.857867  0  0  0.318992  0.427317  0  0.88119  0
H  H14  1  0.81782790  0.40594784  0.51773283  1  0  0.459962  0  0.812888  0  0  0.433887  0  0.871578  0  0  0.443133  0  0.858016  0  0  0.319002  0.427267  0  0.881315  0
H  H15  1  0.18218388  0.59405906  0.01773511  1  0  0.459946  0  0.812948  0  0  0.433863  0  0.871632  0  0  0.443108  0  0.858071  0  0  0.318994  0.427244  0  0.881367  0
C  C16  1  0.14752766  0.10264834  0.02914251  1  0  0.634155  0  3.841814  0  0  0.565258  0  4.153857  0  0  0.599863  0  4.140203  0  0  0.170311  0.541856  0  4.162785  0
C  C17  1  0.85246688  0.89736000  0.52914814  1  0  0.634034  0  3.841738  0  0  0.565205  0  4.153752  0  0  0.599759  0  4.1401  0  0  0.170278  0.541801  0  4.162683  0
C  C18  1  0.89741242  0.14743668  0.77910083  1  0  0.635053  0  3.841399  0  0  0.566155  0  4.1533  0  0  0.600785  0  4.139638  0  0  0.170804  0.54273  0  4.162236  0
C  C19  1  0.10259365  0.85256613  0.27909889  1  0  0.635068  0  3.841562  0  0  0.566179  0  4.153445  0  0  0.600806  0  4.139797  0  0  0.170809  0.542755  0  4.162382  0
S  S20  1  0.75177996  0.61548495  0.05687820  1  0  1.697323  0  5.758443  0  0  1.571567  0  6.30628  0  0  1.628685  0  6.264481  0  0  0.621509  1.531873  0  6.334445  0
S  S21  1  0.24821459  0.38451049  0.55687936  1  0  1.697262  0  5.758628  0  0  1.57152  0  6.306437  0  0  1.628641  0  6.264635  0  0  0.621455  1.531826  0  6.334599  0
S  S22  1  0.38446232  0.75159203  0.80679693  1  0  1.697988  0  5.758577  0  0  1.572082  0  6.306563  0  0  1.629148  0  6.264774  0  0  0.621529  1.532397  0  6.334717  0
S  S23  1  0.61553514  0.24840363  0.30679393  1  0  1.69782  0  5.759012  0  0  1.5719  0  6.306999  0  0  1.628971  0  6.265227  0  0  0.621372  1.532211  0  6.335161  0
O  O24  1  0.98364504  0.15220238  0.06892189  1  0  -0.767471  0  2.104317  0  0  -0.72243  0  2.375452  0  0  -0.746589  0  2.362716  0  0  -0.395797  -0.705532  0  2.383714  0
O  O25  1  0.01634521  0.84780025  0.56892750  1  0  -0.767395  0  2.104161  0  0  -0.722342  0  2.375258  0  0  -0.746495  0  2.362542  0  0  -0.395822  -0.705446  0  2.38352  0
O  O26  1  0.84791313  0.98347788  0.81886053  1  0  -0.768093  0  2.103653  0  0  -0.723067  0  2.37476  0  0  -0.747236  0  2.362014  0  0  -0.396194  -0.706186  0  2.383081  0
O  O27  1  0.15209869  0.01652066  0.31885659  1  0  -0.76805  0  2.103839  0  0  -0.723044  0  2.374977  0  0  -0.747203  0  2.362208  0  0  -0.396188  -0.706162  0  2.383298  0
O  O28  1  0.87032954  0.65848151  0.95442253  1  0  -0.82861  0  2.072161  0  0  -0.783348  0  2.361088  0  0  -0.803281  0  2.339659  0  0  -0.413063  -0.769167  0  2.375483  0
O  O29  1  0.12966794  0.34151859  0.45442386  1  0  -0.828588  0  2.07225  0  0  -0.783324  0  2.361179  0  0  -0.803258  0  2.339752  0  0  -0.413025  -0.769144  0  2.375575  0
O  O30  1  0.34132419  0.87007689  0.70431133  1  0  -0.828687  0  2.071051  0  0  -0.783466  0  2.360199  0  0  -0.803415  0  2.338802  0  0  -0.413425  -0.769275  0  2.374584  0
O  O31  1  0.65866608  0.12991581  0.20430915  1  0  -0.828692  0  2.071189  0  0  -0.783468  0  2.360398  0  0  -0.803394  0  2.33894  0  0  -0.413445  -0.769277  0  2.374786  0
O  O32  1  0.87370351  0.54358321  0.15102410  1  0  -0.835992  0  2.126437  0  0  -0.786337  0  2.414886  0  0  -0.808516  0  2.39573  0  0  -0.441506  -0.770664  0  2.427732  0
O  O33  1  0.12629824  0.45641519  0.65102700  1  0  -0.83594  0  2.126416  0  0  -0.78632  0  2.414929  0  0  -0.808505  0  2.39579  0  0  -0.441505  -0.770648  0  2.42777  0
O  O34  1  0.45624501  0.87366874  0.90090325  1  0  -0.83627  0  2.126621  0  0  -0.786283  0  2.414452  0  0  -0.808451  0  2.3953  0  0  -0.441031  -0.770627  0  2.427333  0
O  O35  1  0.54375246  0.12632988  0.40090366  1  0  -0.836218  0  2.126671  0  0  -0.786239  0  2.414517  0  0  -0.808424  0  2.395384  0  0  -0.44101  -0.770585  0  2.427399  0
O  O36  1  0.65539731  0.79335742  0.09674112  1  0  -0.792735  0  2.000572  0  0  -0.739974  0  2.26654  0  0  -0.76084  0  2.246704  0  0  -0.395381  -0.725137  0  2.279932  0
O  O37  1  0.34459869  0.20664236  0.59674049  1  0  -0.792713  0  2.000591  0  0  -0.739967  0  2.266578  0  0  -0.760828  0  2.246741  0  0  -0.395383  -0.725132  0  2.279969  0
O  O38  1  0.20671275  0.65495676  0.84662708  1  0  -0.79277  0  2.001296  0  0  -0.739674  0  2.266729  0  0  -0.76051  0  2.246919  0  0  -0.395377  -0.724875  0  2.280136  0
O  O39  1  0.79328902  0.34503176  0.34661981  1  0  -0.792758  0  2.001487  0  0  -0.739662  0  2.266928  0  0  -0.760513  0  2.247129  0  0  -0.395284  -0.724861  0  2.280339  0
O  O40  1  0.60595315  0.46434212  0.02749719  1  0  -0.823072  0  2.027539  0  0  -0.763971  0  2.292633  0  0  -0.784913  0  2.272524  0  0  -0.39808  -0.749232  0  2.30637  0
O  O41  1  0.39404858  0.53565330  0.52749667  1  0  -0.823079  0  2.027501  0  0  -0.763988  0  2.292611  0  0  -0.78494  0  2.272508  0  0  -0.398058  -0.749256  0  2.306355  0
O  O42  1  0.53574170  0.60586181  0.77745982  1  0  -0.823439  0  2.027609  0  0  -0.764506  0  2.293195  0  0  -0.785282  0  2.272957  0  0  -0.398315  -0.74976  0  2.306927  0
O  O43  1  0.46425863  0.39413526  0.27745773  1  0  -0.823269  0  2.027622  0  0  -0.764389  0  2.293312  0  0  -0.785135  0  2.273002  0  0  -0.398261  -0.749633  0  2.307037  0
O  O44  1  0.30157726  0.14479502  0.08160623  1  0  -0.720003  0  2.09495  0  0  -0.670427  0  2.350662  0  0  -0.694969  0  2.340481  0  0  -0.373969  -0.653321  0  2.357169  0
O  O45  1  0.69840725  0.85521049  0.58161099  1  0  -0.719941  0  2.094957  0  0  -0.670392  0  2.350688  0  0  -0.694937  0  2.340545  0  0  -0.373944  -0.653284  0  2.357193  0
O  O46  1  0.85532638  0.30141353  0.83163776  1  0  -0.719915  0  2.094995  0  0  -0.670439  0  2.35079  0  0  -0.694982  0  2.340634  0  0  -0.373927  -0.653316  0  2.357251  0
O  O47  1  0.14467539  0.69858790  0.33163663  1  0  -0.720004  0  2.09503  0  0  -0.670534  0  2.350834  0  0  -0.695079  0  2.340671  0  0  -0.37395  -0.65341  0  2.357299  0
O  O48  1  0.44079221  0.24705571  0.83976393  1  0  -0.908625  0  1.848112  0  0  -0.865039  0  2.04114  0  0  -0.883099  0  2.011534  0  0  -0.647365  -0.852251  0  2.061868  0
O  O49  1  0.55921100  0.75293567  0.33976626  1  0  -0.908688  0  1.848172  0  0  -0.865116  0  2.041156  0  0  -0.883184  0  2.011554  0  0  -0.647423  -0.85233  0  2.061888  0
O  O50  1  0.75280309  0.44066132  0.58980340  1  0  -0.908961  0  1.848002  0  0  -0.865445  0  2.04085  0  0  -0.8835  0  2.01122  0  0  -0.647438  -0.85266  0  2.061571  0
O  O51  1  0.24720152  0.55934277  0.08980222  1  0  -0.908892  0  1.848089  0  0  -0.865379  0  2.040929  0  0  -0.883435  0  2.011299  0  0  -0.647408  -0.852595  0  2.061653  0
