# generated using pymatgen
data_CuH8C10IN2
_symmetry_space_group_name_H-M   'P 1'
_cell_length_a   9.45201658
_cell_length_b   9.49618656
_cell_length_c   12.16945435
_cell_angle_alpha   90.00014897
_cell_angle_beta   111.87706538
_cell_angle_gamma   89.99986511
_symmetry_Int_Tables_number   1
_chemical_formula_structural   CuH8C10IN2
_chemical_formula_sum   'Cu4 H32 C40 I4 N8'
_cell_volume   1013.64527471
_cell_formula_units_Z   4
loop_
 _symmetry_equiv_pos_site_id
 _symmetry_equiv_pos_as_xyz
  1  'x, y, z'
loop_
 _atom_site_type_symbol
 _atom_site_label
 _atom_site_symmetry_multiplicity
 _atom_site_fract_x
 _atom_site_fract_y
 _atom_site_fract_z
 _atom_site_occupancy
 _atom_site_hle17_bader_spin_density
 _atom_site_hle17_ddec_charge
 _atom_site_hle17_ddec_spin_density
 _atom_site_hle17_ddec_sum_bond_order
 _atom_site_hle17_magmom
 _atom_site_hse06_10hf_bader_spin_density
 _atom_site_hse06_10hf_ddec_charge
 _atom_site_hse06_10hf_ddec_spin_density
 _atom_site_hse06_10hf_ddec_sum_bond_order
 _atom_site_hse06_10hf_magmom
 _atom_site_hse06_bader_spin_density
 _atom_site_hse06_ddec_charge
 _atom_site_hse06_ddec_spin_density
 _atom_site_hse06_ddec_sum_bond_order
 _atom_site_hse06_magmom
 _atom_site_pbe_bader_spin_density
 _atom_site_pbe_cm5_charge
 _atom_site_pbe_ddec_charge
 _atom_site_pbe_ddec_spin_density
 _atom_site_pbe_ddec_sum_bond_order
 _atom_site_pbe_magmom
Cu  Cu0  1  0.43622730  0.12675328  0.48338493  1  0  0.3073  0  2.090169  0  0  0.204529  0  2.574651  0  0  0.209523  0  2.52585  0  0  0.363915  0.203917  0  2.604878  0
Cu  Cu1  1  0.06377380  0.62675681  0.01661584  1  0  0.307276  0  2.090141  0  0  0.204469  0  2.57464  0  0  0.209448  0  2.525858  0  0  0.363929  0.203863  0  2.604964  0
Cu  Cu2  1  0.56377532  0.87324126  0.51661621  1  0  0.307318  0  2.090107  0  0  0.204521  0  2.574605  0  0  0.209487  0  2.525827  0  0  0.363947  0.203908  0  2.604925  0
Cu  Cu3  1  0.93622769  0.37324615  0.98338497  1  0  0.307323  0  2.090145  0  0  0.204559  0  2.574628  0  0  0.209618  0  2.52583  0  0  0.363951  0.203957  0  2.60492  0
H  H4  1  0.37037392  0.28815245  0.86468409  1  0  0.092994  0  0.973718  0  0  0.103503  0  1.034944  0  0  0.105244  0  1.03649  0  0  0.100552  0.102341  0  1.033707  0
H  H5  1  0.12962711  0.78815306  0.63531230  1  0  0.093073  0  0.97364  0  0  0.103523  0  1.034925  0  0  0.105263  0  1.036472  0  0  0.100568  0.102366  0  1.033688  0
H  H6  1  0.62962528  0.71184735  0.13531360  1  0  0.09308  0  0.973678  0  0  0.103568  0  1.034919  0  0  0.105308  0  1.036465  0  0  0.100584  0.102408  0  1.033682  0
H  H7  1  0.87037437  0.21184569  0.36468358  1  0  0.093031  0  0.973651  0  0  0.103469  0  1.034958  0  0  0.105209  0  1.036506  0  0  0.100555  0.102307  0  1.033717  0
H  H8  1  0.46303866  0.19271619  0.25689086  1  0  0.069563  0  0.99276  0  0  0.074081  0  1.067997  0  0  0.077277  0  1.064977  0  0  0.093431  0.071609  0  1.070453  0
H  H9  1  0.03695663  0.69271737  0.24310672  1  0  0.069557  0  0.99274  0  0  0.074073  0  1.067989  0  0  0.07727  0  1.064964  0  0  0.093431  0.071599  0  1.070442  0
H  H10  1  0.53695940  0.80728466  0.74310896  1  0  0.069543  0  0.992765  0  0  0.074063  0  1.067997  0  0  0.077259  0  1.064978  0  0  0.093421  0.07159  0  1.070454  0
H  H11  1  0.96304029  0.30728348  0.75689277  1  0  0.069561  0  0.992748  0  0  0.074075  0  1.067988  0  0  0.077271  0  1.064972  0  0  0.093444  0.071602  0  1.070443  0
H  H12  1  0.36490182  0.31574117  0.06850743  1  0  0.101557  0  0.965666  0  0  0.109451  0  1.032995  0  0  0.112335  0  1.031306  0  0  0.098047  0.106287  0  1.035732  0
H  H13  1  0.13509669  0.81574379  0.43148887  1  0  0.101545  0  0.965646  0  0  0.109433  0  1.032992  0  0  0.112321  0  1.031298  0  0  0.098054  0.106267  0  1.035725  0
H  H14  1  0.63509738  0.68425863  0.93149026  1  0  0.101569  0  0.965642  0  0  0.10946  0  1.032975  0  0  0.112345  0  1.031284  0  0  0.098071  0.106298  0  1.035708  0
H  H15  1  0.86490137  0.18425706  0.56850684  1  0  0.101543  0  0.965662  0  0  0.109437  0  1.032997  0  0  0.112321  0  1.031307  0  0  0.098052  0.106277  0  1.035729  0
H  H16  1  0.76979728  0.54766895  0.31887289  1  0  0.09485  0  0.946569  0  0  0.106911  0  1.006554  0  0  0.109511  0  1.004911  0  0  0.103698  0.104496  0  1.008755  0
H  H17  1  0.73020607  0.04767333  0.18112583  1  0  0.094826  0  0.946592  0  0  0.106925  0  1.006544  0  0  0.109501  0  1.004928  0  0  0.103701  0.104503  0  1.00875  0
H  H18  1  0.23020535  0.45232769  0.68112742  1  0  0.094848  0  0.946558  0  0  0.106944  0  1.006518  0  0  0.109522  0  1.004901  0  0  0.103705  0.104523  0  1.008726  0
H  H19  1  0.26979313  0.95232542  0.81887186  1  0  0.094816  0  0.946585  0  0  0.106916  0  1.006539  0  0  0.109492  0  1.004924  0  0  0.103693  0.104496  0  1.008745  0
H  H20  1  0.85184612  0.38643551  0.19434831  1  0  0.067989  0  0.988519  0  0  0.073615  0  1.063036  0  0  0.076569  0  1.060648  0  0  0.095437  0.07013  0  1.066542  0
H  H21  1  0.64815325  0.88643980  0.30565243  1  0  0.068019  0  0.988472  0  0  0.073656  0  1.062978  0  0  0.076595  0  1.060609  0  0  0.095467  0.070171  0  1.066498  0
H  H22  1  0.14815308  0.61356113  0.80565349  1  0  0.068028  0  0.988484  0  0  0.073676  0  1.062978  0  0  0.076618  0  1.060605  0  0  0.095473  0.070195  0  1.066493  0
H  H23  1  0.35184596  0.11356316  0.69434854  1  0  0.068039  0  0.988421  0  0  0.073672  0  1.062936  0  0  0.076617  0  1.060557  0  0  0.095477  0.070187  0  1.066445  0
H  H24  1  0.61691445  0.32013654  0.83599538  1  0  0.07303  0  0.971582  0  0  0.075871  0  1.048563  0  0  0.079758  0  1.044567  0  0  0.095606  0.072308  0  1.052473  0
H  H25  1  0.88308864  0.82013455  0.66400326  1  0  0.073042  0  0.971649  0  0  0.075889  0  1.048626  0  0  0.079779  0  1.044627  0  0  0.095609  0.072329  0  1.052542  0
H  H26  1  0.38308704  0.67986642  0.16400379  1  0  0.073051  0  0.971615  0  0  0.075905  0  1.048588  0  0  0.079797  0  1.044588  0  0  0.095612  0.072342  0  1.052504  0
H  H27  1  0.11691626  0.17986420  0.33599690  1  0  0.073031  0  0.97162  0  0  0.075885  0  1.04859  0  0  0.079774  0  1.044592  0  0  0.095601  0.07232  0  1.052494  0
H  H28  1  0.62739964  0.37665249  0.58958802  1  0  0.072068  0  0.96747  0  0  0.075372  0  1.042879  0  0  0.078779  0  1.039945  0  0  0.097094  0.072318  0  1.046003  0
H  H29  1  0.87260108  0.87665344  0.91041087  1  0  0.072083  0  0.967515  0  0  0.075382  0  1.042924  0  0  0.078789  0  1.039988  0  0  0.097086  0.072329  0  1.046057  0
H  H30  1  0.37260070  0.62334836  0.41041246  1  0  0.072116  0  0.967488  0  0  0.075414  0  1.042902  0  0  0.078821  0  1.039966  0  0  0.097111  0.072361  0  1.046031  0
H  H31  1  0.12740155  0.12334846  0.08958863  1  0  0.072075  0  0.967407  0  0  0.075362  0  1.042851  0  0  0.078769  0  1.039916  0  0  0.097072  0.07231  0  1.045974  0
H  H32  1  0.77438928  0.55470896  0.52739173  1  0  0.100566  0  0.974484  0  0  0.107547  0  1.040288  0  0  0.110481  0  1.040345  0  0  0.095617  0.105809  0  1.039728  0
H  H33  1  0.72561082  0.05471009  0.97260714  1  0  0.10054  0  0.974563  0  0  0.107518  0  1.040368  0  0  0.110453  0  1.040427  0  0  0.095636  0.105784  0  1.039809  0
H  H34  1  0.22561220  0.44529084  0.47260826  1  0  0.100577  0  0.974454  0  0  0.107551  0  1.040273  0  0  0.110487  0  1.040331  0  0  0.095635  0.105816  0  1.039708  0
H  H35  1  0.27438610  0.94528866  0.02739071  1  0  0.100547  0  0.974502  0  0  0.107534  0  1.040301  0  0  0.110468  0  1.04036  0  0  0.095631  0.105802  0  1.039743  0
C  C36  1  0.47421995  0.31036769  0.94040379  1  0  -0.113006  0  3.75958  0  0  -0.120697  0  4.004109  0  0  -0.128114  0  4.027255  0  0  -0.088705  -0.115935  0  3.988142  0
C  C37  1  0.02578104  0.81036723  0.55959592  1  0  -0.113065  0  3.759509  0  0  -0.120691  0  4.00406  0  0  -0.128109  0  4.02721  0  0  -0.088684  -0.115932  0  3.9881  0
C  C38  1  0.52578153  0.68963316  0.05959702  1  0  -0.1131  0  3.759642  0  0  -0.120779  0  4.004213  0  0  -0.128198  0  4.027365  0  0  -0.088719  -0.116018  0  3.98825  0
C  C39  1  0.97421930  0.18963046  0.44040456  1  0  -0.112984  0  3.759531  0  0  -0.120605  0  4.004093  0  0  -0.12802  0  4.027241  0  0  -0.088643  -0.115848  0  3.988108  0
C  C40  1  0.61471398  0.36953860  0.27039628  1  0  -0.0041  0  3.812957  0  0  0.015055  0  4.043919  0  0  0.01057  0  4.068775  0  0  -0.010755  0.018551  0  4.025989  0
C  C41  1  0.88528655  0.86954209  0.22960394  1  0  -0.004158  0  3.812853  0  0  0.014979  0  4.043867  0  0  0.010492  0  4.068713  0  0  -0.010817  0.018469  0  4.025947  0
C  C42  1  0.38528636  0.63046015  0.72960420  1  0  -0.004111  0  3.812869  0  0  0.015095  0  4.043802  0  0  0.01061  0  4.06865  0  0  -0.010769  0.018585  0  4.025898  0
C  C43  1  0.11471265  0.13045982  0.77039539  1  0  -0.004119  0  3.812878  0  0  0.015035  0  4.043869  0  0  0.010549  0  4.068713  0  0  -0.010712  0.018532  0  4.025949  0
C  C44  1  0.60828704  0.35390582  0.14812170  1  0  0.000335  0  3.809498  0  0  0.019015  0  4.040507  0  0  0.014208  0  4.06635  0  0  -0.008706  0.021532  0  4.022669  0
C  C45  1  0.89171580  0.85390653  0.35187915  1  0  0.000293  0  3.809389  0  0  0.018958  0  4.040441  0  0  0.014149  0  4.066285  0  0  -0.008705  0.021477  0  4.022605  0
C  C46  1  0.39171444  0.64609714  0.85187993  1  0  0.000314  0  3.809398  0  0  0.018941  0  4.040459  0  0  0.014134  0  4.0663  0  0  -0.008722  0.021465  0  4.022632  0
C  C47  1  0.10828454  0.14609537  0.64812051  1  0  0.0003  0  3.809416  0  0  0.018973  0  4.040454  0  0  0.014166  0  4.066293  0  0  -0.008724  0.021485  0  4.022612  0
C  C48  1  0.53257886  0.27611389  0.31311713  1  0  0.077156  0  3.673181  0  0  0.042403  0  3.916841  0  0  0.049249  0  3.931502  0  0  0.033588  0.03828  0  3.906834  0
C  C49  1  0.96741955  0.77611600  0.18688310  1  0  0.077245  0  3.673129  0  0  0.042471  0  3.916774  0  0  0.049319  0  3.931443  0  0  0.033608  0.038358  0  3.906774  0
C  C50  1  0.46742035  0.72388696  0.68688384  1  0  0.077168  0  3.673149  0  0  0.042387  0  3.916795  0  0  0.049237  0  3.931453  0  0  0.033569  0.038265  0  3.906809  0
C  C51  1  0.03257965  0.22388591  0.81311705  1  0  0.077236  0  3.673076  0  0  0.042496  0  3.916722  0  0  0.049336  0  3.931404  0  0  0.033601  0.038375  0  3.906724  0
C  C52  1  0.47144890  0.32357680  0.05348405  1  0  -0.05184  0  3.682316  0  0  -0.076583  0  3.92474  0  0  -0.072751  0  3.943076  0  0  -0.071421  -0.078312  0  3.912505  0
C  C53  1  0.02855302  0.82357761  0.44651736  1  0  -0.051816  0  3.682308  0  0  -0.076559  0  3.924733  0  0  -0.072728  0  3.943066  0  0  -0.071441  -0.078286  0  3.912496  0
C  C54  1  0.52855259  0.67642510  0.94651840  1  0  -0.051788  0  3.682261  0  0  -0.076506  0  3.924684  0  0  -0.072674  0  3.943019  0  0  -0.071415  -0.078238  0  3.912451  0
C  C55  1  0.97144732  0.17642219  0.55348313  1  0  -0.05179  0  3.682333  0  0  -0.076537  0  3.92475  0  0  -0.072704  0  3.943085  0  0  -0.071428  -0.078267  0  3.912502  0
C  C56  1  0.70428669  0.47228513  0.34833447  1  0  -0.061747  0  3.699094  0  0  -0.085804  0  3.942179  0  0  -0.081497  0  3.958635  0  0  -0.074031  -0.088787  0  3.930802  0
C  C57  1  0.79571595  0.97228962  0.15166493  1  0  -0.061777  0  3.69915  0  0  -0.08587  0  3.942261  0  0  -0.081542  0  3.958719  0  0  -0.07407  -0.088842  0  3.930888  0
C  C58  1  0.29571593  0.52771151  0.65166585  1  0  -0.061837  0  3.699125  0  0  -0.085946  0  3.942223  0  0  -0.081622  0  3.958685  0  0  -0.074087  -0.088921  0  3.930858  0
C  C59  1  0.20428439  0.02771018  0.84833391  1  0  -0.06177  0  3.699107  0  0  -0.08587  0  3.942219  0  0  -0.081546  0  3.958682  0  0  -0.074087  -0.088845  0  3.930854  0
C  C60  1  0.74129699  0.36650331  0.12381916  1  0  0.063769  0  3.672037  0  0  0.027618  0  3.919405  0  0  0.033614  0  3.93505  0  0  0.033924  0.025001  0  3.908462  0
C  C61  1  0.75870241  0.86650547  0.37617908  1  0  0.063799  0  3.671844  0  0  0.027675  0  3.919168  0  0  0.033683  0  3.934822  0  0  0.03393  0.025063  0  3.908244  0
C  C62  1  0.25870221  0.63349754  0.87618017  1  0  0.063753  0  3.671927  0  0  0.027588  0  3.919319  0  0  0.033594  0  3.934975  0  0  0.033902  0.02497  0  3.908394  0
C  C63  1  0.24129793  0.13349644  0.62381976  1  0  0.063762  0  3.671795  0  0  0.027614  0  3.919152  0  0  0.033622  0  3.934804  0  0  0.033905  0.024999  0  3.908212  0
C  C64  1  0.61090156  0.32771236  0.92357870  1  0  0.108845  0  3.695759  0  0  0.077707  0  3.945918  0  0  0.084704  0  3.96084  0  0  0.0313  0.073  0  3.936173  0
C  C65  1  0.88909810  0.82771428  0.57642061  1  0  0.108814  0  3.69577  0  0  0.077656  0  3.945931  0  0  0.084655  0  3.960844  0  0  0.031269  0.072952  0  3.9362  0
C  C66  1  0.38909993  0.67228954  0.07642212  1  0  0.108793  0  3.69569  0  0  0.077631  0  3.945861  0  0  0.084626  0  3.96078  0  0  0.031248  0.072927  0  3.936125  0
C  C67  1  0.11090110  0.17228867  0.42357790  1  0  0.108765  0  3.695734  0  0  0.077599  0  3.945911  0  0  0.084597  0  3.960828  0  0  0.03123  0.072901  0  3.936145  0
C  C68  1  0.62402245  0.37815927  0.49902992  1  0  0.111316  0  3.692219  0  0  0.081496  0  3.940498  0  0  0.08827  0  3.956317  0  0  0.032146  0.077218  0  3.930032  0
C  C69  1  0.87597579  0.87816203  0.00096801  1  0  0.111261  0  3.692193  0  0  0.081424  0  3.940455  0  0  0.088196  0  3.956271  0  0  0.032144  0.077145  0  3.930006  0
C  C70  1  0.37597676  0.62184053  0.50096941  1  0  0.111244  0  3.69226  0  0  0.081414  0  3.94052  0  0  0.088187  0  3.956338  0  0  0.032132  0.077137  0  3.930069  0
C  C71  1  0.12402341  0.12184093  0.99903050  1  0  0.111269  0  3.692211  0  0  0.081462  0  3.940472  0  0  0.088233  0  3.956294  0  0  0.032148  0.077183  0  3.930015  0
C  C72  1  0.70746899  0.47663864  0.46366736  1  0  -0.108599  0  3.745865  0  0  -0.117962  0  3.99392  0  0  -0.124597  0  4.014478  0  0  -0.089106  -0.113592  0  3.979085  0
C  C73  1  0.79253251  0.97664171  0.03633254  1  0  -0.108461  0  3.746073  0  0  -0.117823  0  3.99411  0  0  -0.124458  0  4.014663  0  0  -0.08909  -0.113455  0  3.979281  0
C  C74  1  0.29253477  0.52336115  0.53633329  1  0  -0.108494  0  3.745887  0  0  -0.117847  0  3.993928  0  0  -0.124483  0  4.014483  0  0  -0.089075  -0.113481  0  3.979102  0
C  C75  1  0.20746669  0.02335914  0.96366597  1  0  -0.108513  0  3.746  0  0  -0.117879  0  3.994054  0  0  -0.124513  0  4.014607  0  0  -0.089083  -0.113505  0  3.97922  0
I  I76  1  0.65418311  0.06499068  0.69307011  1  0  -0.477217  0  1.366613  0  0  -0.421058  0  1.770171  0  0  -0.440188  0  1.737451  0  0  -0.205587  -0.406053  0  1.795141  0
I  I77  1  0.84581698  0.56499136  0.80692960  1  0  -0.477221  0  1.366605  0  0  -0.421066  0  1.77017  0  0  -0.440214  0  1.73746  0  0  -0.205592  -0.406066  0  1.79516  0
I  I78  1  0.34581724  0.93500596  0.30693038  1  0  -0.477235  0  1.366637  0  0  -0.421075  0  1.770206  0  0  -0.440205  0  1.737483  0  0  -0.205591  -0.406075  0  1.795176  0
I  I79  1  0.15418336  0.43500950  0.19307170  1  0  -0.477208  0  1.366591  0  0  -0.421048  0  1.770156  0  0  -0.440199  0  1.737449  0  0  -0.205582  -0.40605  0  1.795139  0
N  N80  1  0.53822017  0.27778632  0.42531652  1  0  -0.262012  0  3.377462  0  0  -0.186362  0  3.665712  0  0  -0.196766  0  3.673126  0  0  -0.363171  -0.180234  0  3.660216  0
N  N81  1  0.96177823  0.77778807  0.07468208  1  0  -0.262038  0  3.377283  0  0  -0.186311  0  3.665456  0  0  -0.196711  0  3.672863  0  0  -0.363122  -0.180192  0  3.660016  0
N  N82  1  0.46177789  0.72221242  0.57468331  1  0  -0.261979  0  3.377347  0  0  -0.186285  0  3.665554  0  0  -0.196686  0  3.672963  0  0  -0.363125  -0.180162  0  3.660112  0
N  N83  1  0.03822211  0.22221489  0.92531840  1  0  -0.262032  0  3.377413  0  0  -0.186397  0  3.665677  0  0  -0.19681  0  3.673117  0  0  -0.363175  -0.180266  0  3.660211  0
N  N84  1  0.74387729  0.35407814  0.01433044  1  0  -0.262842  0  3.393506  0  0  -0.185722  0  3.681485  0  0  -0.196197  0  3.689074  0  0  -0.362902  -0.179899  0  3.675577  0
N  N85  1  0.75612441  0.85407961  0.48566926  1  0  -0.262879  0  3.393507  0  0  -0.185768  0  3.68151  0  0  -0.196224  0  3.689053  0  0  -0.36293  -0.179963  0  3.675639  0
N  N86  1  0.25612419  0.64592271  0.98567037  1  0  -0.262836  0  3.393387  0  0  -0.185696  0  3.681366  0  0  -0.196153  0  3.688915  0  0  -0.36289  -0.179876  0  3.675481  0
N  N87  1  0.24387707  0.14592019  0.51433073  1  0  -0.262836  0  3.393443  0  0  -0.185706  0  3.681434  0  0  -0.196172  0  3.688994  0  0  -0.362901  -0.179891  0  3.675499  0
