# generated using pymatgen
data_CoH6C6(NO3)2
_symmetry_space_group_name_H-M   'P 1'
_cell_length_a   6.92510330
_cell_length_b   7.17007626
_cell_length_c   9.31069469
_cell_angle_alpha   81.39894001
_cell_angle_beta   72.37133811
_cell_angle_gamma   66.98424967
_symmetry_Int_Tables_number   1
_chemical_formula_structural   CoH6C6(NO3)2
_chemical_formula_sum   'Co2 H12 C12 N4 O12'
_cell_volume   405.26992601
_cell_formula_units_Z   2
loop_
 _symmetry_equiv_pos_site_id
 _symmetry_equiv_pos_as_xyz
  1  'x, y, z'
loop_
 _atom_site_type_symbol
 _atom_site_label
 _atom_site_symmetry_multiplicity
 _atom_site_fract_x
 _atom_site_fract_y
 _atom_site_fract_z
 _atom_site_occupancy
 _atom_site_pbe_cm5_charge
 _atom_site_pbe_ddec_charge
 _atom_site_pbe_ddec_spin_density
 _atom_site_pbe_ddec_sum_bond_order
 _atom_site_pbe_magmom
Co  Co0  1  0.50001447  0.99999474  0.50000344  1  0.693402  0.744345  1.050073  2.964899  0.974
Co  Co1  1  0.00000296  0.50000198  0.99999808  1  0.695629  0.760203  1.072532  2.955676  0.995
H  H2  1  0.04902086  0.42598134  0.69521633  1  0.294724  0.384649  0.000816  0.945348  0.001
H  H3  1  0.62339448  0.02718151  0.74972671  1  0.315167  0.395489  0.000478  0.893442  0.001
H  H4  1  0.95096823  0.57402199  0.30478691  1  0.294752  0.384628  0.000816  0.945356  0.001
H  H5  1  0.37660863  0.97282900  0.25026611  1  0.31512  0.395487  0.000478  0.893347  0.001
H  H6  1  0.82629223  0.41062734  0.80329098  1  0.285865  0.367915  -1.5e-05  0.984713  0.0
H  H7  1  0.70301595  0.16810146  0.62130793  1  0.295426  0.385423  0.000109  0.953484  0.0
H  H8  1  0.17369199  0.58938047  0.19671253  1  0.285827  0.367845  -1.5e-05  0.984824  0.0
H  H9  1  0.29697893  0.83191054  0.37868739  1  0.29544  0.385471  0.00011  0.953399  0.0
H  H10  1  0.14603989  0.05615445  0.09141468  1  0.129362  0.111303  5.1e-05  1.024897  0.0
H  H11  1  0.95065139  0.86749495  0.29634227  1  0.137684  0.116836  4.7e-05  1.019642  0.0
H  H12  1  0.85395934  0.94386196  0.90857691  1  0.129369  0.11129  5.1e-05  1.024738  0.0
H  H13  1  0.04937110  0.13250779  0.70365759  1  0.137696  0.116864  4.7e-05  1.019668  0.0
C  C14  1  0.55530458  0.31754285  0.31039788  1  0.124645  0.051771  -0.010528  3.871804  -0.005
C  C15  1  0.65525479  0.41446454  0.18734178  1  0.125746  0.056078  -0.009944  3.881834  -0.004
C  C16  1  0.44470015  0.68245173  0.68960468  1  0.124504  0.051597  -0.010505  3.872367  -0.005
C  C17  1  0.34477352  0.58552510  0.81264929  1  0.125843  0.056166  -0.009957  3.881395  -0.004
C  C18  1  0.86890968  0.02364557  0.26341368  1  0.072057  0.079672  -0.014864  3.82715  -0.007
C  C19  1  0.97515845  0.12700747  0.15068128  1  0.069689  0.071158  -0.015646  3.858214  -0.008
C  C20  1  0.13110436  0.97637473  0.73657971  1  0.072003  0.07959  -0.014879  3.827123  -0.007
C  C21  1  0.02484413  0.87299694  0.84931261  1  0.069779  0.071345  -0.015661  3.857888  -0.008
C  C22  1  0.35273849  0.41262678  0.43483139  1  0.218553  0.540699  -0.004848  4.201643  -0.003
C  C23  1  0.56085681  0.62264646  0.12000740  1  0.214665  0.534402  -0.005238  4.216198  -0.003
C  C24  1  0.64724724  0.58735021  0.56518746  1  0.218501  0.540563  -0.004854  4.201901  -0.003
C  C25  1  0.43913755  0.37733511  0.87997882  1  0.214778  0.534554  -0.00524  4.216105  -0.003
N  N26  1  0.66168333  0.11761354  0.34194533  1  -0.335919  -0.176973  -0.024703  3.631355  -0.019
N  N27  1  0.86884740  0.32049640  0.11333294  1  -0.334263  -0.176964  -0.022284  3.631133  -0.017
N  N28  1  0.33831639  0.88237898  0.65805425  1  -0.335909  -0.176915  -0.02471  3.63128  -0.019
N  N29  1  0.13113827  0.67951566  0.88666637  1  -0.334264  -0.177076  -0.022285  3.630665  -0.017
O  O30  1  0.30256748  0.27889762  0.53434591  1  -0.291228  -0.497819  -0.001204  2.382464  0.0
O  O31  1  0.70731487  0.69756419  0.04756709  1  -0.299466  -0.487483  -0.002118  2.350683  -0.001
O  O32  1  0.69746514  0.72109330  0.46566995  1  -0.291197  -0.49784  -0.001206  2.382243  0.0
O  O33  1  0.29266984  0.30242961  0.95242129  1  -0.299543  -0.487454  -0.002114  2.350716  -0.001
O  O34  1  0.25783775  0.59905819  0.44857303  1  -0.292979  -0.496106  -0.005433  2.186164  -0.004
O  O35  1  0.36246062  0.70882649  0.12762779  1  -0.292226  -0.521299  -0.006681  2.252613  -0.006
O  O36  1  0.74215108  0.40092369  0.55143257  1  -0.292858  -0.495898  -0.005436  2.186249  -0.004
O  O37  1  0.63752981  0.29116777  0.87236260  1  -0.292264  -0.521379  -0.006683  2.252589  -0.006
O  O38  1  0.92918233  0.48218728  0.78525695  1  -0.574166  -0.759481  0.030794  2.158467  0.052
O  O39  1  0.69061577  0.03260236  0.64168460  1  -0.557899  -0.731591  0.029928  2.113513  0.05
O  O40  1  0.07080147  0.51782181  0.21474428  1  -0.574187  -0.759421  0.03079  2.158606  0.052
O  O41  1  0.30938783  0.96739768  0.35832595  1  -0.55786  -0.731645  0.029931  2.113367  0.05
