# generated using pymatgen
data_HgH8C10S2(BrN)2
_symmetry_space_group_name_H-M   'P 1'
_cell_length_a   8.27864495
_cell_length_b   8.27857388
_cell_length_c   11.08637407
_cell_angle_alpha   91.82219949
_cell_angle_beta   91.82214163
_cell_angle_gamma   73.07996158
_symmetry_Int_Tables_number   1
_chemical_formula_structural   HgH8C10S2(BrN)2
_chemical_formula_sum   'Hg2 H16 C20 S4 Br4 N4'
_cell_volume   726.34856706
_cell_formula_units_Z   2
loop_
 _symmetry_equiv_pos_site_id
 _symmetry_equiv_pos_as_xyz
  1  'x, y, z'
loop_
 _atom_site_type_symbol
 _atom_site_label
 _atom_site_symmetry_multiplicity
 _atom_site_fract_x
 _atom_site_fract_y
 _atom_site_fract_z
 _atom_site_occupancy
 _atom_site_hle17_bader_spin_density
 _atom_site_hle17_ddec_charge
 _atom_site_hle17_ddec_spin_density
 _atom_site_hle17_ddec_sum_bond_order
 _atom_site_hle17_magmom
 _atom_site_hse06_10hf_bader_spin_density
 _atom_site_hse06_10hf_ddec_charge
 _atom_site_hse06_10hf_ddec_spin_density
 _atom_site_hse06_10hf_ddec_sum_bond_order
 _atom_site_hse06_10hf_magmom
 _atom_site_hse06_bader_spin_density
 _atom_site_hse06_ddec_charge
 _atom_site_hse06_ddec_spin_density
 _atom_site_hse06_ddec_sum_bond_order
 _atom_site_hse06_magmom
 _atom_site_pbe_bader_spin_density
 _atom_site_pbe_cm5_charge
 _atom_site_pbe_ddec_charge
 _atom_site_pbe_ddec_spin_density
 _atom_site_pbe_ddec_sum_bond_order
 _atom_site_pbe_magmom
Hg  Hg0  1  0.01090649  0.98909734  0.25000165  1  0  0.663663  0  2.134406  0  0  0.510379  0  2.637116  0  0  0.556417  0  2.609456  0  0  0.457976  0.479107  0  2.656207  0
Hg  Hg1  1  0.98909314  0.01090114  0.74999761  1  0  0.66369  0  2.134458  0  0  0.510401  0  2.637169  0  0  0.556434  0  2.609518  0  0  0.457966  0.479133  0  2.656239  0
H  H2  1  0.39662639  0.93676510  0.36263071  1  0  0.076195  0  0.952204  0  0  0.081343  0  1.024801  0  0  0.084079  0  1.021916  0  0  0.10078  0.079245  0  1.027139  0
H  H3  1  0.06323985  0.60337215  0.13737330  1  0  0.076193  0  0.952177  0  0  0.081372  0  1.02475  0  0  0.08411  0  1.021862  0  0  0.10076  0.079272  0  1.027086  0
H  H4  1  0.60337245  0.06324475  0.63736960  1  0  0.076127  0  0.952069  0  0  0.081234  0  1.024725  0  0  0.08397  0  1.021839  0  0  0.100743  0.079138  0  1.027062  0
H  H5  1  0.93676269  0.39661627  0.86262857  1  0  0.07613  0  0.95218  0  0  0.081265  0  1.024803  0  0  0.084001  0  1.021917  0  0  0.100773  0.079167  0  1.027144  0
H  H6  1  0.20469568  0.58243776  0.64018167  1  0  0.106296  0  0.988021  0  0  0.110336  0  1.056716  0  0  0.114169  0  1.055352  0  0  0.093019  0.107494  0  1.058078  0
H  H7  1  0.41755997  0.79530237  0.85982220  1  0  0.106323  0  0.987986  0  0  0.110369  0  1.056675  0  0  0.114202  0  1.055312  0  0  0.093035  0.107526  0  1.058032  0
H  H8  1  0.79530530  0.41756450  0.35981766  1  0  0.106336  0  0.988031  0  0  0.110385  0  1.056718  0  0  0.114217  0  1.055353  0  0  0.093026  0.107543  0  1.058076  0
H  H9  1  0.58244360  0.20469114  0.14018336  1  0  0.106343  0  0.988032  0  0  0.110375  0  1.056713  0  0  0.114208  0  1.055349  0  0  0.093016  0.107533  0  1.058076  0
H  H10  1  0.01986089  0.74248520  0.47543665  1  0  0.07687  0  0.945411  0  0  0.082687  0  1.013794  0  0  0.085733  0  1.01057  0  0  0.101819  0.080426  0  1.01619  0
H  H11  1  0.25751277  0.98013931  0.02456554  1  0  0.076897  0  0.945478  0  0  0.082716  0  1.013846  0  0  0.085762  0  1.010621  0  0  0.101831  0.08045  0  1.016242  0
H  H12  1  0.98014005  0.25751703  0.52455998  1  0  0.076851  0  0.945487  0  0  0.082695  0  1.013851  0  0  0.085738  0  1.010629  0  0  0.101842  0.080434  0  1.016246  0
H  H13  1  0.74249469  0.01984916  0.97544271  1  0  0.076812  0  0.945465  0  0  0.082649  0  1.013831  0  0  0.085692  0  1.01061  0  0  0.101816  0.080385  0  1.016222  0
H  H14  1  0.60095781  0.78118341  0.51907995  1  0  0.117036  0  0.942097  0  0  0.125105  0  1.00579  0  0  0.12891  0  1.003931  0  0  0.101478  0.122294  0  1.007405  0
H  H15  1  0.21881179  0.39904100  0.98092113  1  0  0.117066  0  0.94209  0  0  0.125112  0  1.005808  0  0  0.128909  0  1.003957  0  0  0.101485  0.122299  0  1.007424  0
H  H16  1  0.39904118  0.21883023  0.48092132  1  0  0.117021  0  0.942055  0  0  0.12503  0  1.00581  0  0  0.128837  0  1.003948  0  0  0.101482  0.122224  0  1.007419  0
H  H17  1  0.78117758  0.60095497  0.01907255  1  0  0.117019  0  0.942111  0  0  0.125023  0  1.005866  0  0  0.12883  0  1.004003  0  0  0.101466  0.122214  0  1.007476  0
C  C18  1  0.35960149  0.85617427  0.42592296  1  0  0.126137  0  3.735671  0  0  0.093263  0  3.996995  0  0  0.101715  0  4.01404  0  0  0.035537  0.08769  0  3.985671  0
C  C19  1  0.14382611  0.64039733  0.07407917  1  0  0.126148  0  3.735704  0  0  0.093243  0  3.997034  0  0  0.101695  0  4.014078  0  0  0.035526  0.087674  0  3.985703  0
C  C20  1  0.64039734  0.14383557  0.57407645  1  0  0.126308  0  3.735563  0  0  0.093479  0  3.996841  0  0  0.101931  0  4.013888  0  0  0.035616  0.087905  0  3.985515  0
C  C21  1  0.85617205  0.35959362  0.92592087  1  0  0.126363  0  3.735519  0  0  0.093475  0  3.996831  0  0  0.101928  0  4.013874  0  0  0.035654  0.087903  0  3.985504  0
C  C22  1  0.25299519  0.65845532  0.58030692  1  0  -0.186199  0  3.77185  0  0  -0.198977  0  4.017471  0  0  -0.208339  0  4.04005  0  0  -0.100488  -0.192961  0  4.002788  0
C  C23  1  0.34154335  0.74700434  0.91969609  1  0  -0.18615  0  3.771814  0  0  -0.198957  0  4.017479  0  0  -0.20832  0  4.040062  0  0  -0.100476  -0.192939  0  4.00279  0
C  C24  1  0.74700520  0.34155323  0.41969159  1  0  -0.186244  0  3.771828  0  0  -0.19906  0  4.017561  0  0  -0.208424  0  4.04014  0  0  -0.100483  -0.193042  0  4.002881  0
C  C25  1  0.65845656  0.25298916  0.08030762  1  0  -0.186279  0  3.771828  0  0  -0.199109  0  4.017551  0  0  -0.208474  0  4.040135  0  0  -0.100499  -0.193093  0  4.002871  0
C  C26  1  0.14935887  0.74834543  0.48911623  1  0  0.125721  0  3.747317  0  0  0.097301  0  4.000739  0  0  0.105224  0  4.018221  0  0  0.035985  0.092053  0  3.988964  0
C  C27  1  0.25165480  0.85064243  0.01088776  1  0  0.125674  0  3.747339  0  0  0.097261  0  4.000757  0  0  0.105183  0  4.018238  0  0  0.035945  0.092019  0  3.988976  0
C  C28  1  0.85064294  0.25165806  0.51088132  1  0  0.125872  0  3.747367  0  0  0.09741  0  4.000835  0  0  0.105335  0  4.018314  0  0  0.036017  0.092162  0  3.989059  0
C  C29  1  0.74834916  0.14934984  0.98911959  1  0  0.125881  0  3.747368  0  0  0.097447  0  4.000784  0  0  0.105371  0  4.018261  0  0  0.036024  0.092204  0  3.988999  0
C  C30  1  0.41841902  0.66852961  0.59286470  1  0  0.086031  0  3.77474  0  0  0.099907  0  4.029819  0  0  0.106215  0  4.051588  0  0  0.001435  0.095785  0  4.014894  0
C  C31  1  0.33146834  0.58158090  0.90713825  1  0  0.085915  0  3.774705  0  0  0.09978  0  4.029799  0  0  0.106086  0  4.051567  0  0  0.001382  0.09565  0  4.014887  0
C  C32  1  0.58158052  0.33147769  0.40713378  1  0  0.086097  0  3.774619  0  0  0.099971  0  4.029678  0  0  0.10628  0  4.051446  0  0  0.001512  0.095837  0  4.014774  0
C  C33  1  0.66852885  0.41841758  0.09285917  1  0  0.086089  0  3.774809  0  0  0.099997  0  4.029766  0  0  0.106306  0  4.051535  0  0  0.001489  0.095867  0  4.014857  0
C  C34  1  0.47302887  0.76955577  0.51343952  1  0  -0.156698  0  3.701427  0  0  -0.173957  0  3.954516  0  0  -0.181761  0  3.974215  0  0  -0.093497  -0.168737  0  3.94119  0
C  C35  1  0.23044309  0.52696943  0.98656344  1  0  -0.156677  0  3.70143  0  0  -0.173914  0  3.954536  0  0  -0.181711  0  3.974239  0  0  -0.093466  -0.168691  0  3.94121  0
C  C36  1  0.52697324  0.23045532  0.48656085  1  0  -0.156754  0  3.701355  0  0  -0.173953  0  3.95447  0  0  -0.181758  0  3.974168  0  0  -0.093574  -0.168735  0  3.941151  0
C  C37  1  0.76955260  0.47302149  0.01343295  1  0  -0.156723  0  3.701679  0  0  -0.173889  0  3.954693  0  0  -0.181696  0  3.974392  0  0  -0.093517  -0.168676  0  3.941377  0
S  S38  1  0.56665584  0.56082065  0.70269578  1  0  0.053747  0  2.52294  0  0  0.056839  0  2.887911  0  0  0.05376  0  2.889579  0  0  0.064123  0.059702  0  2.887634  0
S  S39  1  0.43917506  0.43334132  0.79730793  1  0  0.053787  0  2.522928  0  0  0.056912  0  2.887871  0  0  0.053834  0  2.889539  0  0  0.064151  0.059772  0  2.887599  0
S  S40  1  0.43334289  0.43918544  0.29730628  1  0  0.053738  0  2.522964  0  0  0.056847  0  2.887918  0  0  0.053766  0  2.889588  0  0  0.064115  0.059712  0  2.887645  0
S  S41  1  0.56082016  0.56665966  0.20268680  1  0  0.053694  0  2.522979  0  0  0.056809  0  2.887878  0  0  0.05373  0  2.889546  0  0  0.06409  0.059671  0  2.887607  0
Br  Br42  1  0.76941724  0.86178088  0.27266014  1  0  -0.442584  0  1.004595  0  0  -0.386939  0  1.297785  0  0  -0.405535  0  1.281032  0  0  -0.244589  -0.374085  0  1.30954  0
Br  Br43  1  0.13821405  0.23058994  0.22732927  1  0  -0.442615  0  1.004595  0  0  -0.386966  0  1.297769  0  0  -0.40556  0  1.281014  0  0  -0.244623  -0.374114  0  1.309524  0
Br  Br44  1  0.23058205  0.13821889  0.72734004  1  0  -0.442596  0  1.00459  0  0  -0.386949  0  1.29777  0  0  -0.405543  0  1.281017  0  0  -0.244602  -0.374104  0  1.309519  0
Br  Br45  1  0.86178521  0.76940980  0.77266910  1  0  -0.442592  0  1.004594  0  0  -0.386938  0  1.29776  0  0  -0.405532  0  1.281008  0  0  -0.244617  -0.374094  0  1.309509  0
N  N46  1  0.20081297  0.84581972  0.41351666  1  0  -0.314393  0  3.280882  0  0  -0.242105  0  3.551306  0  0  -0.262385  0  3.5724  0  0  -0.324573  -0.228459  0  3.537337  0
N  N47  1  0.15418480  0.79918418  0.08648825  1  0  -0.314407  0  3.280888  0  0  -0.242126  0  3.551328  0  0  -0.262403  0  3.57242  0  0  -0.324554  -0.22848  0  3.537357  0
N  N48  1  0.79918778  0.15418757  0.58648183  1  0  -0.314558  0  3.281001  0  0  -0.242267  0  3.551452  0  0  -0.262546  0  3.572543  0  0  -0.324642  -0.22862  0  3.537479  0
N  N49  1  0.84581971  0.20080176  0.91351722  1  0  -0.314601  0  3.280811  0  0  -0.242312  0  3.551256  0  0  -0.26259  0  3.572343  0  0  -0.324712  -0.22866  0  3.537272  0
