# generated using pymatgen
data_Cd2H33C28N5O11
_symmetry_space_group_name_H-M   'P 1'
_cell_length_a   14.38459182
_cell_length_b   14.47744096
_cell_length_c   22.65928467
_cell_angle_alpha   102.31630760
_cell_angle_beta   89.99937140
_cell_angle_gamma   90.00086798
_symmetry_Int_Tables_number   1
_chemical_formula_structural   Cd2H33C28N5O11
_chemical_formula_sum   'Cd8 H132 C112 N20 O44'
_cell_volume   4610.23849673
_cell_formula_units_Z   4
loop_
 _symmetry_equiv_pos_site_id
 _symmetry_equiv_pos_as_xyz
  1  'x, y, z'
loop_
 _atom_site_type_symbol
 _atom_site_label
 _atom_site_symmetry_multiplicity
 _atom_site_fract_x
 _atom_site_fract_y
 _atom_site_fract_z
 _atom_site_occupancy
 _atom_site_pbe_bader_charge
 _atom_site_pbe_bader_spin_density
 _atom_site_pbe_cm5_charge
 _atom_site_pbe_ddec_charge
 _atom_site_pbe_ddec_spin_density
 _atom_site_pbe_ddec_sum_bond_order
 _atom_site_pbe_magmom
Cd  Cd0  1  0.24321491  0.74328778  0.76163445  1  1.2868  0  0.752271  0.968605  0  2.14512  0
Cd  Cd1  1  0.37329314  0.81121252  0.64262796  1  1.402547  0  0.811396  1.111511  0  2.171367  0
Cd  Cd2  1  0.74320889  0.25669474  0.73835985  1  1.286586  0  0.752299  0.968678  0  2.144917  0
Cd  Cd3  1  0.87328402  0.18877964  0.85737152  1  1.402587  0  0.811432  1.111545  0  2.171352  0
Cd  Cd4  1  0.75678259  0.25669274  0.23836470  1  1.286798  0  0.75233  0.968689  0  2.144917  0
Cd  Cd5  1  0.62671687  0.18878715  0.35737579  1  1.402506  0  0.811356  1.111486  0  2.171391  0
Cd  Cd6  1  0.25678096  0.74328475  0.26162814  1  1.28666  0  0.752289  0.968594  0  2.145062  0
Cd  Cd7  1  0.12671487  0.81123273  0.14263293  1  1.402533  0  0.811516  1.111617  0  2.171447  0
H  H8  1  0.51094413  0.50571059  0.74838357  1  0.126573  0  0.111653  0.124147  0  0.996592  0
H  H9  1  0.62303474  0.37882866  0.57380557  1  0.120307  0  0.10864  0.118917  0  1.029129  0
H  H10  1  0.42142823  0.60314801  0.59044969  1  0.117286  0  0.106301  0.104341  0  1.071263  0
H  H11  1  0.63364729  0.12350045  0.93357379  1  0.120925  0  0.109457  0.117251  0  1.033571  0
H  H12  1  0.50941728  0.03495915  0.75788346  1  0.126797  0  0.108088  0.116509  0  1.015115  0
H  H13  1  0.40562494  0.92514445  0.90709575  1  0.113873  0  0.107777  0.108912  0  1.054477  0
H  H14  1  0.28470651  0.55891388  0.51944175  1  0.077687  0  0.099967  0.148472  0  1.015766  0
H  H15  1  0.16601453  0.59743387  0.51962834  1  0.035943  0  0.097249  0.144409  0  1.008088  0
H  H16  1  0.23592788  0.62774448  0.58629225  1  0.076855  0  0.109581  0.182091  0  0.974954  0
H  H17  1  0.31809681  0.86265521  0.50061432  1  0.117573  0  0.10501  0.128352  0  1.03021  0
H  H18  1  0.20436719  0.88621223  0.47453440  1  0.050977  0  0.095792  0.101142  0  1.037107  0
H  H19  1  0.28770008  0.82314693  0.42218231  1  0.113409  0  0.105186  0.132282  0  1.024942  0
H  H20  1  0.16288656  0.62966533  0.42367768  1  0.082996  0  0.112659  0.13104  0  0.972851  0
H  H21  1  0.13622081  0.74201483  0.40990944  1  0.104773  0  0.119575  0.147184  0  0.974196  0
H  H22  1  0.08591686  0.70713117  0.47382315  1  0.044907  0  0.10213  0.108302  0  0.989043  0
H  H23  1  0.51170749  0.72588791  0.53584874  1  0.132391  0  0.105275  0.17248  0  1.017954  0
H  H24  1  0.63121851  0.69266382  0.52812944  1  0.059856  0  0.103606  0.15497  0  0.979402  0
H  H25  1  0.59525947  0.80455224  0.51563278  1  0.053572  0  0.102522  0.152637  0  0.984093  0
H  H26  1  0.74455370  0.80524537  0.54398792  1  0.063855  0  0.111564  0.123297  0  1.007066  0
H  H27  1  0.81993954  0.82705775  0.60772925  1  0.074926  0  0.108211  0.120629  0  0.981166  0
H  H28  1  0.76174277  0.92311106  0.58632343  1  0.05039  0  0.106028  0.123639  0  0.979671  0
H  H29  1  0.64166396  0.84959230  0.71983038  1  0.093248  0  0.113867  0.137923  0  0.989913  0
H  H30  1  0.67805389  0.95776372  0.70079761  1  0.043596  0  0.106269  0.126564  0  0.990742  0
H  H31  1  0.76228427  0.86924153  0.70539715  1  0.053779  0  0.103425  0.110263  0  1.003285  0
H  H32  1  0.27745900  0.11276200  0.62688549  1  0.057283  0  0.102925  0.150962  0  0.981164  0
H  H33  1  0.30735688  0.09139311  0.69891735  1  0.076208  0  0.101511  0.150544  0  1.010875  0
H  H34  1  0.25852177  0.99897983  0.64288373  1  0.083634  0  0.100589  0.15759  0  1.020968  0
H  H35  1  0.56869132  0.98068756  0.60794464  1  0.082108  0  0.106033  0.118429  0  1.04035  0
H  H36  1  0.61554687  0.09435010  0.64280758  1  0.08633  0  0.11062  0.130328  0  1.00329  0
H  H37  1  0.57559142  0.07222309  0.56630056  1  0.06448  0  0.10453  0.118887  0  0.987078  0
H  H38  1  0.50677529  0.20704251  0.70049364  1  0.111679  0  0.109001  0.134056  0  0.999487  0
H  H39  1  0.39079798  0.20820997  0.67222300  1  0.067144  0  0.109885  0.121984  0  1.007544  0
H  H40  1  0.48690971  0.23087283  0.62762596  1  0.072293  0  0.105892  0.122991  0  0.98599  0
H  H41  1  0.01095763  0.49427378  0.75161211  1  0.126557  0  0.111605  0.124073  0  0.996483  0
H  H42  1  0.12302701  0.62116369  0.92619475  1  0.121058  0  0.108691  0.118974  0  1.029118  0
H  H43  1  0.92141027  0.39685397  0.90955024  1  0.117374  0  0.106273  0.104201  0  1.071733  0
H  H44  1  0.13366776  0.87650639  0.56643533  1  0.12091  0  0.109525  0.117266  0  1.033816  0
H  H45  1  0.00942425  0.96504603  0.74212586  1  0.126802  0  0.108102  0.116455  0  1.015087  0
H  H46  1  0.90565480  0.07485963  0.59291118  1  0.114015  0  0.107655  0.108816  0  1.054572  0
H  H47  1  0.78470608  0.44107933  0.98056199  1  0.077589  0  0.099987  0.148463  0  1.015767  0
H  H48  1  0.66600795  0.40257112  0.98037504  1  0.035783  0  0.097183  0.14431  0  1.008066  0
H  H49  1  0.73591991  0.37226769  0.91370801  1  0.076888  0  0.109583  0.182055  0  0.974861  0
H  H50  1  0.81808515  0.13734391  0.99938375  1  0.117683  0  0.10504  0.128452  0  1.030145  0
H  H51  1  0.70435710  0.11378026  0.02546508  1  0.050646  0  0.095859  0.101275  0  1.036785  0
H  H52  1  0.78768727  0.17685580  0.07781611  1  0.113648  0  0.105199  0.132308  0  1.024975  0
H  H53  1  0.66288299  0.37033077  0.07631988  1  0.082963  0  0.11258  0.130951  0  0.972944  0
H  H54  1  0.63620903  0.25798305  0.09008897  1  0.096636  0  0.119501  0.147105  0  0.974232  0
H  H55  1  0.58590602  0.29286822  0.02617755  1  0.044724  0  0.102144  0.108326  0  0.98898  0
H  H56  1  0.01169865  0.27410993  0.96414949  1  0.132208  0  0.105259  0.172476  0  1.018159  0
H  H57  1  0.13120727  0.30733628  0.97186738  1  0.060024  0  0.10361  0.154968  0  0.979509  0
H  H58  1  0.09524491  0.19544961  0.98436804  1  0.053681  0  0.102535  0.152658  0  0.984067  0
H  H59  1  0.24455144  0.19476735  0.95600308  1  0.063876  0  0.111573  0.123377  0  1.007145  0
H  H60  1  0.31993387  0.17295587  0.89225782  1  0.074262  0  0.108191  0.120569  0  0.981089  0
H  H61  1  0.26173874  0.07690187  0.91366659  1  0.049604  0  0.105953  0.123494  0  0.979805  0
H  H62  1  0.14166336  0.15043319  0.78016292  1  0.093093  0  0.113878  0.137937  0  0.990169  0
H  H63  1  0.17805200  0.04225573  0.79918895  1  0.043815  0  0.106278  0.126662  0  0.990811  0
H  H64  1  0.26228104  0.13078769  0.79459623  1  0.053878  0  0.103454  0.110321  0  1.003406  0
H  H65  1  0.77745683  0.88723594  0.87311492  1  0.057268  0  0.102925  0.150941  0  0.981193  0
H  H66  1  0.80734724  0.90860382  0.80108273  1  0.076019  0  0.101519  0.150546  0  1.011009  0
H  H67  1  0.75852021  0.00101646  0.85711705  1  0.083629  0  0.100598  0.157599  0  1.021022  0
H  H68  1  0.06869303  0.01931863  0.89204806  1  0.082181  0  0.106037  0.118408  0  1.04029  0
H  H69  1  0.11554539  0.90565670  0.85718489  1  0.086443  0  0.110595  0.130374  0  1.003188  0
H  H70  1  0.07559173  0.92778749  0.93369486  1  0.064243  0  0.104515  0.118849  0  0.987014  0
H  H71  1  0.00677377  0.79295813  0.79950630  1  0.111619  0  0.109014  0.134054  0  0.999442  0
H  H72  1  0.89079513  0.79179317  0.82778258  1  0.067148  0  0.109876  0.121982  0  1.007455  0
H  H73  1  0.98691061  0.76913720  0.87237851  1  0.072359  0  0.105882  0.122978  0  0.985892  0
H  H74  1  0.48903599  0.49428402  0.25161558  1  0.126564  0  0.111689  0.124195  0  0.996502  0
H  H75  1  0.37697597  0.62117531  0.42620047  1  0.120885  0  0.108594  0.118889  0  1.029092  0
H  H76  1  0.57857761  0.39685361  0.40954812  1  0.117505  0  0.10629  0.104237  0  1.071428  0
H  H77  1  0.36634743  0.87648946  0.06643315  1  0.120503  0  0.109496  0.1173  0  1.033758  0
H  H78  1  0.49056006  0.96504144  0.24212746  1  0.126299  0  0.10817  0.116524  0  1.015109  0
H  H79  1  0.59436770  0.07484263  0.09291084  1  0.114263  0  0.107608  0.108826  0  1.054588  0
H  H80  1  0.71529029  0.44108150  0.48055970  1  0.077679  0  0.099959  0.14845  0  1.01584  0
H  H81  1  0.83398575  0.40257201  0.48037089  1  0.035911  0  0.09726  0.144428  0  1.008098  0
H  H82  1  0.76407240  0.37226005  0.41370901  1  0.076859  0  0.10961  0.182135  0  0.974971  0
H  H83  1  0.68191598  0.13734359  0.49938357  1  0.117722  0  0.105048  0.128414  0  1.030156  0
H  H84  1  0.79564491  0.11378445  0.52546324  1  0.050647  0  0.095828  0.101181  0  1.036902  0
H  H85  1  0.71231411  0.17685326  0.57781488  1  0.113682  0  0.105141  0.13221  0  1.025001  0
H  H86  1  0.83711859  0.37033758  0.57631632  1  0.083068  0  0.112636  0.131015  0  0.972961  0
H  H87  1  0.86378990  0.25798889  0.59008819  1  0.096551  0  0.119443  0.146952  0  0.974212  0
H  H88  1  0.91409593  0.29287180  0.52617262  1  0.044609  0  0.102107  0.108296  0  0.989061  0
H  H89  1  0.48829210  0.27410464  0.46415191  1  0.132424  0  0.105343  0.172528  0  1.018008  0
H  H90  1  0.36878385  0.30732866  0.47186899  1  0.059993  0  0.103622  0.154976  0  0.979571  0
H  H91  1  0.40474220  0.19544313  0.48436823  1  0.053448  0  0.102538  0.152697  0  0.984146  0
H  H92  1  0.25544588  0.19475901  0.45600803  1  0.063857  0  0.111583  0.123376  0  1.007069  0
H  H93  1  0.18006005  0.17294516  0.39226475  1  0.074773  0  0.108203  0.120591  0  0.98112  0
H  H94  1  0.23825543  0.07689406  0.41367393  1  0.050133  0  0.106002  0.123576  0  0.979706  0
H  H95  1  0.35834119  0.15042416  0.28016928  1  0.093225  0  0.113839  0.137911  0  0.989979  0
H  H96  1  0.32195404  0.04224537  0.29919098  1  0.043828  0  0.106264  0.126637  0  0.990769  0
H  H97  1  0.23772296  0.13076983  0.29459702  1  0.05389  0  0.103421  0.110255  0  1.003327  0
H  H98  1  0.72254058  0.88723415  0.37311826  1  0.057326  0  0.102916  0.150993  0  0.98114  0
H  H99  1  0.69265592  0.90860578  0.30108365  1  0.075816  0  0.101486  0.150535  0  1.010905  0
H  H100  1  0.74148060  0.00101853  0.35712339  1  0.083507  0  0.100586  0.157611  0  1.021  0
H  H101  1  0.43130896  0.01931601  0.39204767  1  0.082011  0  0.106042  0.118409  0  1.040295  0
H  H102  1  0.38444854  0.90565423  0.35718704  1  0.086617  0  0.110618  0.130321  0  1.003279  0
H  H103  1  0.42441025  0.92778479  0.43369494  1  0.063857  0  0.104526  0.118897  0  0.987022  0
H  H104  1  0.49322151  0.79295066  0.29950444  1  0.111485  0  0.108994  0.134074  0  0.999479  0
H  H105  1  0.60919883  0.79178956  0.32777587  1  0.06721  0  0.109905  0.122022  0  1.007577  0
H  H106  1  0.51308849  0.76913450  0.37237477  1  0.072325  0  0.105918  0.123024  0  0.985972  0
H  H107  1  0.98905655  0.50570804  0.24838323  1  0.12663  0  0.111645  0.124157  0  0.99653  0
H  H108  1  0.87697536  0.37880915  0.07380653  1  0.120648  0  0.108597  0.118986  0  1.029121  0
H  H109  1  0.07857054  0.60313834  0.09044243  1  0.117377  0  0.106289  0.104276  0  1.071303  0
H  H110  1  0.86634921  0.12350682  0.43357364  1  0.120484  0  0.109446  0.117205  0  1.033693  0
H  H111  1  0.99056977  0.03494244  0.25788002  1  0.127004  0  0.108111  0.116558  0  1.015141  0
H  H112  1  0.09436286  0.92515289  0.40709859  1  0.114071  0  0.107679  0.10888  0  1.05455  0
H  H113  1  0.21529211  0.55892103  0.01944095  1  0.077739  0  0.100011  0.14849  0  1.015771  0
H  H114  1  0.33398538  0.59743624  0.01962658  1  0.035912  0  0.097239  0.144381  0  1.008107  0
H  H115  1  0.26407412  0.62773959  0.08629094  1  0.076865  0  0.10961  0.182102  0  0.974965  0
H  H116  1  0.18192069  0.86266494  0.00062070  1  0.117709  0  0.105074  0.12846  0  1.03013  0
H  H117  1  0.29565152  0.88622017  0.97454053  1  0.050535  0  0.095856  0.101182  0  1.036879  0
H  H118  1  0.21231927  0.82315729  0.92218887  1  0.113687  0  0.105189  0.132305  0  1.024869  0
H  H119  1  0.33710964  0.62966741  0.92368103  1  0.083062  0  0.112622  0.130993  0  0.972876  0
H  H120  1  0.36378499  0.74201224  0.90990938  1  0.103842  0  0.119535  0.1471  0  0.9742  0
H  H121  1  0.41409078  0.70712707  0.97382079  1  0.044792  0  0.102167  0.108372  0  0.988947  0
H  H122  1  0.98829467  0.72589739  0.03585079  1  0.1324  0  0.105297  0.17245  0  1.018065  0
H  H123  1  0.86878675  0.69267241  0.02813176  1  0.060072  0  0.103627  0.154972  0  0.979516  0
H  H124  1  0.90475189  0.80455620  0.01562897  1  0.05349  0  0.102535  0.152665  0  0.984118  0
H  H125  1  0.75544954  0.80524328  0.04399011  1  0.063779  0  0.111577  0.123309  0  1.007103  0
H  H126  1  0.68006085  0.82705681  0.10773299  1  0.074859  0  0.108173  0.120572  0  0.981203  0
H  H127  1  0.73826015  0.92310943  0.08632536  1  0.05043  0  0.105977  0.123565  0  0.9797  0
H  H128  1  0.85833344  0.84958448  0.21983027  1  0.09338  0  0.11384  0.137887  0  0.989905  0
H  H129  1  0.82194689  0.95775988  0.20080575  1  0.043728  0  0.106284  0.126611  0  0.990748  0
H  H130  1  0.73771646  0.86923150  0.20540068  1  0.053787  0  0.103473  0.110362  0  1.003231  0
H  H131  1  0.22254206  0.11277414  0.12688351  1  0.057278  0  0.102876  0.150922  0  0.981251  0
H  H132  1  0.19266138  0.09140353  0.19891844  1  0.076204  0  0.101505  0.150514  0  1.010975  0
H  H133  1  0.24148702  0.99899357  0.14287961  1  0.083871  0  0.100545  0.157589  0  1.020949  0
H  H134  1  0.93131211  0.98068364  0.10794806  1  0.082014  0  0.106021  0.118386  0  1.040388  0
H  H135  1  0.88445698  0.09434272  0.14281044  1  0.086522  0  0.110622  0.130373  0  1.003284  0
H  H136  1  0.92441342  0.07221484  0.06630348  1  0.06421  0  0.104531  0.118874  0  0.987036  0
H  H137  1  0.99322442  0.20704494  0.20049301  1  0.111635  0  0.108989  0.134033  0  0.999458  0
H  H138  1  0.10920376  0.20821350  0.17221939  1  0.067136  0  0.109889  0.121999  0  1.007459  0
H  H139  1  0.01308967  0.23086872  0.12762205  1  0.072259  0  0.105859  0.122945  0  0.985972  0
C  C140  1  0.63118404  0.37037281  0.69176016  1  1.510911  0  0.18635  0.551234  0  4.249084  0
C  C141  1  0.44969398  0.97526343  0.82886482  1  -0.021838  0  -0.017993  -0.029793  0  3.984958  0
C  C142  1  0.45904105  0.56137409  0.67338160  1  -0.005612  0  -0.015011  -0.020466  0  3.978561  0
C  C143  1  0.52285617  0.49069467  0.57535332  1  0.391748  0  0.078876  0.148251  0  4.079816  0
C  C144  1  0.51423831  0.50137277  0.69984560  1  -0.020789  0  -0.063913  -0.08673  0  3.881278  0
C  C145  1  0.57781776  0.43068800  0.60175529  1  -0.072452  0  -0.073467  -0.15141  0  3.9019  0
C  C146  1  0.46344835  0.55642559  0.61131504  1  -0.042187  0  -0.073451  -0.142887  0  3.901662  0
C  C147  1  0.51907538  0.02533078  0.92782421  1  0.340698  0  0.07794  0.151557  0  4.0792  0
C  C148  1  0.58153174  0.08238851  0.90441440  1  -0.078047  0  -0.071493  -0.14539  0  3.904615  0
C  C149  1  0.57320399  0.43566474  0.66399090  1  -0.024401  0  -0.017676  -0.020369  0  3.990614  0
C  C150  1  0.51182151  0.03311637  0.80563779  1  -0.039249  0  -0.07024  -0.092905  0  3.905478  0
C  C151  1  0.45314851  0.97134558  0.88970640  1  0.00964  0  -0.074379  -0.149248  0  3.914443  0
C  C152  1  0.38158557  0.91328594  0.78806253  1  1.595954  0  0.209059  0.592619  0  4.217323  0
C  C153  1  0.57813630  0.08636273  0.84333576  1  -0.045191  0  -0.021239  -0.035928  0  3.99128  0
C  C154  1  0.39252005  0.62774505  0.71165002  1  1.540811  0  0.201766  0.585733  0  4.178412  0
C  C155  1  0.64835376  0.14529570  0.81889254  1  1.590982  0  0.203977  0.584742  0  4.222073  0
C  C156  1  0.23592266  0.61696477  0.53680566  1  -0.052423  0  -0.239328  -0.513328  0  3.901447  0
C  C157  1  0.27389675  0.70520842  0.52092684  1  1.347175  0  0.244828  0.521779  0  4.042155  0
C  C158  1  0.26229133  0.83541243  0.46883337  1  0.193207  0  -0.144147  -0.287821  0  3.887778  0
C  C159  1  0.14871900  0.70333398  0.44571841  1  0.222551  0  -0.126472  -0.266254  0  3.892052  0
C  C160  1  0.59600591  0.79402490  0.60976864  1  1.370225  0  0.245981  0.519746  0  4.045975  0
C  C161  1  0.58305480  0.75199765  0.54334177  1  -0.106115  0  -0.23697  -0.513043  0  3.903549  0
C  C162  1  0.75456296  0.84847570  0.58932354  1  0.267545  0  -0.126541  -0.266662  0  3.928505  0
C  C163  1  0.69029981  0.88095898  0.69257032  1  0.268221  0  -0.131129  -0.264564  0  3.893773  0
C  C164  1  0.30540427  0.05979089  0.65043168  1  -0.099693  0  -0.237904  -0.505229  0  3.917884  0
C  C165  1  0.56339939  0.05693878  0.61120797  1  0.238188  0  -0.134962  -0.269069  0  3.887291  0
C  C166  1  0.40041351  0.02609921  0.62695546  1  1.355262  0  0.241071  0.513867  0  4.052919  0
C  C167  1  0.46278747  0.18921522  0.65997315  1  0.235521  0  -0.13059  -0.272521  0  3.896628  0
C  C168  1  0.13119795  0.62960282  0.80824288  1  1.511257  0  0.186472  0.551536  0  4.248828  0
C  C169  1  0.94970643  0.02473835  0.67113931  1  -0.021737  0  -0.018038  -0.030019  0  3.984687  0
C  C170  1  0.95903838  0.43862357  0.82662195  1  -0.005092  0  -0.015054  -0.020314  0  3.978553  0
C  C171  1  0.02283771  0.50929701  0.92464584  1  0.391612  0  0.07887  0.148204  0  4.080834  0
C  C172  1  0.01424618  0.49861393  0.80015609  1  -0.021034  0  -0.063781  -0.086568  0  3.881422  0
C  C173  1  0.07781042  0.56930383  0.89824792  1  -0.073523  0  -0.073546  -0.151464  0  3.90187  0
C  C174  1  0.96343425  0.44357005  0.88868955  1  -0.042353  0  -0.073336  -0.142813  0  3.902495  0
C  C175  1  0.01910143  0.97467654  0.57218178  1  0.341056  0  0.077835  0.151352  0  4.079597  0
C  C176  1  0.08155233  0.91761396  0.59558968  1  -0.078707  0  -0.071505  -0.145278  0  3.904863  0
C  C177  1  0.07320877  0.56432061  0.83600977  1  -0.024751  0  -0.017748  -0.020572  0  3.990933  0
C  C178  1  0.01182934  0.96688305  0.69436638  1  -0.039443  0  -0.070213  -0.092697  0  3.905205  0
C  C179  1  0.95317319  0.02865906  0.61029807  1  0.009747  0  -0.07427  -0.148953  0  3.914248  0
C  C180  1  0.88159756  0.08670853  0.71193983  1  1.596666  0  0.209257  0.592873  0  4.216989  0
C  C181  1  0.07814535  0.91363907  0.65667091  1  -0.045207  0  -0.02136  -0.036281  0  3.991459  0
C  C182  1  0.89251076  0.37225029  0.78835281  1  1.542196  0  0.20179  0.585694  0  4.178482  0
C  C183  1  0.14836358  0.85470349  0.68111331  1  1.591144  0  0.204107  0.584862  0  4.221994  0
C  C184  1  0.73591469  0.38303405  0.96319558  1  -0.052196  0  -0.239227  -0.513057  0  3.901379  0
C  C185  1  0.77388159  0.29478573  0.97906561  1  1.347636  0  0.244708  0.521697  0  4.042678  0
C  C186  1  0.76227914  0.16458501  0.03116456  1  0.193099  0  -0.144284  -0.287993  0  3.887726  0
C  C187  1  0.64871121  0.29666334  0.05427939  1  0.230883  0  -0.12641  -0.266042  0  3.892188  0
C  C188  1  0.09599522  0.20598384  0.89022641  1  1.369457  0  0.245953  0.519805  0  4.045946  0
C  C189  1  0.08304430  0.24800184  0.95665618  1  -0.106074  0  -0.237014  -0.513114  0  3.903656  0
C  C190  1  0.25456013  0.15153858  0.91066803  1  0.269168  0  -0.126447  -0.266491  0  3.92836  0
C  C191  1  0.19030034  0.11905851  0.80741635  1  0.267999  0  -0.131178  -0.264659  0  3.894014  0
C  C192  1  0.80540332  0.94020668  0.84956717  1  -0.099152  0  -0.237895  -0.505202  0  3.918106  0
C  C193  1  0.06339863  0.94306805  0.88878529  1  0.238063  0  -0.134967  -0.269016  0  3.887128  0
C  C194  1  0.90041337  0.97390101  0.87304219  1  1.354937  0  0.241044  0.513927  0  4.052805  0
C  C195  1  0.96278748  0.81078809  0.84002931  1  0.235681  0  -0.130558  -0.272401  0  3.896448  0
C  C196  1  0.36880025  0.62961636  0.30824581  1  1.510947  0  0.186322  0.551417  0  4.249061  0
C  C197  1  0.55030074  0.02472428  0.17113920  1  -0.021572  0  -0.018054  -0.029798  0  3.984537  0
C  C198  1  0.54095158  0.43862687  0.32661789  1  -0.005311  0  -0.014992  -0.020274  0  3.978214  0
C  C199  1  0.47715385  0.50930714  0.42465114  1  0.392258  0  0.078893  0.148324  0  4.080006  0
C  C200  1  0.48574528  0.49862258  0.30015496  1  -0.02148  0  -0.06388  -0.086691  0  3.881181  0
C  C201  1  0.42218669  0.56931176  0.39825111  1  -0.073613  0  -0.073412  -0.151438  0  3.901561  0
C  C202  1  0.53655332  0.44357679  0.38868463  1  -0.042427  0  -0.07347  -0.142947  0  3.902085  0
C  C203  1  0.48091656  0.97465627  0.07218150  1  0.341277  0  0.077783  0.151296  0  4.079692  0
C  C204  1  0.41846159  0.91759636  0.09558883  1  -0.078184  0  -0.071564  -0.145548  0  3.905199  0
C  C205  1  0.42678586  0.56432860  0.33601294  1  -0.02436  0  -0.017762  -0.020534  0  3.990894  0
C  C206  1  0.48816973  0.96687279  0.19436774  1  -0.038767  0  -0.070282  -0.092989  0  3.905023  0
C  C207  1  0.54684134  0.02864282  0.11029727  1  0.009169  0  -0.07415  -0.148979  0  3.914169  0
C  C208  1  0.61840846  0.08670728  0.21193732  1  1.596912  0  0.209128  0.592657  0  4.216977  0
C  C209  1  0.42185494  0.91362925  0.15666968  1  -0.045145  0  -0.021285  -0.035972  0  3.991098  0
C  C210  1  0.60747884  0.37226570  0.28834717  1  1.542093  0  0.201753  0.585632  0  4.178542  0
C  C211  1  0.35163748  0.85469276  0.18111289  1  1.591241  0  0.204026  0.584684  0  4.221851  0
C  C212  1  0.76407970  0.38304043  0.46319436  1  -0.052556  0  -0.239303  -0.513279  0  3.901445  0
C  C213  1  0.72611257  0.29478962  0.47906919  1  1.348053  0  0.244695  0.521831  0  4.042551  0
C  C214  1  0.73772285  0.16458424  0.53116382  1  0.193037  0  -0.144183  -0.287713  0  3.887513  0
C  C215  1  0.85128893  0.29666754  0.55427629  1  0.231118  0  -0.126349  -0.265969  0  3.89232  0
C  C216  1  0.40399716  0.20597255  0.39023130  1  1.370358  0  0.24588  0.519769  0  4.045889  0
C  C217  1  0.41694687  0.24799776  0.45666056  1  -0.106201  0  -0.237053  -0.513156  0  3.90377  0
C  C218  1  0.24543732  0.15152940  0.41067294  1  0.268053  0  -0.126514  -0.266623  0  3.928406  0
C  C219  1  0.30970395  0.11904457  0.30742155  1  0.267726  0  -0.131129  -0.264606  0  3.893763  0
C  C220  1  0.69459671  0.94020731  0.34956967  1  -0.099235  0  -0.237912  -0.505366  0  3.917939  0
C  C221  1  0.43659880  0.94306338  0.38878461  1  0.238368  0  -0.134994  -0.269088  0  3.887163  0
C  C222  1  0.59958538  0.97389889  0.37304279  1  1.35526  0  0.24101  0.513855  0  4.052726  0
C  C223  1  0.53721003  0.81078429  0.34002483  1  0.235918  0  -0.130644  -0.272649  0  3.896794  0
C  C224  1  0.86880998  0.37037288  0.19176008  1  1.511391  0  0.186346  0.551344  0  4.249295  0
C  C225  1  0.05030358  0.97526417  0.32886523  1  -0.021898  0  -0.018034  -0.029866  0  3.984959  0
C  C226  1  0.04095982  0.56136605  0.17337525  1  -0.005064  0  -0.015115  -0.02046  0  3.978569  0
C  C227  1  0.97715283  0.49068203  0.07535048  1  0.39253  0  0.078983  0.148639  0  4.080273  0
C  C228  1  0.98575688  0.50137082  0.19984315  1  -0.021006  0  -0.063884  -0.086753  0  3.881289  0
C  C229  1  0.92218708  0.43067605  0.10175336  1  -0.072993  0  -0.073332  -0.151554  0  3.901909  0
C  C230  1  0.03655352  0.55641820  0.11130880  1  -0.043191  0  -0.073379  -0.142876  0  3.902087  0
C  C231  1  0.98091832  0.02534156  0.42782559  1  0.340946  0  0.077882  0.151614  0  4.079287  0
C  C232  1  0.91846463  0.08240128  0.40441645  1  -0.077913  0  -0.071482  -0.14536  0  3.904735  0
C  C233  1  0.92679568  0.43565925  0.16399106  1  -0.024718  0  -0.017765  -0.020448  0  3.990924  0
C  C234  1  0.98817581  0.03311879  0.30563896  1  -0.039713  0  -0.070246  -0.093036  0  3.905468  0
C  C235  1  0.04684308  0.97135049  0.38970647  1  0.009547  0  -0.074279  -0.149202  0  3.914313  0
C  C236  1  0.11840550  0.91329040  0.28806250  1  1.596798  0  0.209175  0.592766  0  4.217341  0
C  C237  1  0.92186466  0.08636982  0.34333487  1  -0.044931  0  -0.021262  -0.035964  0  3.991148  0
C  C238  1  0.10747839  0.62774290  0.21164571  1  1.541684  0  0.201775  0.585761  0  4.178409  0
C  C239  1  0.85164296  0.14529753  0.31888839  1  1.590519  0  0.203937  0.584724  0  4.222044  0
C  C240  1  0.26407933  0.61696555  0.03680551  1  -0.052391  0  -0.239382  -0.513252  0  3.901386  0
C  C241  1  0.22611452  0.70521869  0.02093166  1  1.347553  0  0.244638  0.521662  0  4.04243  0
C  C242  1  0.23772740  0.83541958  0.96883891  1  0.193123  0  -0.144246  -0.287824  0  3.887709  0
C  C243  1  0.35128351  0.70333555  0.94572161  1  0.223621  0  -0.126469  -0.266091  0  3.892161  0
C  C244  1  0.90400089  0.79403042  0.10977033  1  1.37033  0  0.245916  0.519931  0  4.046061  0
C  C245  1  0.91695041  0.75200470  0.04334136  1  -0.106157  0  -0.236992  -0.513053  0  3.903623  0
C  C246  1  0.74544085  0.84847419  0.08932632  1  0.267668  0  -0.12648  -0.266556  0  3.928544  0
C  C247  1  0.80969716  0.88095917  0.19257729  1  0.267761  0  -0.131217  -0.26463  0  3.893557  0
C  C248  1  0.19459974  0.05980205  0.15043330  1  -0.099566  0  -0.23778  -0.505175  0  3.918024  0
C  C249  1  0.93660374  0.05693424  0.11121172  1  0.23833  0  -0.134925  -0.269007  0  3.887185  0
C  C250  1  0.09959039  0.02610707  0.12695996  1  1.355124  0  0.241098  0.513923  0  4.052753  0
C  C251  1  0.03721350  0.18921425  0.15996947  1  0.2356  0  -0.130573  -0.272527  0  3.89655  0
N  N252  1  0.53271580  0.48177904  0.51235808  1  -0.467808  0  -0.14458  -0.123736  0  3.288776  0
N  N253  1  0.52944219  0.02512291  0.98980247  1  -0.507433  0  -0.150139  -0.132795  0  3.291078  0
N  N254  1  0.22883599  0.74617807  0.48126490  1  -1.156274  0  -0.271818  -0.013749  0  3.629828  0
N  N255  1  0.67773727  0.83665442  0.62889182  1  -1.18376  0  -0.281584  -0.035618  0  3.653616  0
N  N256  1  0.47102560  0.08856826  0.63322817  1  -1.187676  0  -0.277028  -0.021053  0  3.647209  0
N  N257  1  0.03269431  0.51822464  0.98763765  1  -0.509644  0  -0.144593  -0.123686  0  3.28929  0
N  N258  1  0.02946722  0.97488955  0.51020586  1  -0.462068  0  -0.149957  -0.132609  0  3.290902  0
N  N259  1  0.72882191  0.25381817  0.01873134  1  -1.156857  0  -0.271753  -0.014075  0  3.630055  0
N  N260  1  0.17773043  0.16335534  0.87110059  1  -1.183874  0  -0.281597  -0.035746  0  3.653147  0
N  N261  1  0.97102600  0.91143429  0.86676885  1  -1.187672  0  -0.276992  -0.021234  0  3.647389  0
N  N262  1  0.46729560  0.51822479  0.48764310  1  -0.509967  0  -0.144633  -0.123782  0  3.289126  0
N  N263  1  0.47054627  0.97487127  0.01020589  1  -0.461847  0  -0.149886  -0.132488  0  3.290951  0
N  N264  1  0.77117680  0.25382141  0.51873220  1  -1.156958  0  -0.271751  -0.014028  0  3.629978  0
N  N265  1  0.32226510  0.16334570  0.37110315  1  -1.183577  0  -0.281536  -0.035655  0  3.653298  0
N  N266  1  0.52897329  0.91143106  0.36676362  1  -1.187728  0  -0.276956  -0.02096  0  3.647262  0
N  N267  1  0.96728998  0.48175722  0.01235902  1  -0.467916  0  -0.14472  -0.123987  0  3.289317  0
N  N268  1  0.97055391  0.02512787  0.48980275  1  -0.50704  0  -0.150088  -0.132805  0  3.290968  0
N  N269  1  0.27117768  0.74618491  0.98126841  1  -1.157078  0  -0.27172  -0.014089  0  3.630337  0
N  N270  1  0.82226429  0.83665749  0.12889553  1  -1.183566  0  -0.281538  -0.035774  0  3.653324  0
N  N271  1  0.02897637  0.08856807  0.13323037  1  -1.187595  0  -0.276983  -0.021  0  3.647063  0
O  O272  1  0.38255030  0.91725812  0.73253373  1  -1.178497  0  -0.334939  -0.594331  0  2.306667  0
O  O273  1  0.34328677  0.68225992  0.68427443  1  -1.170856  0  -0.350848  -0.625528  0  2.403473  0
O  O274  1  0.34996014  0.73943070  0.54435037  1  -1.182549  0  -0.327911  -0.564448  0  2.314531  0
O  O275  1  0.63422300  0.38228785  0.74896268  1  -1.11716  0  -0.341836  -0.555108  0  2.118026  0
O  O276  1  0.63858621  0.15336845  0.76432851  1  -1.16575  0  -0.32443  -0.560633  0  2.266101  0
O  O277  1  0.67540686  0.30408346  0.65616096  1  -1.167453  0  -0.337565  -0.569867  0  2.201122  0
O  O278  1  0.38125266  0.62744561  0.76627475  1  -1.133282  0  -0.316881  -0.523443  0  2.08255  0
O  O279  1  0.71228047  0.18269930  0.85489584  1  -1.200427  0  -0.336439  -0.600768  0  2.319304  0
O  O280  1  0.53285950  0.78928169  0.64750460  1  -1.167416  0  -0.311942  -0.533427  0  2.267704  0
O  O281  1  0.32945279  0.86243695  0.81346577  1  -1.162363  0  -0.328406  -0.555522  0  2.289464  0
O  O282  1  0.41339991  0.94071792  0.60095372  1  -1.170867  0  -0.321137  -0.547573  0  2.255018  0
O  O283  1  0.88255572  0.08273427  0.76746924  1  -1.178789  0  -0.334965  -0.594339  0  2.306332  0
O  O284  1  0.84327340  0.31773479  0.81572954  1  -1.171015  0  -0.350844  -0.625508  0  2.403471  0
O  O285  1  0.84994208  0.26056445  0.95564170  1  -1.182351  0  -0.3278  -0.564277  0  2.314881  0
O  O286  1  0.13425440  0.61767503  0.75103610  1  -1.117011  0  -0.341916  -0.555186  0  2.117559  0
O  O287  1  0.13859287  0.84662995  0.73567864  1  -1.165635  0  -0.324476  -0.560651  0  2.265971  0
O  O288  1  0.17540517  0.69590391  0.84383794  1  -1.167317  0  -0.337562  -0.57  0  2.201456  0
O  O289  1  0.88122555  0.37255381  0.73372823  1  -1.134498  0  -0.31688  -0.523479  0  2.082598  0
O  O290  1  0.21229242  0.81730563  0.64510853  1  -1.200407  0  -0.336494  -0.600777  0  2.319298  0
O  O291  1  0.03285163  0.21072482  0.85249149  1  -1.166756  0  -0.311891  -0.53344  0  2.267923  0
O  O292  1  0.82946322  0.13755192  0.68653757  1  -1.162777  0  -0.328579  -0.555683  0  2.289273  0
O  O293  1  0.91340060  0.05928240  0.89904164  1  -1.17084  0  -0.321171  -0.547629  0  2.254993  0
O  O294  1  0.61744372  0.08274098  0.26747436  1  -1.178641  0  -0.334889  -0.594331  0  2.306122  0
O  O295  1  0.65671559  0.31774592  0.31572346  1  -1.170747  0  -0.350856  -0.625575  0  2.403143  0
O  O296  1  0.65005057  0.26056531  0.45564851  1  -1.182624  0  -0.327828  -0.564463  0  2.314922  0
O  O297  1  0.36575016  0.61768791  0.25104206  1  -1.11699  0  -0.341725  -0.55508  0  2.11786  0
O  O298  1  0.36140504  0.84662427  0.23567790  1  -1.16597  0  -0.324411  -0.560486  0  2.26599  0
O  O299  1  0.32458856  0.69591265  0.34384146  1  -1.167332  0  -0.337616  -0.570038  0  2.201436  0
O  O300  1  0.61875527  0.37256678  0.23373014  1  -1.134501  0  -0.31682  -0.523365  0  2.083001  0
O  O301  1  0.28770243  0.81730040  0.14510879  1  -1.20059  0  -0.336478  -0.600717  0  2.31909  0
O  O302  1  0.46714842  0.21071019  0.35249729  1  -1.167605  0  -0.311899  -0.533435  0  2.267742  0
O  O303  1  0.67053359  0.13755067  0.18653515  1  -1.162845  0  -0.328547  -0.555543  0  2.289395  0
O  O304  1  0.58660385  0.05927962  0.39904932  1  -1.170857  0  -0.321099  -0.547518  0  2.254795  0
O  O305  1  0.11744248  0.91726537  0.23253318  1  -1.178625  0  -0.334989  -0.594365  0  2.306628  0
O  O306  1  0.15671437  0.68225476  0.18426500  1  -1.170853  0  -0.350782  -0.625478  0  2.40333  0
O  O307  1  0.15005194  0.73944143  0.04435753  1  -1.182219  0  -0.327855  -0.564395  0  2.31463  0
O  O308  1  0.86576396  0.38229289  0.24896545  1  -1.117314  0  -0.341835  -0.555165  0  2.117944  0
O  O309  1  0.86139838  0.15335277  0.26432343  1  -1.165526  0  -0.324343  -0.560502  0  2.266363  0
O  O310  1  0.82459024  0.30408297  0.15616200  1  -1.167499  0  -0.337554  -0.569927  0  2.201288  0
O  O311  1  0.11875109  0.62744921  0.26626932  1  -1.134158  0  -0.316886  -0.523471  0  2.082693  0
O  O312  1  0.78771133  0.18270187  0.35489795  1  -1.200202  0  -0.336452  -0.600829  0  2.319065  0
O  O313  1  0.96714240  0.78929364  0.14750445  1  -1.167677  0  -0.311964  -0.533535  0  2.268022  0
O  O314  1  0.17053706  0.86244056  0.31346087  1  -1.162874  0  -0.32849  -0.555565  0  2.289321  0
O  O315  1  0.08660663  0.94072426  0.10096033  1  -1.171058  0  -0.321239  -0.547664  0  2.255074  0
