# generated using pymatgen
data_Cu2H24C19(NO)6
_symmetry_space_group_name_H-M   'P 1'
_cell_length_a   12.99704063
_cell_length_b   13.95270465
_cell_length_c   16.42505148
_cell_angle_alpha   90.00046672
_cell_angle_beta   90.00143010
_cell_angle_gamma   90.00037924
_symmetry_Int_Tables_number   1
_chemical_formula_structural   Cu2H24C19(NO)6
_chemical_formula_sum   'Cu8 H96 C76 N24 O24'
_cell_volume   2978.58238672
_cell_formula_units_Z   4
loop_
 _symmetry_equiv_pos_site_id
 _symmetry_equiv_pos_as_xyz
  1  'x, y, z'
loop_
 _atom_site_type_symbol
 _atom_site_label
 _atom_site_symmetry_multiplicity
 _atom_site_fract_x
 _atom_site_fract_y
 _atom_site_fract_z
 _atom_site_occupancy
 _atom_site_pbe_bader_charge
 _atom_site_pbe_bader_spin_density
 _atom_site_pbe_cm5_charge
 _atom_site_pbe_ddec_charge
 _atom_site_pbe_ddec_spin_density
 _atom_site_pbe_ddec_sum_bond_order
 _atom_site_pbe_magmom
Cu  Cu0  1  0.72310773  0.20867884  0.34615473  1  1.033531  -0.457142  0.738402  0.71894  -0.585471  2.366948  -0.455
Cu  Cu1  1  0.77690762  0.79132687  0.84615997  1  1.033712  -0.457154  0.738348  0.718855  -0.585465  2.366909  -0.455
Cu  Cu2  1  0.22309981  0.29132584  0.65383982  1  1.033669  -0.45706  0.738441  0.718914  -0.585376  2.366982  -0.455
Cu  Cu3  1  0.27689336  0.70868211  0.15384336  1  1.033751  -0.45708  0.738488  0.71911  -0.58542  2.36675  -0.455
Cu  Cu4  1  0.44497715  0.47708074  0.41043946  1  1.024066  0.461897  0.720418  0.700914  0.588479  2.337393  0.46
Cu  Cu5  1  0.05503488  0.52292108  0.91044029  1  1.024065  0.461868  0.720359  0.700871  0.588456  2.337514  0.46
Cu  Cu6  1  0.94496602  0.02291600  0.58955826  1  1.024005  0.46191  0.720353  0.700868  0.588503  2.337197  0.46
Cu  Cu7  1  0.55503354  0.97708009  0.08955926  1  1.024146  0.461925  0.720342  0.70083  0.588522  2.337258  0.46
H  H8  1  0.71759891  0.12913430  0.17714549  1  0.560508  -4.9e-05  0.316669  0.270165  0.000208  1.015807  0.0
H  H9  1  0.78239725  0.87086549  0.67714895  1  0.560474  -4.9e-05  0.316709  0.270225  0.000208  1.015783  0.0
H  H10  1  0.21760074  0.37087394  0.82284591  1  0.560377  -4.8e-05  0.316722  0.27027  0.000209  1.015763  0.0
H  H11  1  0.28240007  0.62912847  0.32285388  1  0.560418  -4.9e-05  0.316769  0.270392  0.000209  1.015586  0.0
H  H12  1  0.65418409  0.24883749  0.56507527  1  0.077289  -0.002927  0.11472  0.083137  -0.00149  0.951417  -0.002
H  H13  1  0.84584163  0.75116839  0.06507316  1  0.077384  -0.002926  0.114767  0.083087  -0.00149  0.951317  -0.002
H  H14  1  0.15414591  0.25115530  0.43492523  1  0.077533  -0.002927  0.114788  0.083203  -0.001491  0.951238  -0.002
H  H15  1  0.34583304  0.74884747  0.93492484  1  0.077285  -0.002928  0.114739  0.083153  -0.001491  0.951332  -0.002
H  H16  1  0.54256060  0.46158482  0.19926417  1  0.074663  0.002549  0.118325  0.088286  0.001275  0.925006  0.001
H  H17  1  0.95743704  0.53841662  0.69927184  1  0.07465  0.002548  0.118323  0.088287  0.001274  0.925138  0.001
H  H18  1  0.04256398  0.03840585  0.80073594  1  0.074628  0.002548  0.11837  0.088368  0.001275  0.925081  0.001
H  H19  1  0.45743613  0.96158990  0.30073080  1  0.07462  0.002548  0.118374  0.088352  0.001275  0.92509  0.001
H  H20  1  0.49266708  0.16209015  0.52021202  1  0.060816  7.2e-05  0.094509  0.137188  5e-05  0.994737  0.0
H  H21  1  0.00735651  0.83791652  0.02023365  1  0.060871  7.2e-05  0.094525  0.137221  5e-05  0.994548  0.0
H  H22  1  0.99263319  0.33788681  0.47978543  1  0.060582  7.2e-05  0.094772  0.137636  5e-05  0.994545  0.0
H  H23  1  0.50734174  0.66210012  0.97979175  1  0.060596  7.2e-05  0.094646  0.137351  5e-05  0.994727  0.0
H  H24  1  0.57685608  0.08443119  0.57613630  1  0.045897  -0.000197  0.090129  0.124423  -0.000118  1.016477  0.0
H  H25  1  0.92316153  0.91558483  0.07615938  1  0.045923  -0.000197  0.089993  0.124226  -0.000118  1.016763  0.0
H  H26  1  0.07681487  0.41556328  0.42385779  1  0.045092  -0.000197  0.090161  0.124475  -0.000118  1.016521  0.0
H  H27  1  0.42315296  0.58442792  0.92386571  1  0.045751  -0.000197  0.090149  0.124449  -0.000118  1.01646  0.0
H  H28  1  0.57025052  0.07752230  0.46708085  1  0.065449  0.000175  0.090462  0.131235  0.000166  1.02221  0.0
H  H29  1  0.92978248  0.92250536  0.96710767  1  0.063691  0.000176  0.090418  0.131155  0.000166  1.022135  0.0
H  H30  1  0.07019434  0.42248072  0.53290520  1  0.064078  0.000175  0.090371  0.131144  0.000166  1.021714  0.0
H  H31  1  0.42976502  0.57752320  0.03291147  1  0.064807  0.000175  0.090489  0.131251  0.000166  1.022021  0.0
H  H32  1  0.11604396  0.21524482  0.18612977  1  0.049896  0.000239  0.099375  0.098278  0.000128  0.975694  0.0
H  H33  1  0.38395793  0.78474337  0.68612551  1  0.049818  0.000239  0.099353  0.098247  0.000128  0.975718  0.0
H  H34  1  0.61604253  0.28474845  0.81385110  1  0.049647  0.000239  0.099322  0.098251  0.000128  0.975705  0.0
H  H35  1  0.88395410  0.71522542  0.31385193  1  0.04963  0.000239  0.099314  0.098274  0.000128  0.975653  0.0
H  H36  1  0.07993408  0.16839886  0.09123274  1  0.04615  -0.000216  0.097762  0.093992  -0.000112  0.980543  0.0
H  H37  1  0.42005943  0.83160204  0.59123926  1  0.046311  -0.000216  0.097798  0.093999  -0.000112  0.980527  0.0
H  H38  1  0.57994828  0.33161068  0.90874254  1  0.04629  -0.000216  0.097806  0.094047  -0.000112  0.980562  0.0
H  H39  1  0.92005826  0.66837772  0.40874741  1  0.046142  -0.000216  0.097801  0.094097  -0.000112  0.980519  0.0
H  H40  1  0.94459076  0.28768424  0.93344059  1  0.019116  -0.000193  0.095591  0.130126  -0.000107  1.003715  0.0
H  H41  1  0.55541118  0.71232089  0.43343673  1  0.019081  -0.000194  0.095622  0.130175  -0.000108  1.003635  0.0
H  H42  1  0.44459609  0.21231966  0.06655834  1  0.019092  -0.000193  0.095629  0.13015  -0.000107  1.003613  0.0
H  H43  1  0.05541126  0.78767742  0.56655613  1  0.019025  -0.000192  0.095605  0.130128  -0.000107  1.003591  0.0
H  H44  1  0.04286254  0.20581072  0.96056799  1  0.02907  -9.1e-05  0.094485  0.131048  -3.9e-05  1.009078  0.0
H  H45  1  0.45713106  0.79419659  0.46056533  1  0.028928  -9.1e-05  0.094505  0.131176  -3.9e-05  1.009002  0.0
H  H46  1  0.54286602  0.29421937  0.03942239  1  0.028648  -9e-05  0.094416  0.130991  -3.9e-05  1.00886  0.0
H  H47  1  0.95714197  0.70577695  0.53942573  1  0.028605  -9e-05  0.094443  0.131009  -3.9e-05  1.008873  0.0
H  H48  1  0.06862688  0.30055769  0.89083302  1  0.096974  -0.000119  0.098548  0.147803  -7.5e-05  1.027368  0.0
H  H49  1  0.43137992  0.69943749  0.39082372  1  0.097357  -0.000119  0.09849  0.147787  -7.5e-05  1.027515  0.0
H  H50  1  0.56863034  0.19946110  0.10916578  1  0.097035  -0.000119  0.098608  0.147899  -7.4e-05  1.02739  0.0
H  H51  1  0.93138139  0.80054163  0.60916014  1  0.097164  -0.000119  0.09863  0.147925  -7.4e-05  1.027364  0.0
H  H52  1  0.16937618  0.49911272  0.22475581  1  0.111804  -2.1e-05  0.100951  0.146277  -3.4e-05  1.015937  0.0
H  H53  1  0.33061692  0.50089735  0.72474002  1  0.110973  -2.1e-05  0.100991  0.146228  -3.4e-05  1.015971  0.0
H  H54  1  0.66937613  0.00089665  0.77525655  1  0.111039  -2.1e-05  0.100935  0.146213  -3.4e-05  1.015905  0.0
H  H55  1  0.83061851  0.99910050  0.27525342  1  0.111527  -2.1e-05  0.100956  0.146276  -3.4e-05  1.01587  0.0
H  H56  1  0.17084650  0.37627144  0.25178119  1  0.05591  -8.1e-05  0.096285  0.132877  -8.3e-05  1.016249  0.0
H  H57  1  0.32914591  0.62373173  0.75175891  1  0.056172  -8.1e-05  0.096271  0.132792  -8.3e-05  1.016216  0.0
H  H58  1  0.67084802  0.12372791  0.74822511  1  0.055852  -8.1e-05  0.096277  0.132789  -8.3e-05  1.016269  0.0
H  H59  1  0.82914654  0.87627041  0.24821927  1  0.055666  -8.1e-05  0.096258  0.132817  -8.3e-05  1.016386  0.0
H  H60  1  0.05490431  0.44263244  0.25906306  1  0.02529  -0.000123  0.098247  0.139818  -6e-05  0.98572  0.0
H  H61  1  0.44508911  0.55737151  0.75905113  1  0.025807  -0.000123  0.098129  0.139613  -6e-05  0.985938  0.0
H  H62  1  0.55491358  0.05735831  0.74095131  1  0.025505  -0.000123  0.098187  0.13974  -6e-05  0.985926  0.0
H  H63  1  0.94508306  0.94263565  0.24094091  1  0.025545  -0.000123  0.098164  0.139659  -6.1e-05  0.985704  0.0
H  H64  1  0.78852580  0.08052249  0.03980460  1  0.075739  -9e-06  0.102272  0.150591  1.2e-05  0.998954  0.0
H  H65  1  0.71145835  0.91947885  0.53980699  1  0.075825  -9e-06  0.102317  0.150661  1.2e-05  0.998984  0.0
H  H66  1  0.28853922  0.41947615  0.96018820  1  0.075894  -9e-06  0.102359  0.150706  1.2e-05  0.998873  0.0
H  H67  1  0.21146591  0.58050823  0.46018956  1  0.075742  -9e-06  0.102287  0.150626  1.2e-05  0.99899  0.0
H  H68  1  0.92055943  0.10049240  0.01796677  1  0.041068  -4.2e-05  0.096964  0.131868  -1.8e-05  1.014293  0.0
H  H69  1  0.57942403  0.89950658  0.51797129  1  0.040947  -4.2e-05  0.09697  0.131917  -1.8e-05  1.014355  0.0
H  H70  1  0.42058109  0.39951135  0.98202438  1  0.040971  -4.2e-05  0.096962  0.131887  -1.8e-05  1.014323  0.0
H  H71  1  0.07942319  0.60048399  0.48202814  1  0.040901  -4.2e-05  0.096978  0.131971  -1.8e-05  1.014223  0.0
H  H72  1  0.83003508  0.19397930  0.00347857  1  0.046502  9.3e-05  0.097144  0.135866  4.9e-05  0.996268  0.0
H  H73  1  0.66995023  0.80602455  0.50348363  1  0.046305  9.3e-05  0.097234  0.135961  4.9e-05  0.996195  0.0
H  H74  1  0.33005731  0.30601601  0.99651444  1  0.0463  9.3e-05  0.097254  0.135993  4.9e-05  0.996134  0.0
H  H75  1  0.16994744  0.69396872  0.49651637  1  0.046529  9.3e-05  0.097217  0.136009  4.9e-05  0.996185  0.0
H  H76  1  0.93778090  0.30923782  0.35246037  1  0.057842  0.000298  0.096604  0.127612  0.000212  1.015272  0.0
H  H77  1  0.56221464  0.69075936  0.85246067  1  0.057799  0.000298  0.096639  0.127658  0.000211  1.015379  0.0
H  H78  1  0.43776515  0.19074454  0.64753659  1  0.057538  0.000298  0.096673  0.127666  0.000212  1.015172  0.0
H  H79  1  0.06223475  0.80924759  0.14754267  1  0.057896  0.000298  0.096671  0.127642  0.000212  1.015248  0.0
H  H80  1  0.05533302  0.27315800  0.30702397  1  0.042517  -3e-05  0.092963  0.126982  -5.7e-05  1.034043  0.0
H  H81  1  0.44466652  0.72684569  0.80702477  1  0.042513  -3e-05  0.092971  0.127054  -5.7e-05  1.034053  0.0
H  H82  1  0.55531275  0.22683418  0.69295692  1  0.042867  -3e-05  0.092976  0.127064  -5.7e-05  1.034148  0.0
H  H83  1  0.94468469  0.77316075  0.19296117  1  0.042658  -3e-05  0.092983  0.127063  -5.7e-05  1.034109  0.0
H  H84  1  0.98546778  0.19276529  0.37055841  1  0.097499  0.000211  0.099362  0.152633  0.000185  1.000891  0.0
H  H85  1  0.51453217  0.80723421  0.87056222  1  0.097418  0.000212  0.099359  0.152628  0.000185  1.000919  0.0
H  H86  1  0.48546229  0.30722453  0.62943159  1  0.097309  0.000212  0.099347  0.152692  0.000185  1.001085  0.0
H  H87  1  0.01453396  0.69277173  0.12943653  1  0.097568  0.000212  0.099327  0.152588  0.000185  1.000975  0.0
H  H88  1  0.12788769  0.54509223  0.07951766  1  0.568582  0.000101  0.318601  0.27524  -0.000141  1.006154  0.0
H  H89  1  0.37209468  0.45490498  0.57950298  1  0.568058  0.000101  0.318575  0.275217  -0.000141  1.006018  0.0
H  H90  1  0.62789775  0.95491727  0.92049125  1  0.568514  0.000101  0.31857  0.275214  -0.000141  1.006169  0.0
H  H91  1  0.87211224  0.04507339  0.42048539  1  0.568661  0.0001  0.318536  0.275189  -0.000141  1.006206  0.0
H  H92  1  0.45991797  0.30020004  0.18912950  1  0.035862  -0.000127  0.0941  0.138534  -0.000104  1.016314  0.0
H  H93  1  0.04008324  0.69979321  0.68911907  1  0.029968  -0.000127  0.094148  0.138553  -0.000104  1.016427  0.0
H  H94  1  0.95992200  0.19979321  0.81088374  1  0.030102  -0.000128  0.094128  0.138499  -0.000104  1.016371  0.0
H  H95  1  0.54008223  0.80021432  0.31088628  1  0.030251  -0.000128  0.094061  0.138405  -0.000104  1.016378  0.0
H  H96  1  0.38565209  0.38878740  0.13619712  1  0.054406  0.0004  0.091624  0.127422  0.000236  1.02039  0.0
H  H97  1  0.11433438  0.61120104  0.63618694  1  0.054258  0.000401  0.091658  0.127421  0.000236  1.020511  0.0
H  H98  1  0.88566100  0.11120969  0.86380856  1  0.054324  0.000401  0.091671  0.12742  0.000236  1.020486  0.0
H  H99  1  0.61433566  0.88879619  0.36381744  1  0.054215  0.000401  0.091658  0.12734  0.000236  1.020563  0.0
H  H100  1  0.34540816  0.34648483  0.23377435  1  0.024244  1.8e-05  0.090614  0.12637  -3e-06  1.008272  0.0
H  H101  1  0.15457522  0.65352317  0.73376282  1  0.024421  1.8e-05  0.09066  0.126441  -3e-06  1.008476  0.0
H  H102  1  0.84541661  0.15351487  0.76622810  1  0.024413  1.8e-05  0.090671  0.126405  -3e-06  1.00833  0.0
H  H103  1  0.65458391  0.84648004  0.26623626  1  0.024357  1.7e-05  0.090654  0.12639  -3e-06  1.008361  0.0
C  C104  1  0.58281358  0.32602091  0.42334803  1  1.378126  -0.001434  0.209543  0.354715  -0.00084  4.221731  -0.003
C  C105  1  0.91720574  0.67399415  0.92335279  1  1.378378  -0.00144  0.209448  0.354693  -0.000842  4.221935  -0.003
C  C106  1  0.08278547  0.17398005  0.57665593  1  1.377889  -0.001441  0.209295  0.354315  -0.000841  4.222253  -0.003
C  C107  1  0.41720450  0.82601928  0.07665757  1  1.378096  -0.001439  0.209543  0.354663  -0.000842  4.222139  -0.003
C  C108  1  0.95394825  0.20104578  0.17028113  1  0.023563  -0.001557  -0.039259  -0.1315  -0.001063  3.969351  -0.001
C  C109  1  0.54605001  0.79894463  0.67028246  1  0.023843  -0.001558  -0.039337  -0.131507  -0.001064  3.969212  -0.001
C  C110  1  0.45395363  0.29895173  0.82970886  1  0.024257  -0.001556  -0.039232  -0.131321  -0.001063  3.969055  -0.001
C  C111  1  0.04604971  0.70104000  0.32971204  1  0.024388  -0.001556  -0.039255  -0.131473  -0.001063  3.9692  -0.001
C  C112  1  0.57691630  0.35045730  0.33379460  1  1.379141  0.000684  0.210355  0.360014  0.000208  4.214792  0.002
C  C113  1  0.92308789  0.64956263  0.83379688  1  1.378676  0.000687  0.210381  0.360085  0.00021  4.215131  0.002
C  C114  1  0.07690699  0.14955365  0.66620863  1  1.37873  0.000682  0.210358  0.360057  0.000209  4.214787  0.002
C  C115  1  0.42309119  0.85044869  0.16621299  1  1.378632  0.000683  0.210368  0.36  0.000208  4.215066  0.002
C  C116  1  0.75747020  0.14722283  0.50867733  1  1.568535  -0.000483  0.216184  0.584251  -0.001291  4.099777  0.0
C  C117  1  0.74254836  0.85278251  0.00867144  1  1.56899  -0.000485  0.216297  0.584093  -0.001292  4.099924  0.0
C  C118  1  0.25742606  0.35276487  0.49132642  1  1.568191  -0.000479  0.216261  0.584167  -0.001289  4.099747  0.0
C  C119  1  0.24255005  0.64724490  0.99132390  1  1.56826  -0.000481  0.216222  0.583828  -0.001291  4.100015  0.0
C  C120  1  0.40892040  0.53390394  0.24570740  1  1.566453  0.000631  0.217648  0.581426  0.001319  4.105031  0.001
C  C121  1  0.09109414  0.46609199  0.74570428  1  1.56604  0.00063  0.217604  0.581447  0.001319  4.105543  0.001
C  C122  1  0.90890761  0.96608435  0.75429002  1  1.565659  0.000629  0.217359  0.581091  0.001319  4.105036  0.001
C  C123  1  0.59109330  0.03392048  0.25429009  1  1.565796  0.00063  0.217294  0.580886  0.001319  4.105181  0.001
C  C124  1  0.92060275  0.21447716  0.25138440  1  0.418373  -0.000319  0.092712  0.203243  -0.000592  4.02065  -0.001
C  C125  1  0.57940422  0.78551690  0.75138873  1  0.418034  -0.000318  0.092746  0.203137  -0.000591  4.020652  -0.001
C  C126  1  0.42059240  0.28552230  0.74861345  1  0.418261  -0.000317  0.092709  0.203168  -0.00059  4.020753  -0.001
C  C127  1  0.07940761  0.71447152  0.24861922  1  0.418337  -0.000317  0.092704  0.203186  -0.000589  4.020979  -0.001
C  C128  1  0.07138741  0.32074639  0.09865478  1  0.015217  0.001595  -0.04105  -0.135381  0.001071  3.973301  0.001
C  C129  1  0.42861018  0.67925243  0.59864093  1  0.015562  0.001595  -0.040932  -0.135387  0.001071  3.973439  0.001
C  C130  1  0.57139568  0.17926309  0.90135504  1  0.015616  0.001596  -0.04093  -0.135305  0.001071  3.973301  0.001
C  C131  1  0.92860525  0.82072810  0.40134592  1  0.015441  0.001595  -0.040779  -0.13501  0.001071  3.973327  0.001
C  C132  1  0.65427464  0.20052617  0.51208957  1  0.340903  -0.00106  0.007183  0.069882  -0.00107  3.898261  0.001
C  C133  1  0.84575479  0.79949425  0.01209754  1  0.340812  -0.001061  0.007053  0.070168  -0.00107  3.897673  0.001
C  C134  1  0.15424002  0.29947594  0.48791031  1  0.340475  -0.001058  0.007089  0.069583  -0.001069  3.898326  0.001
C  C135  1  0.34574060  0.70053379  0.98791263  1  0.340451  -0.001058  0.007131  0.069861  -0.001068  3.898081  0.001
C  C136  1  0.05746686  0.34412493  0.01560780  1  0.46944  0.000289  0.091745  0.201414  0.00064  4.023229  0.001
C  C137  1  0.44253196  0.65587596  0.51559467  1  0.469317  0.000289  0.091897  0.201712  0.000641  4.022988  0.001
C  C138  1  0.55747220  0.15589164  0.98439809  1  0.469147  0.000292  0.091676  0.201419  0.000643  4.023384  0.001
C  C139  1  0.94253212  0.84410036  0.48439001  1  0.46963  0.000292  0.091573  0.201228  0.000643  4.023518  0.001
C  C140  1  0.86777477  0.16497991  0.12868089  1  0.423305  0.000803  0.100775  0.200062  0.000346  3.975286  0.0
C  C141  1  0.63222064  0.83501583  0.62868661  1  0.423386  0.000803  0.100874  0.200136  0.000346  3.974979  0.0
C  C142  1  0.36778018  0.33501994  0.87131957  1  0.423292  0.000804  0.100776  0.20001  0.000346  3.974973  0.0
C  C143  1  0.13222062  0.66496789  0.37132420  1  0.423429  0.000803  0.100889  0.200267  0.000346  3.974963  0.0
C  C144  1  0.47532121  0.44377535  0.23744780  1  0.342106  0.00075  0.008139  0.071818  0.000878  3.916813  -0.001
C  C145  1  0.02467998  0.55621263  0.73744704  1  0.342503  0.000752  0.00814  0.071864  0.000879  3.916529  -0.001
C  C146  1  0.97531808  0.05620867  0.76256026  1  0.342378  0.000753  0.008037  0.071707  0.000881  3.916505  -0.001
C  C147  1  0.52468309  0.94379337  0.26255861  1  0.342503  0.000753  0.008058  0.071788  0.000881  3.916436  -0.001
C  C148  1  0.56755938  0.12584651  0.51980959  1  -0.101505  -0.000436  -0.240025  -0.399738  -0.000271  3.886352  0.0
C  C149  1  0.93247031  0.87417900  0.01983440  1  -0.100482  -0.000436  -0.239768  -0.399474  -0.000271  3.886043  0.0
C  C150  1  0.06750888  0.37414718  0.48017701  1  -0.099406  -0.000437  -0.240146  -0.400028  -0.000272  3.885785  0.0
C  C151  1  0.43245688  0.62585029  0.98018723  1  -0.100624  -0.000437  -0.24014  -0.399876  -0.000271  3.886103  0.0
C  C152  1  0.09925696  0.40717650  0.13655295  1  0.423502  -0.001015  0.101595  0.20322  -0.000487  3.973597  0.0
C  C153  1  0.40073798  0.59282269  0.63653308  1  0.424095  -0.001015  0.101533  0.203142  -0.000487  3.973781  0.0
C  C154  1  0.59926650  0.09283244  0.86346229  1  0.42402  -0.001015  0.101472  0.203079  -0.000487  3.973655  0.0
C  C155  1  0.90073784  0.90715696  0.36345565  1  0.42363  -0.001014  0.101425  0.203056  -0.000487  3.97386  0.0
C  C156  1  0.05933492  0.22307014  0.13678571  1  0.003575  -7e-06  -0.146134  -0.147842  -2e-06  4.025515  0.0
C  C157  1  0.44066772  0.77692260  0.63678373  1  0.003275  -7e-06  -0.146138  -0.147788  -2e-06  4.025692  0.0
C  C158  1  0.55934037  0.27693067  0.86319891  1  0.002529  -6e-06  -0.146194  -0.147995  -2e-06  4.025647  0.0
C  C159  1  0.94065781  0.72305585  0.36320031  1  0.002777  -7e-06  -0.146225  -0.148144  -2e-06  4.025277  0.0
C  C160  1  0.02725442  0.28119528  0.94656631  1  -0.050429  9.9e-05  -0.237994  -0.434916  -1.8e-05  3.990489  0.0
C  C161  1  0.47274567  0.71881119  0.44655979  1  -0.050915  9.9e-05  -0.238038  -0.435138  -1.8e-05  3.990386  0.0
C  C162  1  0.52725472  0.21882899  0.05343472  1  -0.050523  0.0001  -0.238053  -0.435037  -1.7e-05  3.990113  0.0
C  C163  1  0.97274909  0.78116531  0.55342976  1  -0.050848  0.0001  -0.238063  -0.435034  -1.7e-05  3.99007  0.0
C  C164  1  0.12487577  0.43239862  0.22235150  1  -0.07782  0.000199  -0.229776  -0.420514  9.6e-05  3.950728  0.0
C  C165  1  0.37512341  0.56760282  0.72233217  1  -0.077588  0.000199  -0.229807  -0.420267  9.6e-05  3.950961  0.0
C  C166  1  0.62487705  0.06760617  0.77766181  1  -0.077133  0.000199  -0.229783  -0.420355  9.6e-05  3.950887  0.0
C  C167  1  0.87511536  0.93238742  0.27765727  1  -0.077372  0.000199  -0.229748  -0.420354  9.6e-05  3.95069  0.0
C  C168  1  0.85087485  0.13345007  0.04305409  1  -0.054648  -0.000354  -0.229803  -0.420991  -0.000225  3.95612  0.0
C  C169  1  0.64911402  0.86655416  0.54305672  1  -0.054303  -0.000354  -0.229999  -0.421237  -0.000225  3.956127  0.0
C  C170  1  0.35089010  0.36655182  0.95694237  1  -0.054368  -0.000355  -0.229952  -0.421175  -0.000226  3.95631  0.0
C  C171  1  0.14911801  0.63343397  0.45694348  1  -0.054228  -0.000355  -0.22994  -0.421319  -0.000226  3.956366  0.0
C  C172  1  0.97820944  0.24888822  0.32391332  1  -0.077598  -3.6e-05  -0.237921  -0.437126  7.4e-05  3.98648  0.0
C  C173  1  0.52178828  0.75110797  0.82391750  1  -0.077302  -3.7e-05  -0.237956  -0.437189  7.4e-05  3.986705  0.0
C  C174  1  0.47819502  0.25110729  0.67607593  1  -0.077341  -3.5e-05  -0.237987  -0.437304  7.5e-05  3.986793  0.0
C  C175  1  0.02180271  0.74889514  0.17608322  1  -0.077662  -3.5e-05  -0.237902  -0.437096  7.5e-05  3.986574  0.0
C  C176  1  0.41242365  0.36444482  0.19604795  1  -0.046311  0.000729  -0.240242  -0.397325  0.000472  3.885817  0.0
C  C177  1  0.08756854  0.63555208  0.69603680  1  -0.040796  0.000729  -0.240467  -0.397507  0.000472  3.886125  0.0
C  C178  1  0.91243009  0.13554957  0.80395765  1  -0.040841  0.000728  -0.240401  -0.397305  0.000472  3.885842  0.0
C  C179  1  0.58757239  0.86445502  0.30396035  1  -0.040804  0.000728  -0.240345  -0.397172  0.000472  3.885743  0.0
N  N180  1  0.09936554  0.47506843  0.07787209  1  -0.863291  0.000316  -0.283294  -0.13319  -2.3e-05  3.674231  0.0
N  N181  1  0.40062448  0.52493234  0.57785419  1  -0.863136  0.000316  -0.283262  -0.133015  -2.4e-05  3.673699  0.0
N  N182  1  0.59937567  0.02494194  0.92214559  1  -0.863383  0.000313  -0.2832  -0.133  -2.5e-05  3.673808  0.0
N  N183  1  0.90062975  0.97504802  0.42213880  1  -0.86317  0.000312  -0.283194  -0.133059  -2.6e-05  3.674157  0.0
N  N184  1  0.79029567  0.16064170  0.18330277  1  -0.825719  -0.000622  -0.282963  -0.133862  -0.000204  3.683255  0.0
N  N185  1  0.70970300  0.83935456  0.68331006  1  -0.825561  -0.000622  -0.283036  -0.134081  -0.000204  3.683414  0.0
N  N186  1  0.29029246  0.33935551  0.81669676  1  -0.825524  -0.000623  -0.283031  -0.134063  -0.000205  3.683293  0.0
N  N187  1  0.20970584  0.66063824  0.31669986  1  -0.826167  -0.000625  -0.283128  -0.134219  -0.000206  3.683509  0.0
N  N188  1  0.82078466  0.18951900  0.25795499  1  -0.748568  -0.036757  -0.297227  -0.25554  -0.025298  3.597016  -0.031
N  N189  1  0.67921944  0.81047584  0.75795660  1  -0.749067  -0.036756  -0.297174  -0.255333  -0.025299  3.597249  -0.031
N  N190  1  0.32077505  0.31047984  0.74204210  1  -0.74889  -0.036753  -0.297165  -0.2554  -0.025298  3.597066  -0.031
N  N191  1  0.17922014  0.68951678  0.24204845  1  -0.748618  -0.03675  -0.297215  -0.255517  -0.025295  3.597451  -0.031
N  N192  1  0.50693266  0.41535840  0.31828916  1  -1.198273  0.07688  -0.411923  -0.406802  0.049946  3.626024  0.064
N  N193  1  0.99307488  0.58464633  0.81829420  1  -1.198325  0.076899  -0.411869  -0.40693  0.049957  3.625578  0.064
N  N194  1  0.00693262  0.08462847  0.68171390  1  -1.197422  0.076879  -0.411855  -0.406857  0.049943  3.625414  0.064
N  N195  1  0.49306913  0.91537116  0.18171584  1  -1.197586  0.076872  -0.411805  -0.406717  0.04994  3.625467  0.064
N  N196  1  0.07530569  0.43840988  0.00417333  1  -0.746145  0.03377  -0.294287  -0.258004  0.023183  3.590383  0.029
N  N197  1  0.42468892  0.56159234  0.50415798  1  -0.746485  0.033786  -0.294391  -0.258264  0.023194  3.590264  0.029
N  N198  1  0.57530995  0.06161038  0.99584022  1  -0.745868  0.033769  -0.294179  -0.258016  0.023182  3.590363  0.029
N  N199  1  0.92469626  0.93838172  0.49583305  1  -0.746114  0.033762  -0.294128  -0.257931  0.023177  3.59021  0.029
N  N200  1  0.64322728  0.25250279  0.43655746  1  -1.202171  -0.079214  -0.411627  -0.397918  -0.05144  3.621878  -0.065
N  N201  1  0.85680707  0.74751741  0.93656215  1  -1.201402  -0.07922  -0.411555  -0.398018  -0.051443  3.622139  -0.065
N  N202  1  0.14318927  0.24750928  0.56344404  1  -1.201426  -0.079226  -0.411533  -0.397693  -0.051449  3.621747  -0.065
N  N203  1  0.35679413  0.75249995  0.06344763  1  -1.201709  -0.079238  -0.411582  -0.397877  -0.051458  3.621896  -0.065
O  O204  1  0.80236391  0.14444467  0.43781954  1  -1.122475  -0.075703  -0.316917  -0.535084  -0.049193  2.351501  -0.07
O  O205  1  0.69766433  0.85556049  0.93782122  1  -1.12263  -0.075668  -0.316937  -0.534857  -0.049169  2.352003  -0.07
O  O206  1  0.30233048  0.35555047  0.56218815  1  -1.121887  -0.075723  -0.316963  -0.534818  -0.049203  2.351373  -0.07
O  O207  1  0.19765365  0.64446019  0.06219455  1  -1.121433  -0.075752  -0.316877  -0.534751  -0.049222  2.351264  -0.07
O  O208  1  0.63399217  0.30563725  0.28288254  1  -1.09506  -0.07272  -0.308413  -0.465073  -0.047252  2.253853  -0.066
O  O209  1  0.86602810  0.69438076  0.78289070  1  -1.094886  -0.072683  -0.30838  -0.464961  -0.047227  2.254629  -0.066
O  O210  1  0.13397095  0.19438481  0.71711390  1  -1.095327  -0.072688  -0.308325  -0.464947  -0.047233  2.254251  -0.066
O  O211  1  0.36602422  0.80562232  0.21711074  1  -1.095381  -0.072665  -0.308381  -0.465013  -0.047219  2.254482  -0.066
O  O212  1  0.38925641  0.56289647  0.31945380  1  -1.131723  0.072846  -0.316364  -0.534769  0.047589  2.357087  0.068
O  O213  1  0.11076583  0.43710090  0.81945453  1  -1.13168  0.07283  -0.316309  -0.534776  0.047573  2.356967  0.067
O  O214  1  0.88924956  0.93708741  0.68055784  1  -1.131612  0.072789  -0.316277  -0.534552  0.047551  2.357601  0.067
O  O215  1  0.61075133  0.06291242  0.18055607  1  -1.131683  0.072793  -0.316305  -0.53452  0.047553  2.357541  0.067
O  O216  1  0.52875840  0.37328709  0.47449514  1  -1.085108  0.077352  -0.301986  -0.458211  0.050316  2.26378  0.07
O  O217  1  0.97126483  0.62671842  0.97449516  1  -1.085257  0.077367  -0.301921  -0.458182  0.050329  2.263708  0.07
O  O218  1  0.02874142  0.12671640  0.52550471  1  -1.085446  0.077326  -0.301796  -0.457881  0.050301  2.26398  0.07
O  O219  1  0.47125001  0.87328316  0.02550653  1  -1.085307  0.077331  -0.302017  -0.458199  0.050303  2.263955  0.07
O  O220  1  0.79056473  0.10663110  0.57112481  1  -1.170576  -0.019334  -0.31992  -0.547396  -0.012293  2.215075  -0.015
O  O221  1  0.70943733  0.89335405  0.07113012  1  -1.170527  -0.01934  -0.320065  -0.547562  -0.012298  2.214806  -0.015
O  O222  1  0.29054660  0.39335537  0.42887655  1  -1.17031  -0.019341  -0.320026  -0.547497  -0.012299  2.21467  -0.015
O  O223  1  0.20943523  0.60666240  0.92888284  1  -1.17095  -0.019335  -0.320063  -0.547266  -0.012295  2.215315  -0.015
O  O224  1  0.37469329  0.57291246  0.18298410  1  -1.17549  0.019415  -0.313879  -0.54661  0.01231  2.251459  0.015
O  O225  1  0.12532311  0.42709219  0.68299114  1  -1.1753  0.019397  -0.313834  -0.546512  0.012298  2.252232  0.015
O  O226  1  0.87465989  0.92708279  0.81702542  1  -1.175104  0.019412  -0.313728  -0.546517  0.012307  2.25107  0.015
O  O227  1  0.62533838  0.07292838  0.31702340  1  -1.17511  0.019411  -0.313633  -0.546362  0.012306  2.251274  0.015
