# generated using pymatgen
data_ZnH8(C3N2)3
_symmetry_space_group_name_H-M   'P 1'
_cell_length_a   16.20214514
_cell_length_b   16.69242698
_cell_length_c   19.08241536
_cell_angle_alpha   90.00007402
_cell_angle_beta   90.00003090
_cell_angle_gamma   90.00004283
_symmetry_Int_Tables_number   1
_chemical_formula_structural   ZnH8(C3N2)3
_chemical_formula_sum   'Zn16 H128 C144 N96'
_cell_volume   5160.89886176
_cell_formula_units_Z   16
loop_
 _symmetry_equiv_pos_site_id
 _symmetry_equiv_pos_as_xyz
  1  'x, y, z'
loop_
 _atom_site_type_symbol
 _atom_site_label
 _atom_site_symmetry_multiplicity
 _atom_site_fract_x
 _atom_site_fract_y
 _atom_site_fract_z
 _atom_site_occupancy
 _atom_site_pbe_bader_charge
 _atom_site_pbe_bader_spin_density
 _atom_site_pbe_cm5_charge
 _atom_site_pbe_ddec_charge
 _atom_site_pbe_ddec_spin_density
 _atom_site_pbe_ddec_sum_bond_order
 _atom_site_pbe_magmom
Zn  Zn0  1  0.53640519  0.27106128  0.59522734  1  1.201526  0  0.743274  0.658259  0  2.515232  0
Zn  Zn1  1  0.96359617  0.72893876  0.09522967  1  1.201464  0  0.743196  0.658074  0  2.515389  0
Zn  Zn2  1  0.46359969  0.77106127  0.90477123  1  1.201464  0  0.743207  0.658169  0  2.51526  0
Zn  Zn3  1  0.03640219  0.22893826  0.40477070  1  1.201468  0  0.743218  0.658175  0  2.51532  0
Zn  Zn4  1  0.46359766  0.72893761  0.40477108  1  1.201478  0  0.743203  0.658114  0  2.515382  0
Zn  Zn5  1  0.03640236  0.27106132  0.90477189  1  1.201473  0  0.743268  0.658243  0  2.515251  0
Zn  Zn6  1  0.53640131  0.22893762  0.09522824  1  1.201474  0  0.743222  0.658194  0  2.515353  0
Zn  Zn7  1  0.96359634  0.77106123  0.59522824  1  1.201491  0  0.743286  0.658263  0  2.515293  0
Zn  Zn8  1  0.85602641  0.11430234  0.67114486  1  1.198533  0  0.738582  0.658966  0  2.502231  0
Zn  Zn9  1  0.64397314  0.88569781  0.17114513  1  1.198472  0  0.738584  0.658945  0  2.502274  0
Zn  Zn10  1  0.14397217  0.61430438  0.82885457  1  1.198627  0  0.738595  0.659018  0  2.502226  0
Zn  Zn11  1  0.35602533  0.38569803  0.32885385  1  1.198506  0  0.738587  0.659001  0  2.502287  0
Zn  Zn12  1  0.14397459  0.88569655  0.32885513  1  1.198615  0  0.73858  0.658952  0  2.502262  0
Zn  Zn13  1  0.35602724  0.11430287  0.82885277  1  1.198485  0  0.738586  0.659069  0  2.502211  0
Zn  Zn14  1  0.85602450  0.38569690  0.17114542  1  1.198459  0  0.738609  0.65903  0  2.502266  0
Zn  Zn15  1  0.64397443  0.61430265  0.67114509  1  1.198486  0  0.738585  0.659002  0  2.502291  0
H  H16  1  0.70263071  0.12923728  0.77560069  1  0.077162  0  0.098343  0.109328  0  1.02743  0
H  H17  1  0.79737076  0.87076303  0.27560258  1  0.077186  0  0.098341  0.109327  0  1.027447  0
H  H18  1  0.29736912  0.62923808  0.72439772  1  0.077225  0  0.098345  0.109296  0  1.027443  0
H  H19  1  0.20263079  0.37076358  0.22439743  1  0.077193  0  0.098311  0.109226  0  1.027485  0
H  H20  1  0.29736967  0.87076221  0.22439878  1  0.077185  0  0.098344  0.109252  0  1.027474  0
H  H21  1  0.20263271  0.12923586  0.72439636  1  0.076951  0  0.098323  0.109259  0  1.027491  0
H  H22  1  0.70263003  0.37076380  0.27560227  1  0.077199  0  0.098318  0.109272  0  1.027458  0
H  H23  1  0.79737206  0.62923711  0.77559942  1  0.077107  0  0.098341  0.109267  0  1.027477  0
H  H24  1  0.62363752  0.17703924  0.87997428  1  0.069332  0  0.087087  0.083719  0  1.046477  0
H  H25  1  0.87636278  0.82296062  0.37997615  1  0.069309  0  0.087083  0.083713  0  1.046468  0
H  H26  1  0.37636235  0.67703935  0.62002418  1  0.069341  0  0.087079  0.083736  0  1.046509  0
H  H27  1  0.12363873  0.32296276  0.12002328  1  0.069142  0  0.087087  0.083737  0  1.04646  0
H  H28  1  0.37636286  0.82296024  0.12002519  1  0.069331  0  0.087089  0.083726  0  1.046463  0
H  H29  1  0.12363883  0.17703947  0.62002436  1  0.069351  0  0.087078  0.083705  0  1.046544  0
H  H30  1  0.62363865  0.32296433  0.37997686  1  0.069128  0  0.087091  0.083754  0  1.046433  0
H  H31  1  0.87636536  0.67703613  0.87997514  1  0.069092  0  0.087061  0.083694  0  1.046421  0
H  H32  1  0.69255191  0.25211290  0.97495602  1  0.072884  0  0.088379  0.087548  0  1.049766  0
H  H33  1  0.80744845  0.74788530  0.47495673  1  0.072945  0  0.08838  0.08754  0  1.049776  0
H  H34  1  0.30744740  0.75211282  0.52504252  1  0.072883  0  0.088371  0.087527  0  1.049802  0
H  H35  1  0.19255238  0.24788735  0.02504261  1  0.072883  0  0.088361  0.087519  0  1.049812  0
H  H36  1  0.30744723  0.74788539  0.02504449  1  0.072885  0  0.088399  0.087592  0  1.049767  0
H  H37  1  0.19255131  0.25211658  0.52504326  1  0.072941  0  0.088375  0.087555  0  1.049759  0
H  H38  1  0.69255298  0.24788906  0.47495747  1  0.072889  0  0.088384  0.087562  0  1.049769  0
H  H39  1  0.80744985  0.75210794  0.97495790  1  0.073027  0  0.088378  0.087564  0  1.049795  0
H  H40  1  0.84307767  0.27895567  0.97130873  1  0.053061  0  0.091088  0.096798  0  1.050549  0
H  H41  1  0.65692270  0.72104313  0.47130777  1  0.053059  0  0.091087  0.096791  0  1.050554  0
H  H42  1  0.15692166  0.77895668  0.52869089  1  0.053023  0  0.091096  0.09677  0  1.050612  0
H  H43  1  0.34307750  0.22104050  0.02869311  1  0.053073  0  0.091086  0.096801  0  1.050544  0
H  H44  1  0.15692210  0.72104142  0.02869283  1  0.053079  0  0.091074  0.096783  0  1.050555  0
H  H45  1  0.34307645  0.27895935  0.52869274  1  0.05305  0  0.091135  0.096806  0  1.050744  0
H  H46  1  0.84307749  0.22104401  0.47130753  1  0.053096  0  0.091081  0.096798  0  1.050528  0
H  H47  1  0.65692411  0.77895060  0.97131055  1  0.05315  0  0.091085  0.096774  0  1.050492  0
H  H48  1  0.08031129  0.19591939  0.78345284  1  0.059473  0  0.096071  0.140865  0  1.04405  0
H  H49  1  0.41968988  0.80408056  0.28345314  1  0.059598  0  0.09609  0.140885  0  1.044024  0
H  H50  1  0.91968859  0.69592184  0.71654669  1  0.059336  0  0.096053  0.140839  0  1.04406  0
H  H51  1  0.58031100  0.30407898  0.21654732  1  0.059489  0  0.09607  0.140904  0  1.044015  0
H  H52  1  0.91968909  0.80407650  0.21654820  1  0.059375  0  0.096059  0.140865  0  1.044053  0
H  H53  1  0.58031297  0.19592372  0.71654476  1  0.059447  0  0.096075  0.140895  0  1.043979  0
H  H54  1  0.08030932  0.30408125  0.28345225  1  0.059613  0  0.096061  0.140871  0  1.044107  0
H  H55  1  0.41969185  0.69592410  0.78345320  1  0.059496  0  0.096078  0.140898  0  1.044025  0
H  H56  1  0.03386925  0.12737088  0.72435492  1  0.054427  0  0.098909  0.148492  0  0.990597  0
H  H57  1  0.46613127  0.87262899  0.22435585  1  0.054368  0  0.098916  0.14851  0  0.99057  0
H  H58  1  0.96612996  0.62737225  0.77564400  1  0.054433  0  0.09892  0.148535  0  0.990551  0
H  H59  1  0.53386904  0.37262926  0.27564468  1  0.054454  0  0.098914  0.148523  0  0.990575  0
H  H60  1  0.96612928  0.87262501  0.27564716  1  0.054546  0  0.098926  0.148536  0  0.990629  0
H  H61  1  0.53387219  0.12737410  0.77564362  1  0.054474  0  0.098923  0.148506  0  0.990643  0
H  H62  1  0.03386918  0.37262904  0.22435494  1  0.054417  0  0.098918  0.148509  0  0.990567  0
H  H63  1  0.46612949  0.62737622  0.72435426  1  0.054517  0  0.098922  0.148531  0  0.990644  0
H  H64  1  0.02909461  0.23264795  0.70804206  1  0.096158  0  0.099482  0.142966  0  1.039748  0
H  H65  1  0.47090405  0.76735249  0.20804182  1  0.096166  0  0.099465  0.142929  0  1.039789  0
H  H66  1  0.97090468  0.73264994  0.79195803  1  0.096129  0  0.099497  0.142968  0  1.039718  0
H  H67  1  0.52909557  0.26735159  0.29195964  1  0.096121  0  0.099498  0.142965  0  1.039745  0
H  H68  1  0.97090392  0.76734795  0.29195793  1  0.09609  0  0.099463  0.142926  0  1.03975  0
H  H69  1  0.52909695  0.23265299  0.79195660  1  0.09616  0  0.099484  0.142968  0  1.039687  0
H  H70  1  0.02909570  0.26735194  0.20804143  1  0.09615  0  0.099489  0.142973  0  1.03972  0
H  H71  1  0.47090728  0.73265269  0.70804349  1  0.096075  0  0.099474  0.142957  0  1.039711  0
H  H72  1  0.48604203  0.09689183  0.55717911  1  0.086481  0  0.102196  0.109638  0  1.022196  0
H  H73  1  0.01395962  0.90310719  0.05718196  1  0.086419  0  0.102208  0.109695  0  1.022131  0
H  H74  1  0.51396025  0.59688772  0.94281873  1  0.086176  0  0.102203  0.109676  0  1.022201  0
H  H75  1  0.98603824  0.40310984  0.44282018  1  0.086413  0  0.102239  0.109707  0  1.022139  0
H  H76  1  0.51396082  0.90310706  0.44281931  1  0.086429  0  0.102212  0.109668  0  1.022141  0
H  H77  1  0.98604076  0.09689170  0.94282066  1  0.086523  0  0.102223  0.109697  0  1.022208  0
H  H78  1  0.48603705  0.40311057  0.05718178  1  0.086375  0  0.102194  0.109644  0  1.022193  0
H  H79  1  0.01396275  0.59688965  0.55718033  1  0.086364  0  0.102215  0.109642  0  1.022097  0
H  H80  1  0.48739650  0.94871465  0.57490795  1  0.09231  0  0.100213  0.099122  0  1.010741  0
H  H81  1  0.01260084  0.05128619  0.07490722  1  0.092335  0  0.10022  0.099146  0  1.010773  0
H  H82  1  0.51259864  0.44870794  0.92509186  1  0.092341  0  0.100182  0.099161  0  1.010725  0
H  H83  1  0.98739737  0.55128900  0.42509348  1  0.092276  0  0.100219  0.099129  0  1.010729  0
H  H84  1  0.51260635  0.05128543  0.42509151  1  0.09235  0  0.100194  0.099047  0  1.010763  0
H  H85  1  0.98740077  0.94871270  0.92509539  1  0.092254  0  0.100217  0.099135  0  1.010798  0
H  H86  1  0.48739742  0.55128855  0.07490970  1  0.092271  0  0.100189  0.099137  0  1.010734  0
H  H87  1  0.01260300  0.44871049  0.57490756  1  0.092252  0  0.100217  0.099155  0  1.010771  0
H  H88  1  0.60867734  0.88059103  0.62363972  1  0.083474  0  0.092404  0.08476  0  1.071558  0
H  H89  1  0.89132033  0.11940966  0.12363871  1  0.083547  0  0.092383  0.08476  0  1.071573  0
H  H90  1  0.39131527  0.38058954  0.87635844  1  0.083506  0  0.092408  0.084832  0  1.071597  0
H  H91  1  0.10867917  0.61941055  0.37636154  1  0.083516  0  0.092427  0.084819  0  1.071614  0
H  H92  1  0.39132427  0.11940906  0.37636132  1  0.083473  0  0.092414  0.084782  0  1.071588  0
H  H93  1  0.10868067  0.88059043  0.87636181  1  0.083543  0  0.092424  0.084852  0  1.071639  0
H  H94  1  0.60868017  0.61941054  0.12364050  1  0.083525  0  0.092404  0.084773  0  1.071623  0
H  H95  1  0.89132059  0.38058834  0.62363950  1  0.083499  0  0.09242  0.084822  0  1.0716  0
H  H96  1  0.73608026  0.95674180  0.65575418  1  0.052679  0  0.0913  0.096176  0  1.049743  0
H  H97  1  0.76391805  0.04325774  0.15575564  1  0.052645  0  0.091286  0.096154  0  1.049763  0
H  H98  1  0.26391364  0.45674317  0.84424145  1  0.05255  0  0.091297  0.096166  0  1.049863  0
H  H99  1  0.23608078  0.54325867  0.34424400  1  0.052648  0  0.091292  0.096167  0  1.049734  0
H  H100  1  0.26391888  0.04325889  0.34424634  1  0.052691  0  0.091325  0.096197  0  1.049705  0
H  H101  1  0.23608418  0.95674175  0.84424121  1  0.052626  0  0.09127  0.096133  0  1.04975  0
H  H102  1  0.73608242  0.54325692  0.15575539  1  0.052652  0  0.091292  0.096162  0  1.049765  0
H  H103  1  0.76391775  0.45674082  0.65575547  1  0.052639  0  0.091292  0.096157  0  1.049742  0
H  H104  1  0.80948078  0.27150474  0.65167256  1  0.093703  0  0.100086  0.142927  0  1.039792  0
H  H105  1  0.69052062  0.72849359  0.15167529  1  0.093631  0  0.100055  0.142885  0  1.039796  0
H  H106  1  0.19052225  0.77150624  0.84832496  1  0.093662  0  0.100043  0.142887  0  1.039802  0
H  H107  1  0.30947897  0.22849680  0.34832665  1  0.093646  0  0.100041  0.142869  0  1.039795  0
H  H108  1  0.19052146  0.72849535  0.34832691  1  0.093168  0  0.100068  0.142889  0  1.039788  0
H  H109  1  0.30947606  0.27150769  0.84832208  1  0.093662  0  0.100026  0.14286  0  1.039852  0
H  H110  1  0.80947566  0.22849445  0.15167399  1  0.09323  0  0.100067  0.142921  0  1.039812  0
H  H111  1  0.69052326  0.77150448  0.65167229  1  0.093208  0  0.100054  0.142902  0  1.039821  0
H  H112  1  0.74422645  0.31647656  0.58834987  1  0.063386  0  0.098285  0.145325  0  1.003384  0
H  H113  1  0.75577367  0.68352348  0.08835101  1  0.063406  0  0.098297  0.145352  0  1.003358  0
H  H114  1  0.25577352  0.81647521  0.91165084  1  0.063396  0  0.098264  0.145305  0  1.00344  0
H  H115  1  0.24422589  0.18352613  0.41165035  1  0.063559  0  0.098256  0.145271  0  1.00347  0
H  H116  1  0.25577331  0.68352473  0.41165012  1  0.063386  0  0.09829  0.145332  0  1.003406  0
H  H117  1  0.24422795  0.31647601  0.91164898  1  0.063436  0  0.098271  0.145286  0  1.003493  0
H  H118  1  0.74422439  0.18352428  0.08834968  1  0.063385  0  0.098288  0.14533  0  1.00339  0
H  H119  1  0.75577635  0.81647396  0.58834859  1  0.063536  0  0.098281  0.145306  0  1.003363  0
H  H120  1  0.71269053  0.31088965  0.67755870  1  0.063708  0  0.101478  0.153801  0  0.982154  0
H  H121  1  0.78731026  0.68910692  0.17756143  1  0.06369  0  0.10144  0.153754  0  0.982165  0
H  H122  1  0.28731252  0.81089418  0.82244201  1  0.063628  0  0.10145  0.153751  0  0.982266  0
H  H123  1  0.21268929  0.18910883  0.32244099  1  0.063669  0  0.101467  0.153766  0  0.982154  0
H  H124  1  0.28731047  0.68910805  0.32244129  1  0.063667  0  0.101471  0.153778  0  0.982182  0
H  H125  1  0.21268641  0.31089616  0.82244066  1  0.063554  0  0.101433  0.15372  0  0.982264  0
H  H126  1  0.71268662  0.18910651  0.17755851  1  0.063606  0  0.101441  0.153767  0  0.982251  0
H  H127  1  0.78731232  0.81089006  0.67755795  1  0.063663  0  0.101466  0.153782  0  0.982202  0
H  H128  1  0.45608498  0.41629709  0.48685433  1  0.109636  0  0.139643  0.103824  0  0.986449  0
H  H129  1  0.04391694  0.58370795  0.98685183  1  0.109608  0  0.13965  0.103887  0  0.986351  0
H  H130  1  0.54391660  0.91629297  0.01314835  1  0.109595  0  0.139647  0.103887  0  0.986348  0
H  H131  1  0.95608224  0.08370456  0.51314652  1  0.109667  0  0.139627  0.103833  0  0.986454  0
H  H132  1  0.54391787  0.58370419  0.51314514  1  0.109654  0  0.13965  0.103866  0  0.986428  0
H  H133  1  0.95608406  0.41629513  0.01314764  1  0.109528  0  0.139647  0.103861  0  0.986419  0
H  H134  1  0.45608193  0.08370472  0.98685112  1  0.109531  0  0.139607  0.103845  0  0.986414  0
H  H135  1  0.04391567  0.91629553  0.48685347  1  0.109688  0  0.139672  0.103901  0  0.986383  0
H  H136  1  0.86935703  0.95129799  0.56364427  1  0.137004  0  0.146402  0.115534  0  0.969083  0
H  H137  1  0.63064369  0.04870141  0.06364568  1  0.137008  0  0.146393  0.11555  0  0.969126  0
H  H138  1  0.13065971  0.45129161  0.93634926  1  0.137318  0  0.146381  0.115434  0  0.969185  0
H  H139  1  0.36935391  0.54870257  0.43635396  1  0.137067  0  0.146398  0.11551  0  0.969131  0
H  H140  1  0.13064644  0.04870150  0.43635362  1  0.137005  0  0.146404  0.115549  0  0.96912  0
H  H141  1  0.36934928  0.95129629  0.93635117  1  0.136954  0  0.146398  0.115523  0  0.969099  0
H  H142  1  0.86936165  0.54869889  0.06364340  1  0.137008  0  0.146405  0.115528  0  0.969131  0
H  H143  1  0.63063413  0.45130351  0.56364131  1  0.137101  0  0.146439  0.115557  0  0.969012  0
C  C144  1  0.46172680  0.35659575  0.46493307  1  0.987564  0  0.149558  0.102205  0  4.023365  0
C  C145  1  0.03827388  0.64340806  0.96493168  1  0.987293  0  0.149541  0.102189  0  4.023017  0
C  C146  1  0.53827474  0.85659226  0.03506902  1  0.987299  0  0.149536  0.102137  0  4.023208  0
C  C147  1  0.96172596  0.14340410  0.53506779  1  0.987282  0  0.149563  0.102206  0  4.023293  0
C  C148  1  0.53827420  0.64340493  0.53506692  1  0.987597  0  0.149569  0.102183  0  4.023359  0
C  C149  1  0.96172650  0.35659502  0.03506831  1  0.98744  0  0.149557  0.102178  0  4.023189  0
C  C150  1  0.46172441  0.14340483  0.96493097  1  0.987287  0  0.149594  0.102202  0  4.023165  0
C  C151  1  0.03827257  0.85659419  0.46493220  1  0.987282  0  0.149561  0.102144  0  4.023335  0
C  C152  1  0.89767490  0.94468546  0.61488045  1  0.96457  0  0.146307  0.096435  0  4.027629  0
C  C153  1  0.60232524  0.05531222  0.11488080  1  0.964569  0  0.14637  0.09639  0  4.027543  0
C  C154  1  0.10233011  0.44468498  0.88511779  1  0.96454  0  0.146371  0.096612  0  4.027533  0
C  C155  1  0.39767237  0.55531453  0.38511832  1  0.964566  0  0.146253  0.096381  0  4.027634  0
C  C156  1  0.10232610  0.05531343  0.38511797  1  0.964599  0  0.146275  0.096317  0  4.027778  0
C  C157  1  0.39767452  0.94468608  0.88511761  1  0.964712  0  0.146331  0.096501  0  4.027512  0
C  C158  1  0.89767521  0.55531271  0.11488063  1  0.96462  0  0.146221  0.096318  0  4.027607  0
C  C159  1  0.60232308  0.44468796  0.61487957  1  0.963924  0  0.146316  0.096419  0  4.027302  0
C  C160  1  0.81754948  0.17916778  0.81465764  1  0.325943  0  0.079354  0.151499  0  4.049876  0
C  C161  1  0.68245449  0.82083079  0.31465838  1  0.325795  0  0.079271  0.151395  0  4.049887  0
C  C162  1  0.18245224  0.67916784  0.68534187  1  0.325936  0  0.079326  0.151448  0  4.049821  0
C  C163  1  0.31754826  0.32083317  0.18534210  1  0.325737  0  0.079338  0.15148  0  4.049854  0
C  C164  1  0.18245275  0.82083171  0.18534287  1  0.325878  0  0.079325  0.151401  0  4.049667  0
C  C165  1  0.31754836  0.17916450  0.68533899  1  0.325713  0  0.079339  0.15144  0  4.049872  0
C  C166  1  0.81754814  0.32083165  0.31465708  1  0.32593  0  0.079323  0.151447  0  4.04984  0
C  C167  1  0.68245274  0.67916632  0.81465789  1  0.325748  0  0.079372  0.151526  0  4.049751  0
C  C168  1  0.73314028  0.16191322  0.81769549  1  -0.049826  0  -0.105225  -0.170704  0  4.001495  0
C  C169  1  0.76686060  0.83808655  0.31769628  1  -0.049707  0  -0.105208  -0.170661  0  4.001614  0
C  C170  1  0.26685834  0.66191274  0.68230452  1  -0.049884  0  -0.105255  -0.170669  0  4.001609  0
C  C171  1  0.23314154  0.33808946  0.18230316  1  -0.049753  0  -0.105173  -0.170591  0  4.001643  0
C  C172  1  0.26685825  0.83808747  0.18230555  1  -0.049908  0  -0.105201  -0.170522  0  4.001615  0
C  C173  1  0.23314163  0.16190994  0.68230266  1  -0.049511  0  -0.105211  -0.170623  0  4.001567  0
C  C174  1  0.73314080  0.33808795  0.31769599  1  -0.049906  0  -0.105198  -0.170678  0  4.001619  0
C  C175  1  0.76686069  0.66191003  0.81769578  1  -0.049822  0  -0.105208  -0.170649  0  4.001614  0
C  C176  1  0.68972445  0.18835158  0.87640452  1  -0.012789  0  -0.113692  -0.103732  0  4.067679  0
C  C177  1  0.81027647  0.81164888  0.37640583  1  -0.012814  0  -0.113722  -0.10377  0  4.067593  0
C  C178  1  0.31027481  0.68835105  0.62359448  1  -0.012763  0  -0.113718  -0.10384  0  4.067576  0
C  C179  1  0.18972503  0.31165227  0.12359516  1  -0.012619  0  -0.113645  -0.103632  0  4.067608  0
C  C180  1  0.31027531  0.81164970  0.12359600  1  -0.012211  0  -0.113717  -0.103789  0  4.067767  0
C  C181  1  0.18972515  0.18835061  0.62359207  1  -0.012668  0  -0.113718  -0.103758  0  4.067414  0
C  C182  1  0.68972496  0.31165383  0.37640499  1  -0.012632  0  -0.113684  -0.1037  0  4.067539  0
C  C183  1  0.81027781  0.68834722  0.87640431  1  -0.012599  0  -0.113638  -0.103602  0  4.067626  0
C  C184  1  0.72909396  0.23055880  0.93079861  1  -0.1058  0  -0.113504  -0.104098  0  4.062715  0
C  C185  1  0.77090514  0.76943874  0.43079880  1  -0.105847  0  -0.113481  -0.104069  0  4.062661  0
C  C186  1  0.27090347  0.73056055  0.56920148  1  -0.105752  0  -0.113466  -0.104063  0  4.06268  0
C  C187  1  0.22909510  0.26944268  0.06920109  1  -0.105547  0  -0.113497  -0.10416  0  4.06278  0
C  C188  1  0.27090518  0.76943949  0.06920295  1  -0.106275  0  -0.113514  -0.104164  0  4.062791  0
C  C189  1  0.22909771  0.23056134  0.56920119  1  -0.10582  0  -0.113475  -0.104139  0  4.06249  0
C  C190  1  0.72909444  0.26944193  0.43079851  1  -0.105746  0  -0.113499  -0.104156  0  4.062665  0
C  C191  1  0.77090713  0.73055441  0.93079995  1  -0.105701  0  -0.113537  -0.104264  0  4.062915  0
C  C192  1  0.81356303  0.24649899  0.92867050  1  0.006969  0  -0.109053  -0.171795  0  4.01102  0
C  C193  1  0.68643669  0.75350154  0.42867168  1  0.007132  0  -0.109049  -0.171743  0  4.011004  0
C  C194  1  0.18643565  0.74650068  0.57132908  1  0.006921  0  -0.109047  -0.17166  0  4.011081  0
C  C195  1  0.31356354  0.25350015  0.07132871  1  0.006819  0  -0.109074  -0.171796  0  4.011069  0
C  C196  1  0.18643612  0.75350110  0.07132897  1  0.006932  0  -0.109075  -0.171784  0  4.011046  0
C  C197  1  0.31356554  0.24650274  0.57132935  1  0.006854  0  -0.109047  -0.171677  0  4.011042  0
C  C198  1  0.81356226  0.25350300  0.42867091  1  0.007033  0  -0.109055  -0.171794  0  4.010998  0
C  C199  1  0.68643931  0.74649454  0.92867128  1  0.006846  0  -0.109002  -0.171656  0  4.011034  0
C  C200  1  0.85798490  0.22036076  0.86999239  1  0.339327  0  0.078561  0.148766  0  4.048876  0
C  C201  1  0.64201602  0.77963489  0.36999201  1  0.339084  0  0.07859  0.14871  0  4.048834  0
C  C202  1  0.14201377  0.72036311  0.63000769  1  0.339346  0  0.078593  0.148718  0  4.04876  0
C  C203  1  0.35798423  0.27963662  0.13000842  1  0.33927  0  0.078564  0.148744  0  4.048749  0
C  C204  1  0.14201425  0.77963573  0.13000813  1  0.339296  0  0.078614  0.148763  0  4.048661  0
C  C205  1  0.35798683  0.22036040  0.63000746  1  0.339363  0  0.078532  0.148776  0  4.048864  0
C  C206  1  0.85798476  0.27963877  0.36999178  1  0.339263  0  0.078524  0.148728  0  4.048747  0
C  C207  1  0.64201615  0.72035808  0.86999367  1  0.33931  0  0.078466  0.148613  0  4.048831  0
C  C208  1  0.94863705  0.19137574  0.78846969  1  1.023021  0  0.224076  0.439011  0  3.972334  0
C  C209  1  0.55136443  0.80862339  0.28846931  1  1.023017  0  0.22416  0.439111  0  3.972252  0
C  C210  1  0.05136282  0.69137814  0.71153087  1  1.023013  0  0.224045  0.439001  0  3.972409  0
C  C211  1  0.44863707  0.30862171  0.21153168  1  1.023027  0  0.224121  0.439072  0  3.972355  0
C  C212  1  0.05136333  0.80862076  0.21153187  1  1.022994  0  0.224092  0.438944  0  3.9724  0
C  C213  1  0.44863966  0.19137789  0.71152963  1  1.023007  0  0.224079  0.439115  0  3.972378  0
C  C214  1  0.94863571  0.30862435  0.28846912  1  1.023029  0  0.22415  0.439063  0  3.972237  0
C  C215  1  0.55136516  0.69137658  0.78846884  1  1.02301  0  0.224165  0.439145  0  3.972197  0
C  C216  1  0.02737570  0.18648992  0.74898129  1  -0.069407  0  -0.242033  -0.48993  0  3.954419  0
C  C217  1  0.47262608  0.81350998  0.24898215  1  -0.069413  0  -0.242054  -0.489944  0  3.954436  0
C  C218  1  0.97262418  0.68649126  0.75101770  1  -0.069207  0  -0.242038  -0.489956  0  3.954371  0
C  C219  1  0.52737604  0.31350961  0.25101936  1  -0.069409  0  -0.242071  -0.490027  0  3.954407  0
C  C220  1  0.97262468  0.81350657  0.25101975  1  -0.06933  0  -0.242027  -0.489909  0  3.954443  0
C  C221  1  0.52737801  0.18649370  0.75101731  1  -0.069436  0  -0.242042  -0.489985  0  3.954299  0
C  C222  1  0.02737435  0.31351003  0.24898124  1  -0.069498  0  -0.242046  -0.489962  0  3.954467  0
C  C223  1  0.47262680  0.68649347  0.74898168  1  -0.069349  0  -0.242055  -0.490007  0  3.954455  0
C  C224  1  0.61144087  0.10958689  0.59656776  1  0.404328  0  0.074877  0.142297  0  4.050389  0
C  C225  1  0.88855802  0.89041256  0.09656972  1  0.403864  0  0.074925  0.142333  0  4.050557  0
C  C226  1  0.38855894  0.60958742  0.90342852  1  0.404699  0  0.074882  0.142383  0  4.050417  0
C  C227  1  0.11143984  0.39041451  0.40343240  1  0.405026  0  0.074757  0.142273  0  4.050346  0
C  C228  1  0.38856074  0.89041320  0.40343065  1  0.403261  0  0.074809  0.142352  0  4.05049  0
C  C229  1  0.11144236  0.10958813  0.90343184  1  0.40388  0  0.074842  0.142176  0  4.050528  0
C  C230  1  0.61143773  0.39041327  0.09656885  1  0.404658  0  0.074805  0.142328  0  4.05058  0
C  C231  1  0.88856054  0.60958498  0.59656759  1  0.404694  0  0.074822  0.142335  0  4.050342  0
C  C232  1  0.54035520  0.06684411  0.57820894  1  -0.063403  0  -0.096207  -0.160542  0  3.986024  0
C  C233  1  0.95964429  0.93315411  0.07821045  1  -0.063313  0  -0.096253  -0.160648  0  3.986014  0
C  C234  1  0.45964643  0.56684173  0.92178887  1  -0.063054  0  -0.096267  -0.160677  0  3.986102  0
C  C235  1  0.04035236  0.43315603  0.42179120  1  -0.063403  0  -0.096238  -0.160599  0  3.985891  0
C  C236  1  0.45964703  0.93315418  0.42179001  1  -0.062843  0  -0.096224  -0.160628  0  3.986063  0
C  C237  1  0.04035423  0.06684538  0.92179164  1  -0.06347  0  -0.096243  -0.160537  0  3.985913  0
C  C238  1  0.54035209  0.43315596  0.07821059  1  -0.063017  0  -0.09621  -0.16063  0  3.986178  0
C  C239  1  0.95964802  0.56684286  0.57820879  1  -0.063353  0  -0.096193  -0.16051  0  3.985779  0
C  C240  1  0.54170661  0.98418047  0.58804416  1  -0.080164  0  -0.095672  -0.077576  0  4.01042  0
C  C241  1  0.95829289  0.01581957  0.08804359  1  -0.08015  0  -0.095682  -0.077603  0  4.010421  0
C  C242  1  0.45829041  0.48417789  0.91195412  1  -0.080205  0  -0.095608  -0.077585  0  4.010521  0
C  C243  1  0.04170715  0.51582166  0.41195706  1  -0.080424  0  -0.095639  -0.077566  0  4.010342  0
C  C244  1  0.45829624  0.01581902  0.41195478  1  -0.080011  0  -0.095654  -0.077446  0  4.010269  0
C  C245  1  0.04170872  0.98418052  0.91195797  1  -0.080304  0  -0.095687  -0.077627  0  4.010464  0
C  C246  1  0.54170504  0.51582160  0.08804587  1  -0.080238  0  -0.095656  -0.077556  0  4.010395  0
C  C247  1  0.95829446  0.48417783  0.58804345  1  -0.080436  0  -0.095668  -0.077641  0  4.010417  0
C  C248  1  0.61162574  0.94505618  0.61543535  1  -0.038587  0  -0.104733  -0.088291  0  4.03454  0
C  C249  1  0.88837378  0.05494449  0.11543478  1  -0.038641  0  -0.104698  -0.088255  0  4.034454  0
C  C250  1  0.38837063  0.44505411  0.88456080  1  -0.038046  0  -0.104743  -0.088325  0  4.034277  0
C  C251  1  0.11162568  0.55494599  0.38456539  1  -0.038427  0  -0.104763  -0.088387  0  4.034611  0
C  C252  1  0.38837649  0.05494390  0.38456517  1  -0.038107  0  -0.104759  -0.088386  0  4.03454  0
C  C253  1  0.11162783  0.94505440  0.88456626  1  -0.038403  0  -0.104737  -0.088404  0  4.034541  0
C  C254  1  0.61162481  0.55494478  0.11543605  1  -0.038586  0  -0.104718  -0.088285  0  4.034523  0
C  C255  1  0.88837470  0.44505410  0.61543565  1  -0.038125  0  -0.10473  -0.088349  0  4.034545  0
C  C256  1  0.68297866  0.98713878  0.63298715  1  -0.017464  0  -0.114962  -0.191725  0  4.03507  0
C  C257  1  0.81702087  0.01286072  0.13299017  1  -0.017475  0  -0.115009  -0.191771  0  4.035035  0
C  C258  1  0.31701898  0.48713903  0.86700695  1  -0.017981  0  -0.114961  -0.191736  0  4.034973  0
C  C259  1  0.18297793  0.51286225  0.36701257  1  -0.017442  0  -0.114977  -0.191691  0  4.035054  0
C  C260  1  0.31702234  0.01286191  0.36701442  1  -0.018138  0  -0.114968  -0.19165  0  4.034913  0
C  C261  1  0.18297889  0.98714056  0.86701139  1  -0.017378  0  -0.114982  -0.191672  0  4.034922  0
C  C262  1  0.68297955  0.51286106  0.13298885  1  -0.017485  0  -0.114959  -0.191755  0  4.035046  0
C  C263  1  0.81702121  0.48713724  0.63298742  1  -0.017715  0  -0.114991  -0.191685  0  4.035012  0
C  C264  1  0.68244875  0.07018224  0.62275103  1  0.319956  0  0.069681  0.137249  0  4.079891  0
C  C265  1  0.81755325  0.92981845  0.12275352  1  0.319598  0  0.069716  0.137335  0  4.080072  0
C  C266  1  0.31755289  0.57018268  0.87724626  1  0.31992  0  0.06968  0.137219  0  4.080083  0
C  C267  1  0.18244649  0.42981921  0.37724865  1  0.320002  0  0.069756  0.137338  0  4.079988  0
C  C268  1  0.31755349  0.92981665  0.37724896  1  0.319957  0  0.069768  0.137251  0  4.079936  0
C  C269  1  0.18244590  0.07018284  0.87724857  1  0.319644  0  0.069664  0.13728  0  4.08003  0
C  C270  1  0.68244440  0.42981861  0.12275268  1  0.320071  0  0.069722  0.137402  0  4.079928  0
C  C271  1  0.81755574  0.57018028  0.62275029  1  0.320006  0  0.069733  0.137291  0  4.080009  0
C  C272  1  0.70530071  0.19989316  0.62237327  1  0.990121  0  0.211593  0.411646  0  4.003268  0
C  C273  1  0.79470005  0.80010632  0.12237456  1  0.990116  0  0.211628  0.411695  0  4.003378  0
C  C274  1  0.29470226  0.69989419  0.87762679  1  0.990068  0  0.211638  0.41172  0  4.003361  0
C  C275  1  0.20529712  0.30010770  0.37762642  1  0.990075  0  0.211633  0.411699  0  4.003363  0
C  C276  1  0.29470214  0.80010693  0.37762672  1  0.990092  0  0.211573  0.411582  0  4.003518  0
C  C277  1  0.20529724  0.19989496  0.87762491  1  0.990091  0  0.211599  0.411617  0  4.003397  0
C  C278  1  0.70529565  0.30010770  0.12237530  1  0.990095  0  0.211617  0.411682  0  4.0034  0
C  C279  1  0.79470326  0.69989119  0.62237410  1  0.990121  0  0.211619  0.411666  0  4.003508  0
C  C280  1  0.74513127  0.27871875  0.63548697  1  -0.065642  0  -0.237497  -0.479708  0  3.944157  0
C  C281  1  0.75487135  0.72127836  0.13548919  1  -0.065568  0  -0.237448  -0.479628  0  3.944054  0
C  C282  1  0.25487176  0.77872033  0.86451213  1  -0.06551  0  -0.237437  -0.479622  0  3.944233  0
C  C283  1  0.24512885  0.22128154  0.36451221  1  -0.065629  0  -0.237435  -0.47956  0  3.944128  0
C  C284  1  0.25487096  0.72128014  0.36451302  1  -0.06503  0  -0.237497  -0.479631  0  3.94416  0
C  C285  1  0.24512780  0.27872113  0.86450975  1  -0.065493  0  -0.23741  -0.479517  0  3.944305  0
C  C286  1  0.74512615  0.22127916  0.13548786  1  -0.065001  0  -0.237458  -0.479656  0  3.944178  0
C  C287  1  0.75487215  0.77871795  0.63548673  1  -0.065132  0  -0.237456  -0.479625  0  3.944169  0
N  N288  1  0.42985568  0.33251951  0.40386426  1  -0.790242  0  -0.242761  -0.224552  0  3.540367  0
N  N289  1  0.07014372  0.66748721  0.90386291  1  -0.789906  0  -0.2428  -0.224647  0  3.540446  0
N  N290  1  0.57014399  0.83251433  0.09613780  1  -0.790001  0  -0.242744  -0.224524  0  3.540338  0
N  N291  1  0.92985614  0.16748272  0.59613711  1  -0.790234  0  -0.242753  -0.22458  0  3.540479  0
N  N292  1  0.57014408  0.66748178  0.59613626  1  -0.790249  0  -0.24279  -0.224633  0  3.540487  0
N  N293  1  0.92985542  0.33251707  0.09613760  1  -0.790229  0  -0.242778  -0.224586  0  3.540358  0
N  N294  1  0.42985454  0.16748456  0.90386219  1  -0.790047  0  -0.242788  -0.224651  0  3.540475  0
N  N295  1  0.07014424  0.83251677  0.40386341  1  -0.790217  0  -0.242755  -0.224564  0  3.540451  0
N  N296  1  0.50026613  0.29517932  0.49596370  1  -0.80131  0  -0.248757  -0.224182  0  3.565855  0
N  N297  1  0.99973487  0.70482491  0.99596417  1  -0.800967  0  -0.248671  -0.224113  0  3.565716  0
N  N298  1  0.49973660  0.79517515  0.00403674  1  -0.800923  0  -0.248724  -0.224171  0  3.565976  0
N  N299  1  0.00026440  0.20482200  0.50403641  1  -0.800984  0  -0.248748  -0.224168  0  3.565846  0
N  N300  1  0.49973611  0.70482197  0.50403629  1  -0.80131  0  -0.248765  -0.224193  0  3.565848  0
N  N301  1  0.00026489  0.29517697  0.00403792  1  -0.800911  0  -0.248723  -0.224143  0  3.565848  0
N  N302  1  0.50026255  0.20482254  0.99596325  1  -0.800958  0  -0.24874  -0.224185  0  3.565821  0
N  N303  1  0.99973474  0.79517689  0.49596253  1  -0.800962  0  -0.248788  -0.224221  0  3.565914  0
N  N304  1  0.49150614  0.23125868  0.45238532  1  -0.079468  0  -0.072288  -0.045485  0  3.162342  0
N  N305  1  0.00849330  0.76874632  0.95238616  1  -0.079685  0  -0.072406  -0.045599  0  3.162338  0
N  N306  1  0.50849469  0.73125458  0.04761452  1  -0.079614  0  -0.072334  -0.045569  0  3.162456  0
N  N307  1  0.99150664  0.26874240  0.54761502  1  -0.07949  0  -0.072312  -0.045491  0  3.162371  0
N  N308  1  0.50849363  0.76874261  0.54761519  1  -0.079489  0  -0.072264  -0.045419  0  3.162248  0
N  N309  1  0.99150461  0.23125617  0.04761592  1  -0.079504  0  -0.072363  -0.045544  0  3.162354  0
N  N310  1  0.49150507  0.26874311  0.95238599  1  -0.079519  0  -0.072301  -0.04547  0  3.162375  0
N  N311  1  0.00849436  0.73125649  0.45238497  1  -0.079538  0  -0.072295  -0.045444  0  3.162361  0
N  N312  1  0.89675407  0.99987040  0.66570633  1  -0.792433  0  -0.250082  -0.22212  0  3.566466  0
N  N313  1  0.60324425  0.00012675  0.16570662  1  -0.792759  0  -0.250041  -0.222009  0  3.566377  0
N  N314  1  0.10323925  0.49987584  0.83429668  1  -0.793172  0  -0.25004  -0.22217  0  3.566378  0
N  N315  1  0.39675146  0.50012898  0.33429296  1  -0.792509  0  -0.250029  -0.222045  0  3.5664  0
N  N316  1  0.10324631  0.00012789  0.33429313  1  -0.792865  0  -0.250039  -0.222028  0  3.566552  0
N  N317  1  0.39675737  0.99987274  0.83429337  1  -0.792745  0  -0.250075  -0.222194  0  3.566538  0
N  N318  1  0.89675310  0.50012785  0.16570697  1  -0.792624  0  -0.249994  -0.22203  0  3.566306  0
N  N319  1  0.60324706  0.49987110  0.66570703  1  -0.792484  0  -0.250076  -0.222107  0  3.566158  0
N  N320  1  0.93630804  0.87898085  0.63777427  1  -0.815155  0  -0.251172  -0.223336  0  3.567075  0
N  N321  1  0.56368965  0.12101686  0.13777416  1  -0.815099  0  -0.251218  -0.223385  0  3.567148  0
N  N322  1  0.06368519  0.37898509  0.86222703  1  -0.815188  0  -0.251254  -0.223483  0  3.567228  0
N  N323  1  0.43630492  0.62101857  0.36222504  1  -0.815189  0  -0.251094  -0.223237  0  3.56698  0
N  N324  1  0.06369111  0.12101804  0.36222572  1  -0.815138  0  -0.251168  -0.223294  0  3.567098  0
N  N325  1  0.43631259  0.87898262  0.86222583  1  -0.815238  0  -0.251194  -0.22341  0  3.567163  0
N  N326  1  0.93630531  0.62101859  0.13777558  1  -0.815145  0  -0.251043  -0.223186  0  3.566943  0
N  N327  1  0.56369669  0.37898032  0.63777495  1  -0.814574  0  -0.251137  -0.223355  0  3.566905  0
N  N328  1  0.95977162  0.89459577  0.70516565  1  -0.073263  0  -0.081241  -0.050148  0  3.164853  0
N  N329  1  0.54022487  0.10540084  0.20516499  1  -0.073177  0  -0.081334  -0.050215  0  3.165032  0
N  N330  1  0.04020557  0.39460769  0.79484091  1  -0.073074  0  -0.081321  -0.050208  0  3.16509  0
N  N331  1  0.45977031  0.60540306  0.29483472  1  -0.073188  0  -0.081338  -0.050227  0  3.165  0
N  N332  1  0.04022567  0.10540132  0.29483486  1  -0.073166  0  -0.081345  -0.05027  0  3.165001  0
N  N333  1  0.45978415  0.89460164  0.79483710  1  -0.07314  0  -0.081403  -0.050315  0  3.165134  0
N  N334  1  0.95976395  0.60540558  0.20516851  1  -0.073206  0  -0.081365  -0.050254  0  3.164917  0
N  N335  1  0.54024180  0.39459103  0.70516999  1  -0.073197  0  -0.081385  -0.050304  0  3.16499  0
N  N336  1  0.87640339  0.16214927  0.76373956  1  -1.248501  0  -0.378923  -0.412649  0  3.493327  0
N  N337  1  0.62359746  0.83784983  0.26373977  1  -1.248449  0  -0.378903  -0.412631  0  3.493216  0
N  N338  1  0.12359585  0.66215116  0.73626097  1  -1.248486  0  -0.378883  -0.412586  0  3.493261  0
N  N339  1  0.37640345  0.33785052  0.23626125  1  -1.248438  0  -0.378912  -0.41263  0  3.493228  0
N  N340  1  0.12359576  0.83784902  0.23626200  1  -1.248413  0  -0.378852  -0.412511  0  3.493153  0
N  N341  1  0.37640663  0.16215026  0.73626022  1  -1.24829  0  -0.378902  -0.412682  0  3.493266  0
N  N342  1  0.87640206  0.33784953  0.26373849  1  -1.248543  0  -0.378884  -0.412558  0  3.49317  0
N  N343  1  0.62359878  0.66215016  0.76373822  1  -1.248474  0  -0.378938  -0.412702  0  3.493211  0
N  N344  1  0.94101587  0.22673553  0.85191661  1  -1.233228  0  -0.374528  -0.416557  0  3.484223  0
N  N345  1  0.55898565  0.77326369  0.35191618  1  -1.233223  0  -0.374561  -0.416522  0  3.484206  0
N  N346  1  0.05898341  0.72673604  0.64808348  1  -1.233326  0  -0.374558  -0.416573  0  3.484227  0
N  N347  1  0.44101521  0.27326251  0.14808476  1  -1.233218  0  -0.374557  -0.41655  0  3.484229  0
N  N348  1  0.05898451  0.77326336  0.14808495  1  -1.233235  0  -0.374571  -0.416485  0  3.484269  0
N  N349  1  0.44101782  0.22673579  0.64808328  1  -1.233357  0  -0.374585  -0.41668  0  3.484252  0
N  N350  1  0.94101450  0.27326404  0.35191546  1  -1.233218  0  -0.374577  -0.416578  0  3.484239  0
N  N351  1  0.55898517  0.72673338  0.85191628  1  -1.233213  0  -0.374559  -0.416509  0  3.484185  0
N  N352  1  0.62759432  0.19174930  0.59708714  1  -1.249981  0  -0.382014  -0.426004  0  3.502115  0
N  N353  1  0.87240642  0.80824955  0.09708952  1  -1.249506  0  -0.382022  -0.426007  0  3.502262  0
N  N354  1  0.37240926  0.69174922  0.90290976  1  -1.250254  0  -0.381971  -0.426004  0  3.502407  0
N  N355  1  0.12759076  0.30825091  0.40291251  1  -1.250594  0  -0.381961  -0.42608  0  3.502243  0
N  N356  1  0.37240791  0.80824959  0.40291180  1  -1.249506  0  -0.381952  -0.426027  0  3.502319  0
N  N357  1  0.12759149  0.19175234  0.90291047  1  -1.249584  0  -0.381895  -0.425833  0  3.502268  0
N  N358  1  0.62758927  0.30825086  0.09708866  1  -1.250644  0  -0.381922  -0.426063  0  3.502308  0
N  N359  1  0.87240962  0.69174978  0.59708696  1  -1.250321  0  -0.382012  -0.426072  0  3.502191  0
N  N360  1  0.74131876  0.12876093  0.63741850  1  -1.280565  0  -0.380907  -0.423933  0  3.514187  0
N  N361  1  0.75868263  0.87123918  0.13742247  1  -1.280219  0  -0.380903  -0.424  0  3.514294  0
N  N362  1  0.25868478  0.62876071  0.86257833  1  -1.280465  0  -0.380934  -0.424025  0  3.514331  0
N  N363  1  0.24131460  0.37123996  0.36257806  1  -1.280511  0  -0.380949  -0.424023  0  3.514328  0
N  N364  1  0.25868409  0.87123976  0.36257939  1  -1.280442  0  -0.380943  -0.423941  0  3.514305  0
N  N365  1  0.24131467  0.12876151  0.86257647  1  -1.280186  0  -0.380905  -0.424049  0  3.514301  0
N  N366  1  0.74131437  0.37123878  0.13742114  1  -1.280359  0  -0.380973  -0.424075  0  3.514319  0
N  N367  1  0.75868455  0.62876013  0.63741931  1  -1.280505  0  -0.380976  -0.424052  0  3.514374  0
N  N368  1  0.44955798  0.25355915  0.39767632  1  -0.090721  0  -0.07038  -0.044561  0  3.22747  0
N  N369  1  0.05044080  0.74644696  0.89767663  1  -0.090846  0  -0.07029  -0.044463  0  3.227494  0
N  N370  1  0.55044163  0.75355457  0.10232460  1  -0.090872  0  -0.070371  -0.044507  0  3.227447  0
N  N371  1  0.94955912  0.24644249  0.60232453  1  -0.090778  0  -0.070363  -0.044552  0  3.227534  0
N  N372  1  0.55044055  0.74644153  0.60232419  1  -0.09073  0  -0.070378  -0.044538  0  3.22749  0
N  N373  1  0.94955649  0.25355672  0.10232493  1  -0.090871  0  -0.07034  -0.044547  0  3.227446  0
N  N374  1  0.44955752  0.24644432  0.89767591  1  -0.09082  0  -0.070371  -0.044523  0  3.227487  0
N  N375  1  0.05044250  0.75355700  0.39767599  1  -0.090787  0  -0.070394  -0.04459  0  3.227506  0
N  N376  1  0.93631797  0.96654397  0.72172439  1  -0.068758  0  -0.081559  -0.055479  0  3.167689  0
N  N377  1  0.56367853  0.03345327  0.22172418  1  -0.068588  0  -0.081523  -0.055442  0  3.16778  0
N  N378  1  0.06365866  0.46655648  0.77828331  1  -0.068622  0  -0.081498  -0.055323  0  3.167763  0
N  N379  1  0.43631721  0.53345485  0.27827545  1  -0.068795  0  -0.081545  -0.055497  0  3.167698  0
N  N380  1  0.06367994  0.03345312  0.27827613  1  -0.068601  0  -0.08148  -0.055386  0  3.167787  0
N  N381  1  0.43632987  0.96654982  0.77827843  1  -0.068588  0  -0.081416  -0.055262  0  3.167914  0
N  N382  1  0.93631148  0.53345679  0.22172664  1  -0.068811  0  -0.081562  -0.055466  0  3.167575  0
N  N383  1  0.56369367  0.46654045  0.72172821  1  -0.068814  0  -0.081494  -0.05534  0  3.167497  0
