# generated using pymatgen
data_AgH9C9N2O7
_symmetry_space_group_name_H-M   'P 1'
_cell_length_a   7.67916099
_cell_length_b   9.97772458
_cell_length_c   15.33805749
_cell_angle_alpha   90.00006148
_cell_angle_beta   90.00012998
_cell_angle_gamma   95.01500807
_symmetry_Int_Tables_number   1
_chemical_formula_structural   AgH9C9N2O7
_chemical_formula_sum   'Ag4 H36 C36 N8 O28'
_cell_volume   1170.71155185
_cell_formula_units_Z   4
loop_
 _symmetry_equiv_pos_site_id
 _symmetry_equiv_pos_as_xyz
  1  'x, y, z'
loop_
 _atom_site_type_symbol
 _atom_site_label
 _atom_site_symmetry_multiplicity
 _atom_site_fract_x
 _atom_site_fract_y
 _atom_site_fract_z
 _atom_site_occupancy
 _atom_site_hle17_bader_spin_density
 _atom_site_hle17_ddec_charge
 _atom_site_hle17_ddec_spin_density
 _atom_site_hle17_ddec_sum_bond_order
 _atom_site_hle17_magmom
 _atom_site_hse06_10hf_bader_spin_density
 _atom_site_hse06_10hf_ddec_charge
 _atom_site_hse06_10hf_ddec_spin_density
 _atom_site_hse06_10hf_ddec_sum_bond_order
 _atom_site_hse06_10hf_magmom
 _atom_site_hse06_bader_spin_density
 _atom_site_hse06_ddec_charge
 _atom_site_hse06_ddec_spin_density
 _atom_site_hse06_ddec_sum_bond_order
 _atom_site_hse06_magmom
 _atom_site_pbe_bader_spin_density
 _atom_site_pbe_cm5_charge
 _atom_site_pbe_ddec_charge
 _atom_site_pbe_ddec_spin_density
 _atom_site_pbe_ddec_sum_bond_order
 _atom_site_pbe_magmom
Ag  Ag0  1  0.93848617  0.85774493  0.64812593  1  0  0.59624  0  1.266545  0  0  0.461126  0  1.678719  0  0  0.494311  0  1.631765  0  0  0.440505  0.437956  0  1.711595  0
Ag  Ag1  1  0.56151626  0.14225472  0.14812604  1  0  0.596228  0  1.266547  0  0  0.461126  0  1.678706  0  0  0.494309  0  1.631754  0  0  0.44052  0.437988  0  1.711577  0
Ag  Ag2  1  0.06151672  0.14225438  0.35187450  1  0  0.596208  0  1.26655  0  0  0.461103  0  1.678706  0  0  0.494286  0  1.631753  0  0  0.440509  0.437959  0  1.711574  0
Ag  Ag3  1  0.43848403  0.85774459  0.85187309  1  0  0.596215  0  1.266563  0  0  0.461102  0  1.67873  0  0  0.494286  0  1.631776  0  0  0.440499  0.437947  0  1.711603  0
H  H4  1  0.62345453  0.22201563  0.46293911  1  0  0.126761  0  0.93852  0  0  0.132146  0  1.003036  0  0  0.135547  0  1.001649  0  0  0.118906  0.129869  0  1.003736  0
H  H5  1  0.87654689  0.77798564  0.96293822  1  0  0.126719  0  0.938495  0  0  0.132103  0  1.003036  0  0  0.135501  0  1.001647  0  0  0.118887  0.129822  0  1.003746  0
H  H6  1  0.37654326  0.77798469  0.53706263  1  0  0.126758  0  0.938409  0  0  0.132138  0  1.002953  0  0  0.135535  0  1.001564  0  0  0.118887  0.129857  0  1.003663  0
H  H7  1  0.12345493  0.22201568  0.03706156  1  0  0.126741  0  0.938526  0  0  0.132129  0  1.003051  0  0  0.135528  0  1.001661  0  0  0.118906  0.12985  0  1.003753  0
H  H8  1  0.66111612  0.84277805  0.33313216  1  0  0.126153  0  0.947812  0  0  0.131558  0  1.013395  0  0  0.135485  0  1.010974  0  0  0.117251  0.128754  0  1.015114  0
H  H9  1  0.83888599  0.15722297  0.83313276  1  0  0.126097  0  0.947857  0  0  0.131494  0  1.013447  0  0  0.135421  0  1.011026  0  0  0.117234  0.12869  0  1.015169  0
H  H10  1  0.33888463  0.15722528  0.66686761  1  0  0.126129  0  0.947833  0  0  0.131524  0  1.013418  0  0  0.13545  0  1.010999  0  0  0.117234  0.128716  0  1.015141  0
H  H11  1  0.16111571  0.84277735  0.16686702  1  0  0.126151  0  0.947828  0  0  0.131551  0  1.013405  0  0  0.135477  0  1.010985  0  0  0.117251  0.128746  0  1.015125  0
H  H12  1  0.92883886  0.50154642  0.39863723  1  0  0.103306  0  0.944548  0  0  0.118643  0  1.011403  0  0  0.119337  0  1.010671  0  0  0.104199  0.117918  0  1.0123  0
H  H13  1  0.57116249  0.49845674  0.89863776  1  0  0.103317  0  0.944591  0  0  0.118628  0  1.01147  0  0  0.119338  0  1.010723  0  0  0.104204  0.1179  0  1.012374  0
H  H14  1  0.07116426  0.49845490  0.60136320  1  0  0.103306  0  0.944564  0  0  0.118614  0  1.011444  0  0  0.119323  0  1.010696  0  0  0.104188  0.117882  0  1.012356  0
H  H15  1  0.42883956  0.50154660  0.10136202  1  0  0.1033  0  0.944564  0  0  0.118625  0  1.01143  0  0  0.119327  0  1.010691  0  0  0.104176  0.117892  0  1.012333  0
H  H16  1  0.70642095  0.45112344  0.36680320  1  0  0.107144  0  0.966621  0  0  0.118622  0  1.036894  0  0  0.120087  0  1.03558  0  0  0.102435  0.117411  0  1.0381  0
H  H17  1  0.79357991  0.54887663  0.86680337  1  0  0.10716  0  0.966596  0  0  0.118643  0  1.036856  0  0  0.120107  0  1.035543  0  0  0.102439  0.117418  0  1.038081  0
H  H18  1  0.29358217  0.54887788  0.63319723  1  0  0.107154  0  0.96663  0  0  0.118639  0  1.036886  0  0  0.120104  0  1.035573  0  0  0.102438  0.117425  0  1.038101  0
H  H19  1  0.20642191  0.45112469  0.13319706  1  0  0.10713  0  0.966608  0  0  0.118607  0  1.036892  0  0  0.120072  0  1.035578  0  0  0.102446  0.117383  0  1.038114  0
H  H20  1  0.76792054  0.46299212  0.48083854  1  0  0.10546  0  0.927283  0  0  0.123359  0  0.987876  0  0  0.124104  0  0.98685  0  0  0.106534  0.122548  0  0.988651  0
H  H21  1  0.73208205  0.53700718  0.98083863  1  0  0.105441  0  0.927334  0  0  0.123341  0  0.987927  0  0  0.12409  0  0.986897  0  0  0.106513  0.122532  0  0.9887  0
H  H22  1  0.23208128  0.53700920  0.51916189  1  0  0.105422  0  0.927379  0  0  0.123332  0  0.987958  0  0  0.124081  0  0.986926  0  0  0.106509  0.122525  0  0.988729  0
H  H23  1  0.26791966  0.46299314  0.01916115  1  0  0.105436  0  0.927344  0  0  0.12334  0  0.987935  0  0  0.124088  0  0.986905  0  0  0.106526  0.122525  0  0.988712  0
H  H24  1  0.56654065  0.07586588  0.33079843  1  0  0.110127  0  0.967137  0  0  0.11694  0  1.029692  0  0  0.120772  0  1.026667  0  0  0.108516  0.114098  0  1.03214  0
H  H25  1  0.93346026  0.92413614  0.83079837  1  0  0.11009  0  0.967186  0  0  0.116881  0  1.029769  0  0  0.120711  0  1.026749  0  0  0.108497  0.114036  0  1.032224  0
H  H26  1  0.43345738  0.92413645  0.66920330  1  0  0.110119  0  0.967148  0  0  0.116935  0  1.029711  0  0  0.120768  0  1.026685  0  0  0.108505  0.11409  0  1.032166  0
H  H27  1  0.06654274  0.07586418  0.16920206  1  0  0.110122  0  0.967152  0  0  0.116936  0  1.029709  0  0  0.120768  0  1.026687  0  0  0.108513  0.114096  0  1.03216  0
H  H28  1  0.85392367  0.37912378  0.70048306  1  0  0.101586  0  0.942896  0  0  0.116867  0  1.009901  0  0  0.117481  0  1.009258  0  0  0.105835  0.116311  0  1.0105  0
H  H29  1  0.64607769  0.62087597  0.20048295  1  0  0.101542  0  0.942925  0  0  0.116825  0  1.009935  0  0  0.117437  0  1.009291  0  0  0.105821  0.116275  0  1.01053  0
H  H30  1  0.14607803  0.62087653  0.29951737  1  0  0.101518  0  0.942947  0  0  0.116803  0  1.009955  0  0  0.117417  0  1.00931  0  0  0.105817  0.11625  0  1.01055  0
H  H31  1  0.35392259  0.37912334  0.79951813  1  0  0.101528  0  0.942933  0  0  0.116808  0  1.009945  0  0  0.117422  0  1.009301  0  0  0.105843  0.116259  0  1.01054  0
H  H32  1  0.65634701  0.29599631  0.74422053  1  0  0.094831  0  0.942449  0  0  0.110357  0  1.010344  0  0  0.110631  0  1.009908  0  0  0.102414  0.110212  0  1.010597  0
H  H33  1  0.84365468  0.70400453  0.24421809  1  0  0.094766  0  0.942544  0  0  0.110306  0  1.01043  0  0  0.11058  0  1.009996  0  0  0.102407  0.110163  0  1.010688  0
H  H34  1  0.34365481  0.70400501  0.25578120  1  0  0.094805  0  0.942474  0  0  0.110344  0  1.010355  0  0  0.110619  0  1.009923  0  0  0.102429  0.110202  0  1.010607  0
H  H35  1  0.15634725  0.29599780  0.75578103  1  0  0.094778  0  0.942493  0  0  0.110293  0  1.010416  0  0  0.110569  0  1.00998  0  0  0.102396  0.110147  0  1.010673  0
H  H36  1  0.64674740  0.43698603  0.67091534  1  0  0.118823  0  0.948179  0  0  0.130311  0  1.01615  0  0  0.13251  0  1.013573  0  0  0.1087  0.12862  0  1.018142  0
H  H37  1  0.85325513  0.56301366  0.17091476  1  0  0.118809  0  0.948165  0  0  0.130298  0  1.016142  0  0  0.132496  0  1.013564  0  0  0.108688  0.128611  0  1.018128  0
H  H38  1  0.35325431  0.56301428  0.32908575  1  0  0.118824  0  0.948163  0  0  0.130314  0  1.016133  0  0  0.132512  0  1.013557  0  0  0.108711  0.128627  0  1.01812  0
H  H39  1  0.14674657  0.43698666  0.82908567  1  0  0.118803  0  0.948166  0  0  0.130292  0  1.016137  0  0  0.132492  0  1.01356  0  0  0.108694  0.128605  0  1.018123  0
C  C40  1  0.78620980  0.15254203  0.61293861  1  0  0.558591  0  3.803284  0  0  0.508739  0  4.091597  0  0  0.541047  0  4.085524  0  0  0.238975  0.486711  0  4.095566  0
C  C41  1  0.71378962  0.84745554  0.11293547  1  0  0.558494  0  3.803363  0  0  0.508504  0  4.091805  0  0  0.540825  0  4.085724  0  0  0.238871  0.486501  0  4.095726  0
C  C42  1  0.21378895  0.84745527  0.38706312  1  0  0.55852  0  3.803264  0  0  0.508579  0  4.091679  0  0  0.54089  0  4.085608  0  0  0.238919  0.486572  0  4.09562  0
C  C43  1  0.28620795  0.15254276  0.88706300  1  0  0.558523  0  3.803284  0  0  0.508546  0  4.091752  0  0  0.540857  0  4.085682  0  0  0.238888  0.486527  0  4.095696  0
C  C44  1  0.66501889  0.12075149  0.46055548  1  0  -0.084495  0  3.659947  0  0  -0.115575  0  3.921461  0  0  -0.117006  0  3.938883  0  0  -0.06513  -0.114492  0  3.909763  0
C  C45  1  0.83498133  0.87925078  0.96055332  1  0  -0.084395  0  3.6599  0  0  -0.11551  0  3.921368  0  0  -0.116944  0  3.93881  0  0  -0.065108  -0.114432  0  3.909696  0
C  C46  1  0.33497760  0.87924882  0.53944690  1  0  -0.084478  0  3.65987  0  0  -0.115529  0  3.921337  0  0  -0.116966  0  3.938796  0  0  -0.065124  -0.114451  0  3.909668  0
C  C47  1  0.16501788  0.12075054  0.03944581  1  0  -0.08445  0  3.65987  0  0  -0.115536  0  3.921359  0  0  -0.116962  0  3.938785  0  0  -0.065141  -0.114449  0  3.909669  0
C  C48  1  0.68514834  0.90924269  0.38880222  1  0  -0.0835  0  3.659749  0  0  -0.11451  0  3.920798  0  0  -0.115444  0  3.936338  0  0  -0.064467  -0.113817  0  3.910609  0
C  C49  1  0.81485036  0.09076045  0.88880079  1  0  -0.083392  0  3.659631  0  0  -0.114389  0  3.920673  0  0  -0.115327  0  3.936222  0  0  -0.064454  -0.113704  0  3.910493  0
C  C50  1  0.31484968  0.09075964  0.61119821  1  0  -0.083457  0  3.659741  0  0  -0.114435  0  3.920763  0  0  -0.11538  0  3.936331  0  0  -0.06445  -0.113747  0  3.910571  0
C  C51  1  0.18515016  0.90924087  0.11119768  1  0  -0.083482  0  3.659754  0  0  -0.114457  0  3.920785  0  0  -0.115395  0  3.936337  0  0  -0.064447  -0.113769  0  3.910606  0
C  C52  1  0.83250822  0.72770085  0.46679908  1  0  0.554448  0  3.811483  0  0  0.505068  0  4.098577  0  0  0.537649  0  4.091587  0  0  0.238073  0.482944  0  4.103004  0
C  C53  1  0.66748790  0.27229942  0.96679826  1  0  0.5544  0  3.811655  0  0  0.505051  0  4.098689  0  0  0.537634  0  4.091696  0  0  0.238066  0.482946  0  4.103104  0
C  C54  1  0.16748969  0.27230047  0.53320004  1  0  0.554453  0  3.811587  0  0  0.505123  0  4.098588  0  0  0.537704  0  4.091596  0  0  0.238086  0.483031  0  4.102976  0
C  C55  1  0.33250978  0.72769989  0.03320021  1  0  0.554465  0  3.8116  0  0  0.505109  0  4.098657  0  0  0.537693  0  4.091663  0  0  0.238081  0.483018  0  4.103062  0
C  C56  1  0.77012177  0.86576459  0.46270014  1  0  0.100644  0  3.74862  0  0  0.096908  0  4.001191  0  0  0.097112  0  4.020094  0  0  0.116683  0.096278  0  3.988881  0
C  C57  1  0.72987303  0.13423568  0.96269929  1  0  0.100628  0  3.748742  0  0  0.096876  0  4.001327  0  0  0.09708  0  4.020232  0  0  0.116671  0.096251  0  3.988983  0
C  C58  1  0.22987484  0.13423673  0.53730029  1  0  0.100526  0  3.748766  0  0  0.096803  0  4.00127  0  0  0.097005  0  4.020173  0  0  0.116613  0.096169  0  3.988928  0
C  C59  1  0.27012324  0.86576263  0.03729918  1  0  0.100657  0  3.748709  0  0  0.096896  0  4.001304  0  0  0.097099  0  4.020207  0  0  0.116711  0.096262  0  3.988976  0
C  C60  1  0.75074171  0.06957451  0.53213694  1  0  0.089975  0  3.763203  0  0  0.090419  0  4.01075  0  0  0.08988  0  4.031088  0  0  0.114631  0.090425  0  3.997274  0
C  C61  1  0.74925626  0.93042491  0.03213520  1  0  0.089936  0  3.763287  0  0  0.090528  0  4.010704  0  0  0.089985  0  4.031035  0  0  0.114706  0.090521  0  3.997223  0
C  C62  1  0.24925598  0.93042480  0.46786545  1  0  0.090032  0  3.763232  0  0  0.090512  0  4.010768  0  0  0.089968  0  4.031102  0  0  0.114726  0.09051  0  3.997302  0
C  C63  1  0.25074261  0.06957339  0.96786458  1  0  0.089943  0  3.763149  0  0  0.090461  0  4.010671  0  0  0.089918  0  4.03101  0  0  0.114694  0.09046  0  3.997189  0
C  C64  1  0.79062508  0.50441993  0.41527160  1  0  -0.070172  0  3.54217  0  0  -0.170299  0  3.807016  0  0  -0.162125  0  3.808523  0  0  -0.142467  -0.175689  0  3.806236  0
C  C65  1  0.70937470  0.49558025  0.91527163  1  0  -0.070175  0  3.542232  0  0  -0.170293  0  3.80705  0  0  -0.162135  0  3.808544  0  0  -0.14246  -0.175672  0  3.806305  0
C  C66  1  0.20937674  0.49558139  0.58472818  1  0  -0.070153  0  3.542271  0  0  -0.170257  0  3.807074  0  0  -0.1621  0  3.808569  0  0  -0.142443  -0.175651  0  3.806326  0
C  C67  1  0.29062700  0.50442007  0.08472750  1  0  -0.070142  0  3.54219  0  0  -0.170267  0  3.807039  0  0  -0.162102  0  3.80854  0  0  -0.142477  -0.175647  0  3.806292  0
C  C68  1  0.63325304  0.03940709  0.38756445  1  0  3.9e-05  0  3.674661  0  0  -0.013942  0  3.929258  0  0  -0.013236  0  3.945116  0  0  -0.064796  -0.014755  0  3.919055  0
C  C69  1  0.86674945  0.96059505  0.88756433  1  0  2.2e-05  0  3.674673  0  0  -0.013948  0  3.9293  0  0  -0.013245  0  3.945156  0  0  -0.064808  -0.014771  0  3.919138  0
C  C70  1  0.36674487  0.96059424  0.61243729  1  0  2.8e-05  0  3.674651  0  0  -0.013995  0  3.929289  0  0  -0.013295  0  3.945141  0  0  -0.064821  -0.014805  0  3.919086  0
C  C71  1  0.13325356  0.03940527  0.11243675  1  0  2.4e-05  0  3.674701  0  0  -0.013982  0  3.929319  0  0  -0.01328  0  3.945176  0  0  -0.064822  -0.014802  0  3.919135  0
C  C72  1  0.71571610  0.34921224  0.68755304  1  0  -0.068028  0  3.541975  0  0  -0.166998  0  3.806246  0  0  -0.158509  0  3.807434  0  0  -0.14008  -0.172603  0  3.805549  0
C  C73  1  0.78428533  0.65078849  0.18755115  1  0  -0.067877  0  3.542084  0  0  -0.16686  0  3.806333  0  0  -0.158364  0  3.807523  0  0  -0.140046  -0.17247  0  3.805638  0
C  C74  1  0.28428561  0.65078807  0.31244804  1  0  -0.067922  0  3.542002  0  0  -0.166906  0  3.806278  0  0  -0.15842  0  3.807473  0  0  -0.140081  -0.172513  0  3.805582  0
C  C75  1  0.21571507  0.34921183  0.81244863  1  0  -0.067883  0  3.542029  0  0  -0.166848  0  3.806289  0  0  -0.158362  0  3.807483  0  0  -0.140058  -0.172454  0  3.805585  0
N  N76  1  0.80452622  0.94489402  0.53278794  1  0  -0.30583  0  3.291672  0  0  -0.244587  0  3.560126  0  0  -0.259551  0  3.578599  0  0  -0.313659  -0.234173  0  3.54771  0
N  N77  1  0.69546926  0.05510641  0.03278618  1  0  -0.30579  0  3.29174  0  0  -0.244585  0  3.560162  0  0  -0.259547  0  3.578632  0  0  -0.313676  -0.234167  0  3.547722  0
N  N78  1  0.19547146  0.05510529  0.46721314  1  0  -0.305758  0  3.291633  0  0  -0.244521  0  3.560053  0  0  -0.259481  0  3.578526  0  0  -0.313622  -0.234102  0  3.547625  0
N  N79  1  0.30452582  0.94489290  0.96721294  1  0  -0.305771  0  3.291676  0  0  -0.244547  0  3.560132  0  0  -0.259509  0  3.578608  0  0  -0.313685  -0.234129  0  3.547698  0
N  N80  1  0.06890087  0.69831374  0.79146035  1  0  0.712399  0  4.098299  0  0  0.72914  0  4.400992  0  0  0.758377  0  4.408074  0  0  0.091282  0.709389  0  4.395508  0
N  N81  1  0.43109972  0.30168612  0.29145708  1  0  0.712518  0  4.098149  0  0  0.729259  0  4.400831  0  0  0.758492  0  4.407916  0  0  0.091278  0.709526  0  4.395334  0
N  N82  1  0.93110225  0.30168758  0.20854073  1  0  0.71251  0  4.098238  0  0  0.729247  0  4.400931  0  0  0.758483  0  4.408013  0  0  0.0913  0.709506  0  4.395441  0
N  N83  1  0.56890245  0.69831822  0.70854140  1  0  0.712517  0  4.098202  0  0  0.729265  0  4.400876  0  0  0.758501  0  4.407962  0  0  0.091333  0.70953  0  4.395378  0
O  O84  1  0.12730526  0.66866901  0.86452308  1  0  -0.447521  0  1.754153  0  0  -0.429005  0  1.969769  0  0  -0.444495  0  1.964319  0  0  -0.174096  -0.4181  0  1.973473  0
O  O85  1  0.37269318  0.33133200  0.36451846  1  0  -0.447496  0  1.754068  0  0  -0.428998  0  1.969718  0  0  -0.44448  0  1.964261  0  0  -0.1741  -0.418163  0  1.973453  0
O  O86  1  0.87269396  0.33133231  0.13547800  1  0  -0.447526  0  1.754133  0  0  -0.42901  0  1.96976  0  0  -0.444506  0  1.96432  0  0  -0.17408  -0.418118  0  1.973469  0
O  O87  1  0.62730484  0.66867033  0.63548067  1  0  -0.447525  0  1.754138  0  0  -0.429019  0  1.969772  0  0  -0.444501  0  1.964317  0  0  -0.174091  -0.418159  0  1.973496  0
O  O88  1  0.95403334  0.69811867  0.51288255  1  0  -0.510802  0  2.035909  0  0  -0.464752  0  2.278634  0  0  -0.486826  0  2.27047  0  0  -0.263145  -0.449581  0  2.284034  0
O  O89  1  0.54596346  0.30188273  0.01288275  1  0  -0.510804  0  2.0359  0  0  -0.464773  0  2.278613  0  0  -0.486847  0  2.270447  0  0  -0.263206  -0.449657  0  2.28403  0
O  O90  1  0.04596457  0.30188266  0.48711723  1  0  -0.510823  0  2.035926  0  0  -0.464815  0  2.27865  0  0  -0.486889  0  2.270483  0  0  -0.263186  -0.449656  0  2.284033  0
O  O91  1  0.45403705  0.69811859  0.98711637  1  0  -0.51086  0  2.035889  0  0  -0.464811  0  2.278598  0  0  -0.486887  0  2.270433  0  0  -0.263199  -0.449677  0  2.284001  0
O  O92  1  0.12207764  0.81503545  0.75740135  1  0  -0.529958  0  1.869452  0  0  -0.484903  0  2.138163  0  0  -0.509451  0  2.127243  0  0  -0.22441  -0.467314  0  2.145047  0
O  O93  1  0.37792658  0.18496334  0.25739989  1  0  -0.530031  0  1.869432  0  0  -0.484971  0  2.138145  0  0  -0.509523  0  2.127236  0  0  -0.224414  -0.467379  0  2.145023  0
O  O94  1  0.87792775  0.18496285  0.24259843  1  0  -0.530042  0  1.869417  0  0  -0.484982  0  2.138129  0  0  -0.509538  0  2.127225  0  0  -0.22447  -0.467434  0  2.145036  0
O  O95  1  0.62207807  0.81504000  0.74259924  1  0  -0.530071  0  1.869505  0  0  -0.485013  0  2.138216  0  0  -0.509569  0  2.127315  0  0  -0.224467  -0.467413  0  2.145091  0
O  O96  1  0.74144761  0.64207652  0.41334438  1  0  -0.262544  0  2.297592  0  0  -0.185633  0  2.534133  0  0  -0.207774  0  2.533688  0  0  -0.15846  -0.170401  0  2.533872  0
O  O97  1  0.75855075  0.35792265  0.91334438  1  0  -0.26251  0  2.29763  0  0  -0.185597  0  2.534146  0  0  -0.207739  0  2.533704  0  0  -0.158466  -0.170414  0  2.533915  0
O  O98  1  0.25855409  0.35792380  0.58665474  1  0  -0.262488  0  2.297548  0  0  -0.1856  0  2.534067  0  0  -0.207739  0  2.533624  0  0  -0.158443  -0.170397  0  2.533819  0
O  O99  1  0.24144954  0.64207666  0.08665475  1  0  -0.262492  0  2.297612  0  0  -0.18559  0  2.534149  0  0  -0.207733  0  2.533706  0  0  -0.158458  -0.170418  0  2.533922  0
O  O100  1  0.96036339  0.62134558  0.75002794  1  0  -0.456034  0  1.762836  0  0  -0.436396  0  1.981331  0  0  -0.452232  0  1.976441  0  0  -0.174384  -0.425241  0  1.984565  0
O  O101  1  0.53963703  0.37865527  0.25002493  1  0  -0.456076  0  1.762738  0  0  -0.436451  0  1.981243  0  0  -0.452289  0  1.976354  0  0  -0.174418  -0.425327  0  1.984499  0
O  O102  1  0.03963713  0.37865574  0.24997249  1  0  -0.456054  0  1.762811  0  0  -0.436419  0  1.981302  0  0  -0.452253  0  1.976412  0  0  -0.174392  -0.425284  0  1.984551  0
O  O103  1  0.46036395  0.62135007  0.74997485  1  0  -0.456033  0  1.762714  0  0  -0.436403  0  1.981198  0  0  -0.452242  0  1.976312  0  0  -0.174417  -0.425291  0  1.984469  0
O  O104  1  0.88317079  0.12370033  0.67251009  1  0  -0.51874  0  1.982371  0  0  -0.472167  0  2.212914  0  0  -0.493508  0  2.204586  0  0  -0.27115  -0.457669  0  2.218655  0
O  O105  1  0.61682631  0.87629735  0.17250620  1  0  -0.518673  0  1.982424  0  0  -0.472076  0  2.213043  0  0  -0.493421  0  2.204713  0  0  -0.271102  -0.457575  0  2.218764  0
O  O106  1  0.11682513  0.87629496  0.32749099  1  0  -0.518726  0  1.982365  0  0  -0.472125  0  2.212947  0  0  -0.493469  0  2.20462  0  0  -0.271146  -0.457632  0  2.218681  0
O  O107  1  0.38316972  0.12369894  0.82749031  1  0  -0.518727  0  1.982405  0  0  -0.472107  0  2.21299  0  0  -0.493449  0  2.204663  0  0  -0.271126  -0.457601  0  2.218718  0
O  O108  1  0.69698224  0.26191807  0.61176570  1  0  -0.268903  0  2.328907  0  0  -0.191432  0  2.568816  0  0  -0.214151  0  2.569795  0  0  -0.158625  -0.175529  0  2.56753  0
O  O109  1  0.80301729  0.73808050  0.11176324  1  0  -0.268935  0  2.328883  0  0  -0.191428  0  2.568825  0  0  -0.214157  0  2.569805  0  0  -0.158603  -0.175521  0  2.56752  0
O  O110  1  0.30301946  0.73808224  0.38823538  1  0  -0.2689  0  2.328898  0  0  -0.191399  0  2.568831  0  0  -0.21412  0  2.569815  0  0  -0.158612  -0.175505  0  2.567541  0
O  O111  1  0.19698158  0.26191781  0.88823524  1  0  -0.268895  0  2.328894  0  0  -0.191383  0  2.568832  0  0  -0.214106  0  2.569818  0  0  -0.158582  -0.175471  0  2.567533  0
