# generated using pymatgen
data_CdH14C12(NO)4
_symmetry_space_group_name_H-M   'P 1'
_cell_length_a   8.89755427
_cell_length_b   11.94687563
_cell_length_c   13.21500000
_cell_angle_alpha   90.00000000
_cell_angle_beta   90.00000000
_cell_angle_gamma   90.00000000
_symmetry_Int_Tables_number   1
_chemical_formula_structural   CdH14C12(NO)4
_chemical_formula_sum   'Cd4 H56 C48 N16 O16'
_cell_volume   1404.72772941
_cell_formula_units_Z   4
loop_
 _symmetry_equiv_pos_site_id
 _symmetry_equiv_pos_as_xyz
  1  'x, y, z'
loop_
 _atom_site_type_symbol
 _atom_site_label
 _atom_site_symmetry_multiplicity
 _atom_site_fract_x
 _atom_site_fract_y
 _atom_site_fract_z
 _atom_site_occupancy
 _atom_site_hle17_bader_spin_density
 _atom_site_hle17_ddec_charge
 _atom_site_hle17_ddec_spin_density
 _atom_site_hle17_ddec_sum_bond_order
 _atom_site_hle17_magmom
 _atom_site_hse06_10hf_bader_spin_density
 _atom_site_hse06_10hf_ddec_charge
 _atom_site_hse06_10hf_ddec_spin_density
 _atom_site_hse06_10hf_ddec_sum_bond_order
 _atom_site_hse06_10hf_magmom
 _atom_site_hse06_bader_spin_density
 _atom_site_hse06_ddec_charge
 _atom_site_hse06_ddec_spin_density
 _atom_site_hse06_ddec_sum_bond_order
 _atom_site_hse06_magmom
 _atom_site_pbe_bader_charge
 _atom_site_pbe_bader_spin_density
 _atom_site_pbe_cm5_charge
 _atom_site_pbe_ddec_charge
 _atom_site_pbe_ddec_spin_density
 _atom_site_pbe_ddec_sum_bond_order
 _atom_site_pbe_magmom
Cd  Cd0  1  0.32608287  0.74710245  0.02125161  1  0  1.137546  0  1.674128  0  0  0.944433  0  2.121666  0  0  1.000601  0  2.071664  0  1.26525  0  0.791565  0.90427  0  2.155791  0
Cd  Cd1  1  0.17391633  0.25289876  0.52125085  1  0  1.137515  0  1.674177  0  0  0.944399  0  2.121732  0  0  1.000566  0  2.071732  0  1.265237  0  0.79157  0.904235  0  2.155859  0
Cd  Cd2  1  0.82608319  0.75289643  0.97874915  1  0  1.137504  0  1.674157  0  0  0.944374  0  2.121714  0  0  1.000544  0  2.071714  0  1.265239  0  0.791546  0.904211  0  2.155839  0
Cd  Cd3  1  0.67391665  0.24710226  0.47874915  1  0  1.137529  0  1.674149  0  0  0.944409  0  2.121691  0  0  1.000579  0  2.07169  0  1.265241  0  0.791565  0.904245  0  2.155817  0
H  H4  1  0.13625767  0.51020620  0.98087779  1  0  0.098914  0  0.972381  0  0  0.107965  0  1.035588  0  0  0.110088  0  1.034685  0  0.10337  0  0.1136  0.106447  0  1.036189  0
H  H5  1  0.36374715  0.48979417  0.48087249  1  0  0.098956  0  0.972387  0  0  0.107976  0  1.035638  0  0  0.110114  0  1.034713  0  0.103416  0  0.113575  0.106458  0  1.036238  0
H  H6  1  0.63625350  0.98979268  0.01912675  1  0  0.099019  0  0.972459  0  0  0.108036  0  1.035695  0  0  0.110177  0  1.034767  0  0.103399  0  0.113602  0.106517  0  1.036296  0
H  H7  1  0.86374522  0.01020685  0.51912599  1  0  0.099021  0  0.97245  0  0  0.108035  0  1.035691  0  0  0.110175  0  1.034764  0  0.103403  0  0.113609  0.106516  0  1.036292  0
H  H8  1  0.21752719  0.34886694  0.83748770  1  0  0.113029  0  0.972401  0  0  0.122915  0  1.034314  0  0  0.125504  0  1.033162  0  0.160759  0  0.119659  0.120987  0  1.035366  0
H  H9  1  0.28247201  0.65113342  0.33748543  1  0  0.113099  0  0.972395  0  0  0.122951  0  1.034336  0  0  0.125538  0  1.033185  0  0.160823  0  0.119669  0.121023  0  1.035387  0
H  H10  1  0.71752527  0.15113408  0.16251305  1  0  0.113082  0  0.97236  0  0  0.122938  0  1.034301  0  0  0.125526  0  1.033147  0  0.160815  0  0.119665  0.12101  0  1.035353  0
H  H11  1  0.78247345  0.84886462  0.66251230  1  0  0.113028  0  0.972385  0  0  0.122884  0  1.034336  0  0  0.12547  0  1.033185  0  0.160806  0  0.119643  0.120957  0  1.035386  0
H  H12  1  0.53625748  0.61157078  0.83529323  1  0  0.11983  0  0.982011  0  0  0.124629  0  1.053547  0  0  0.127924  0  1.049554  0  0.231403  0  0.134578  0.12243  0  1.055925  0
H  H13  1  0.96374237  0.38842959  0.33529398  1  0  0.119819  0  0.982035  0  0  0.124602  0  1.053604  0  0  0.127899  0  1.049606  0  0.231415  0  0.134562  0.12241  0  1.05596  0
H  H14  1  0.03625491  0.88842894  0.16470602  1  0  0.119813  0  0.982049  0  0  0.124612  0  1.05358  0  0  0.127907  0  1.049586  0  0.231358  0  0.134567  0.12241  0  1.055967  0
H  H15  1  0.46374429  0.11156976  0.66470677  1  0  0.119811  0  0.98203  0  0  0.124607  0  1.053564  0  0  0.127903  0  1.049569  0  0.23143  0  0.134565  0.122404  0  1.055954  0
H  H16  1  0.56227361  0.46991449  0.70284979  1  0  0.089556  0  0.906771  0  0  0.098452  0  0.967453  0  0  0.10037  0  0.96697  0  0.092353  0  0.123021  0.097115  0  0.967901  0
H  H17  1  0.93772510  0.53008504  0.20285131  1  0  0.089569  0  0.906749  0  0  0.098411  0  0.967459  0  0  0.100327  0  0.966981  0  0.092339  0  0.123013  0.097086  0  0.967887  0
H  H18  1  0.06227329  0.03008485  0.29714794  1  0  0.08955  0  0.9068  0  0  0.098427  0  0.96747  0  0  0.100342  0  0.966992  0  0.092361  0  0.123014  0.097102  0  0.967899  0
H  H19  1  0.43772703  0.96991468  0.79714869  1  0  0.089587  0  0.906773  0  0  0.098482  0  0.967447  0  0  0.100396  0  0.966973  0  0.092372  0  0.123031  0.097155  0  0.967876  0
H  H20  1  0.65081930  0.34633155  0.84130382  1  0  0.102069  0  0.967469  0  0  0.120731  0  1.034532  0  0  0.12183  0  1.035475  0  0.046959  0  0.087462  0.119901  0  1.033976  0
H  H21  1  0.84918055  0.65366881  0.34130458  1  0  0.102034  0  0.967492  0  0  0.120696  0  1.034567  0  0  0.121795  0  1.03551  0  0.046944  0  0.087441  0.119864  0  1.034011  0
H  H22  1  0.15081897  0.15366863  0.15869542  1  0  0.102029  0  0.967479  0  0  0.120686  0  1.034562  0  0  0.121785  0  1.035503  0  0.04695  0  0.087434  0.119855  0  1.034007  0
H  H23  1  0.34918022  0.84633006  0.65869694  1  0  0.10205  0  0.967482  0  0  0.120707  0  1.034559  0  0  0.121805  0  1.035502  0  0.046967  0  0.08745  0.119878  0  1.034003  0
H  H24  1  0.64704860  0.27345978  0.72302686  1  0  0.106899  0  0.979252  0  0  0.125241  0  1.047759  0  0  0.12626  0  1.048115  0  0.065362  0  0.092222  0.124341  0  1.047803  0
H  H25  1  0.85294900  0.72653975  0.22302762  1  0  0.106907  0  0.979231  0  0  0.125259  0  1.047725  0  0  0.126281  0  1.048077  0  0.065348  0  0.092236  0.124358  0  1.04777  0
H  H26  1  0.14704940  0.22653956  0.27697162  1  0  0.106911  0  0.979243  0  0  0.125253  0  1.04775  0  0  0.126269  0  1.048107  0  0.065384  0  0.092235  0.124352  0  1.047795  0
H  H27  1  0.35295092  0.77345913  0.77697314  1  0  0.106887  0  0.979251  0  0  0.125237  0  1.047751  0  0  0.126255  0  1.048107  0  0.065353  0  0.092224  0.124336  0  1.047796  0
H  H28  1  0.50460608  0.24797613  0.81439274  1  0  0.109797  0  0.941055  0  0  0.131847  0  1.000593  0  0  0.133348  0  1.000338  0  0.059316  0  0.091243  0.130689  0  1.000948  0
H  H29  1  0.99539264  0.75202340  0.31439274  1  0  0.109786  0  0.94109  0  0  0.131834  0  1.000632  0  0  0.133335  0  1.000377  0  0.059325  0  0.091246  0.130673  0  1.000989  0
H  H30  1  0.00460801  0.25202405  0.18560726  1  0  0.109781  0  0.94108  0  0  0.13183  0  1.000616  0  0  0.133331  0  1.000361  0  0.059316  0  0.091234  0.130668  0  1.000975  0
H  H31  1  0.49539231  0.74797548  0.68560726  1  0  0.109783  0  0.941048  0  0  0.131832  0  1.000586  0  0  0.133333  0  1.000331  0  0.059317  0  0.091231  0.130675  0  1.00094  0
H  H32  1  0.21866234  0.18654668  0.94864245  1  0  0.105817  0  0.964685  0  0  0.117006  0  1.025583  0  0  0.119369  0  1.024576  0  0.06524  0  0.121587  0.115264  0  1.026489  0
H  H33  1  0.28133686  0.81345620  0.44864321  1  0  0.105861  0  0.964683  0  0  0.117061  0  1.025563  0  0  0.119425  0  1.024556  0  0.065293  0  0.121612  0.115319  0  1.026469  0
H  H34  1  0.71866378  0.31345266  0.05135679  1  0  0.105809  0  0.964713  0  0  0.117013  0  1.025586  0  0  0.119377  0  1.024581  0  0.065439  0  0.121598  0.115271  0  1.026492  0
H  H35  1  0.78133718  0.68654686  0.55135679  1  0  0.105827  0  0.964694  0  0  0.11702  0  1.025584  0  0  0.119384  0  1.024576  0  0.065236  0  0.121588  0.115278  0  1.02649  0
H  H36  1  0.37166281  0.02098289  0.05476958  1  0  0.100627  0  0.958043  0  0  0.112929  0  1.014722  0  0  0.115042  0  1.014235  0  0.083232  0  0.11694  0.111427  0  1.01512  0
H  H37  1  0.12833751  0.97902082  0.55476882  1  0  0.100601  0  0.958146  0  0  0.112899  0  1.014822  0  0  0.115012  0  1.014336  0  0.083166  0  0.116951  0.111397  0  1.015219  0
H  H38  1  0.87166313  0.47901813  0.94523042  1  0  0.100625  0  0.958066  0  0  0.112923  0  1.014749  0  0  0.115037  0  1.01426  0  0.083168  0  0.116948  0.111421  0  1.015147  0
H  H39  1  0.62833671  0.52098307  0.44523042  1  0  0.100614  0  0.958103  0  0  0.1129  0  1.014796  0  0  0.115013  0  1.01431  0  0.083152  0  0.116937  0.111398  0  1.015193  0
H  H40  1  0.06587541  0.86703338  0.85424820  1  0  0.107994  0  0.957457  0  0  0.115985  0  1.023927  0  0  0.11932  0  1.019799  0  0.158395  0  0.136115  0.113398  0  1.027208  0
H  H41  1  0.43412604  0.13296698  0.35424745  1  0  0.108016  0  0.957401  0  0  0.11598  0  1.023906  0  0  0.119314  0  1.019778  0  0.158375  0  0.136114  0.113391  0  1.027191  0
H  H42  1  0.56587348  0.63296549  0.14575180  1  0  0.107995  0  0.957466  0  0  0.115983  0  1.02395  0  0  0.119317  0  1.019822  0  0.158396  0  0.136121  0.113396  0  1.027227  0
H  H43  1  0.93412411  0.36703404  0.64575104  1  0  0.107989  0  0.95753  0  0  0.116005  0  1.023961  0  0  0.119342  0  1.019835  0  0.158409  0  0.136109  0.113417  0  1.027245  0
H  H44  1  0.93890633  0.02827936  0.77811956  1  0  0.093813  0  0.915202  0  0  0.102508  0  0.975683  0  0  0.104781  0  0.974805  0  0.117045  0  0.122692  0.100864  0  0.976433  0
H  H45  1  0.56109464  0.97172017  0.27811956  1  0  0.093761  0  0.915256  0  0  0.102488  0  0.97571  0  0  0.10476  0  0.974833  0  0.117074  0  0.122684  0.100845  0  0.976459  0
H  H46  1  0.43890713  0.47171999  0.22187968  1  0  0.093835  0  0.915212  0  0  0.102548  0  0.975676  0  0  0.10482  0  0.974798  0  0.117061  0  0.122691  0.100905  0  0.976425  0
H  H47  1  0.06109432  0.52827954  0.72187968  1  0  0.093793  0  0.915242  0  0  0.102519  0  0.9757  0  0  0.104792  0  0.974821  0  0.117049  0  0.122692  0.100875  0  0.976449  0
H  H48  1  0.84564025  0.14635793  0.91768521  1  0  0.109014  0  0.954704  0  0  0.12612  0  1.021989  0  0  0.127705  0  1.022367  0  0.073294  0  0.088328  0.124874  0  1.022004  0
H  H49  1  0.65435959  0.85364243  0.41768596  1  0  0.109064  0  0.954713  0  0  0.126182  0  1.021967  0  0  0.127767  0  1.022345  0  0.073285  0  0.08836  0.124938  0  1.021981  0
H  H50  1  0.34563993  0.35364225  0.08231479  1  0  0.109011  0  0.95471  0  0  0.126118  0  1.021994  0  0  0.127702  0  1.022373  0  0.073297  0  0.08833  0.124873  0  1.022008  0
H  H51  1  0.15436040  0.64635811  0.58231479  1  0  0.109004  0  0.954741  0  0  0.126109  0  1.022027  0  0  0.127694  0  1.022405  0  0.073282  0  0.08833  0.124864  0  1.022041  0
H  H52  1  0.83881365  0.21848641  0.79938555  1  0  0.116809  0  0.975693  0  0  0.139079  0  1.035039  0  0  0.140347  0  1.035347  0  0.078967  0  0.09504  0.137983  0  1.035155  0
H  H53  1  0.66118619  0.78151395  0.29938555  1  0  0.116816  0  0.975688  0  0  0.139081  0  1.035041  0  0  0.140351  0  1.035349  0  0.078973  0  0.09504  0.137986  0  1.035157  0
H  H54  1  0.33881221  0.28151377  0.20061445  1  0  0.11682  0  0.975697  0  0  0.139077  0  1.035056  0  0  0.140346  0  1.035364  0  0.078957  0  0.095035  0.137981  0  1.035172  0
H  H55  1  0.16118699  0.71848660  0.70061445  1  0  0.116802  0  0.975685  0  0  0.139073  0  1.035027  0  0  0.140342  0  1.035334  0  0.078963  0  0.095032  0.137977  0  1.035143  0
H  H56  1  0.98027949  0.25266104  0.88875596  1  0  0.092111  0  0.950905  0  0  0.115407  0  1.010423  0  0  0.116283  0  1.010664  0  -0.005002  0  0.086134  0.114805  0  1.01021  0
H  H57  1  0.51972035  0.74733933  0.38875596  1  0  0.092082  0  0.950819  0  0  0.115374  0  1.010344  0  0  0.116252  0  1.010584  0  -0.004991  0  0.086106  0.114773  0  1.010132  0
H  H58  1  0.48027805  0.24733831  0.11124404  1  0  0.092066  0  0.950836  0  0  0.115362  0  1.010357  0  0  0.116238  0  1.010597  0  -0.005366  0  0.08609  0.114761  0  1.010144  0
H  H59  1  0.01972003  0.75266122  0.61124404  1  0  0.09207  0  0.950854  0  0  0.11536  0  1.010383  0  0  0.116237  0  1.010623  0  -0.004998  0  0.086111  0.114759  0  1.010171  0
C  C60  1  0.23153891  0.50654834  0.93010897  1  0  0.003133  0  3.782958  0  0  -0.033402  0  4.053942  0  0  -0.029892  0  4.073251  0  0.380145  0  -0.009371  -0.03566  0  4.040601  0
C  C61  1  0.26846366  0.49345203  0.43010518  1  0  0.003095  0  3.783071  0  0  -0.033424  0  4.054034  0  0  -0.029924  0  4.073336  0  0.380128  0  -0.009305  -0.035681  0  4.040693  0
C  C62  1  0.73153473  0.99345221  0.06989330  1  0  0.002983  0  3.783119  0  0  -0.033541  0  4.054088  0  0  -0.030045  0  4.073388  0  0.380084  0  -0.009341  -0.035798  0  4.040747  0
C  C63  1  0.76846511  0.00654648  0.56989330  1  0  0.003043  0  3.783076  0  0  -0.033475  0  4.054039  0  0  -0.029979  0  4.073337  0  0.380081  0  -0.009314  -0.035733  0  4.040699  0
C  C64  1  0.27051704  0.42607542  0.86089217  1  0  -0.074963  0  3.70094  0  0  -0.114865  0  3.960835  0  0  -0.113667  0  3.978847  0  0.289553  0  -0.007547  -0.115853  0  3.948975  0
C  C65  1  0.22948553  0.57392495  0.36088914  1  0  -0.075051  0  3.700982  0  0  -0.114922  0  3.960894  0  0  -0.113723  0  3.978906  0  0.289067  0  -0.00758  -0.115912  0  3.949035  0
C  C66  1  0.77051399  0.07392393  0.13911010  1  0  -0.075013  0  3.701019  0  0  -0.114894  0  3.960932  0  0  -0.113692  0  3.978942  0  0.289095  0  -0.007589  -0.115884  0  3.949073  0
C  C67  1  0.72948473  0.92607476  0.63910935  1  0  -0.074977  0  3.700993  0  0  -0.114853  0  3.960899  0  0  -0.113651  0  3.978913  0  0.289444  0  -0.007581  -0.115842  0  3.949038  0
C  C68  1  0.43585460  0.56477193  0.85530306  1  0  0.167168  0  3.629928  0  0  0.105251  0  3.892917  0  0  0.119935  0  3.905607  0  0.950294  0  0.142595  0.095992  0  3.883436  0
C  C69  1  0.06414684  0.43522844  0.35530306  1  0  0.167159  0  3.629943  0  0  0.105242  0  3.892928  0  0  0.119926  0  3.905615  0  0.950292  0  0.142603  0.095984  0  3.883453  0
C  C70  1  0.93585268  0.93522778  0.14469618  1  0  0.167181  0  3.629871  0  0  0.105257  0  3.892875  0  0  0.119941  0  3.905565  0  0.950364  0  0.142601  0.095996  0  3.883393  0
C  C71  1  0.56414716  0.06477091  0.64469694  1  0  0.167228  0  3.629835  0  0  0.10531  0  3.892823  0  0  0.119995  0  3.905509  0  0.9503  0  0.142648  0.096048  0  3.883342  0
C  C72  1  0.48562446  0.40704115  0.73528415  1  0  0.037566  0  3.596545  0  0  0.021107  0  3.83355  0  0  0.020706  0  3.84563  0  0.319096  0  0.021641  0.02131  0  3.825374  0
C  C73  1  0.01437249  0.59295922  0.23528415  1  0  0.03754  0  3.59645  0  0  0.021192  0  3.833365  0  0  0.020788  0  3.845448  0  0.319116  0  0.021655  0.021388  0  3.825193  0
C  C74  1  0.98562591  0.09295903  0.26471434  1  0  0.037542  0  3.596577  0  0  0.021188  0  3.833436  0  0  0.02079  0  3.845515  0  0.319096  0  0.021629  0.021384  0  3.825262  0
C  C75  1  0.51437506  0.90703966  0.76471510  1  0  0.037473  0  3.596524  0  0  0.021025  0  3.833529  0  0  0.020621  0  3.845608  0  0.319117  0  0.021597  0.021225  0  3.825356  0
C  C76  1  0.38253658  0.36423247  0.64980628  1  0  0.636028  0  3.873328  0  0  0.586458  0  4.17174  0  0  0.620039  0  4.165172  0  1.588742  0  0.199301  0.563637  0  4.175478  0
C  C77  1  0.11746149  0.63576622  0.14980628  1  0  0.636058  0  3.873308  0  0  0.586411  0  4.171818  0  0  0.619996  0  4.165247  0  1.588721  0  0.199285  0.563593  0  4.175557  0
C  C78  1  0.88253803  0.13576688  0.35019296  1  0  0.635977  0  3.873362  0  0  0.586357  0  4.171817  0  0  0.619937  0  4.165252  0  1.588733  0  0.199249  0.563539  0  4.175554  0
C  C79  1  0.61746294  0.86423265  0.85019296  1  0  0.635947  0  3.873445  0  0  0.586353  0  4.171887  0  0  0.619936  0  4.165319  0  1.588713  0  0.199241  0.563533  0  4.175624  0
C  C80  1  0.57801839  0.31251434  0.78174953  1  0  -0.323405  0  3.693461  0  0  -0.409691  0  3.936285  0  0  -0.411587  0  3.945658  0  -0.107281  0  -0.244375  -0.408092  0  3.930078  0
C  C81  1  0.92198033  0.68748602  0.28175028  1  0  -0.323352  0  3.69344  0  0  -0.40965  0  3.936214  0  0  -0.411548  0  3.94559  0  -0.10729  0  -0.244377  -0.408045  0  3.930009  0
C  C82  1  0.07801807  0.18748584  0.21824972  1  0  -0.323363  0  3.693485  0  0  -0.409664  0  3.936281  0  0  -0.411558  0  3.945651  0  -0.107293  0  -0.244365  -0.408061  0  3.930077  0
C  C83  1  0.42198113  0.81251369  0.71825047  1  0  -0.323342  0  3.693416  0  0  -0.409631  0  3.936244  0  0  -0.411523  0  3.945616  0  -0.107304  0  -0.244364  -0.408035  0  3.930035  0
C  C84  1  0.21007009  0.09625864  0.94564737  1  0  -0.05864  0  3.694878  0  0  -0.099288  0  3.956317  0  0  -0.096984  0  3.973929  0  0.36422  0  6e-05  -0.100839  0  3.94466  0
C  C85  1  0.28992911  0.90374424  0.44564737  1  0  -0.058665  0  3.694896  0  0  -0.09933  0  3.956341  0  0  -0.097027  0  3.973953  0  0.363701  0  3.1e-05  -0.10088  0  3.944685  0
C  C86  1  0.71007153  0.40374154  0.05435339  1  0  -0.058644  0  3.694875  0  0  -0.099313  0  3.956314  0  0  -0.09701  0  3.973928  0  0.364033  0  5.4e-05  -0.100863  0  3.944658  0
C  C87  1  0.78993056  0.59625882  0.55435187  1  0  -0.058682  0  3.694914  0  0  -0.099346  0  3.95635  0  0  -0.097044  0  3.973962  0  0.364433  0  4e-05  -0.100896  0  3.944693  0
C  C88  1  0.28617527  0.01379189  0.99673023  1  0  -0.010167  0  3.780699  0  0  -0.045695  0  4.050855  0  0  -0.04363  0  4.071088  0  0.405561  0  -0.007542  -0.047239  0  4.037178  0
C  C89  1  0.21382393  0.98621182  0.49673023  1  0  -0.010144  0  3.780616  0  0  -0.045657  0  4.050768  0  0  -0.043591  0  4.070999  0  0.406113  0  -0.00757  -0.0472  0  4.037091  0
C  C90  1  0.78617672  0.48620829  0.00327053  1  0  -0.010135  0  3.780619  0  0  -0.045657  0  4.050777  0  0  -0.043591  0  4.071009  0  0.405619  0  -0.007558  -0.0472  0  4.0371  0
C  C91  1  0.71382425  0.51379040  0.50326901  1  0  -0.010139  0  3.780691  0  0  -0.04565  0  4.050848  0  0  -0.043583  0  4.07108  0  0.405631  0  -0.00754  -0.047194  0  4.037168  0
C  C92  1  0.13006383  0.93041565  0.89443511  1  0  0.170981  0  3.631642  0  0  0.109216  0  3.899517  0  0  0.123433  0  3.911511  0  0.988804  0  0.146037  0.099816  0  3.891431  0
C  C93  1  0.36993761  0.06958472  0.39443587  1  0  0.170994  0  3.631591  0  0  0.109262  0  3.899462  0  0  0.123478  0  3.911459  0  0.988792  0  0.146037  0.099863  0  3.891377  0
C  C94  1  0.63006415  0.56958407  0.10556489  1  0  0.17101  0  3.631634  0  0  0.109233  0  3.899509  0  0  0.123449  0  3.911506  0  0.988811  0  0.146056  0.099835  0  3.891424  0
C  C95  1  0.86993681  0.43041630  0.60556413  1  0  0.170975  0  3.631743  0  0  0.109189  0  3.899587  0  0  0.123399  0  3.911589  0  0.988806  0  0.146024  0.09979  0  3.8915  0
C  C96  1  0.01215727  0.09493444  0.80768067  1  0  0.02836  0  3.60414  0  0  0.013565  0  3.838509  0  0  0.013004  0  3.850731  0  0.312495  0  0.017562  0.013783  0  3.830346  0
C  C97  1  0.48784305  0.90506676  0.30768142  1  0  0.028487  0  3.604088  0  0  0.013656  0  3.83848  0  0  0.013095  0  3.850704  0  0.312455  0  0.017576  0.013875  0  3.830317  0
C  C98  1  0.51215760  0.40506490  0.19231933  1  0  0.028344  0  3.604211  0  0  0.013519  0  3.838598  0  0  0.012957  0  3.850822  0  0.312475  0  0.017585  0.013737  0  3.830435  0
C  C99  1  0.98784225  0.59493379  0.69231858  1  0  0.028371  0  3.604158  0  0  0.013522  0  3.83856  0  0  0.012959  0  3.850783  0  0.312489  0  0.017546  0.01374  0  3.830397  0
C  C100  1  0.10429495  0.14242971  0.71780477  1  0  0.615822  0  3.915512  0  0  0.567921  0  4.219439  0  0  0.600308  0  4.214237  0  1.559247  0  0.193494  0.546185  0  4.222172  0
C  C101  1  0.39570425  0.85757066  0.21780552  1  0  0.615901  0  3.915512  0  0  0.567999  0  4.219444  0  0  0.600384  0  4.214248  0  1.559248  0  0.193545  0.546262  0  4.222175  0
C  C102  1  0.60429527  0.35756964  0.28219448  1  0  0.615828  0  3.915525  0  0  0.567936  0  4.219437  0  0  0.600321  0  4.214238  0  1.55924  0  0.193511  0.546198  0  4.222172  0
C  C103  1  0.89570457  0.64242989  0.78219372  1  0  0.615901  0  3.915641  0  0  0.56802  0  4.219541  0  0  0.600407  0  4.214339  0  1.559238  0  0.193555  0.546282  0  4.222276  0
C  C104  1  0.91330154  0.18372753  0.85702913  1  0  -0.309553  0  3.680943  0  0  -0.391943  0  3.916879  0  0  -0.393537  0  3.925604  0  -0.084148  0  -0.241989  -0.390612  0  3.91118  0
C  C105  1  0.58669830  0.81627367  0.35702913  1  0  -0.309616  0  3.68089  0  0  -0.392015  0  3.916852  0  0  -0.393609  0  3.925573  0  -0.084141  0  -0.242001  -0.390685  0  3.911153  0
C  C106  1  0.41330122  0.31627265  0.14297162  1  0  -0.309525  0  3.680904  0  0  -0.391909  0  3.916867  0  0  -0.393504  0  3.925593  0  -0.083776  0  -0.24196  -0.390578  0  3.911167  0
C  C107  1  0.08669911  0.68372688  0.64297087  1  0  -0.309487  0  3.680888  0  0  -0.391872  0  3.916835  0  0  -0.393467  0  3.925562  0  -0.084141  0  -0.241958  -0.390541  0  3.911135  0
N  N108  1  0.33527528  0.59252228  0.92568369  1  0  -0.395064  0  3.288032  0  0  -0.313653  0  3.575066  0  0  -0.336361  0  3.591683  0  -1.224632  0  -0.36705  -0.298169  0  3.562998  0
N  N109  1  0.16472954  0.40747808  0.42568142  1  0  -0.395011  0  3.288063  0  0  -0.313573  0  3.575063  0  0  -0.33628  0  3.591684  0  -1.224538  0  -0.367046  -0.29809  0  3.562997  0
N  N110  1  0.83526998  0.90747743  0.07431782  1  0  -0.394978  0  3.28789  0  0  -0.313542  0  3.574902  0  0  -0.33625  0  3.591524  0  -1.224539  0  -0.367021  -0.298057  0  3.562833  0
N  N111  1  0.66472986  0.09252210  0.57431782  1  0  -0.395056  0  3.287885  0  0  -0.313625  0  3.574896  0  0  -0.336332  0  3.591516  0  -1.224504  0  -0.367076  -0.298139  0  3.562828  0
N  N112  1  0.39925803  0.46483534  0.81358835  1  0  -0.063171  0  3.550493  0  0  0.029109  0  3.761028  0  0  0.014732  0  3.786655  0  -1.225822  0  -0.237547  0.038501  0  3.743599  0
N  N113  1  0.10074117  0.53516503  0.31358910  1  0  -0.063189  0  3.550542  0  0  0.029071  0  3.761057  0  0  0.014693  0  3.786685  0  -1.22545  0  -0.237556  0.038464  0  3.743631  0
N  N114  1  0.89925723  0.03516484  0.18641090  1  0  -0.063166  0  3.550515  0  0  0.029096  0  3.761021  0  0  0.014717  0  3.78665  0  -1.225452  0  -0.237521  0.038492  0  3.743591  0
N  N115  1  0.60074261  0.96483469  0.68641090  1  0  -0.063195  0  3.550503  0  0  0.029086  0  3.761024  0  0  0.014708  0  3.786651  0  -1.225833  0  -0.237541  0.03848  0  3.743594  0
N  N116  1  0.23525791  0.91083479  0.96402421  1  0  -0.390628  0  3.294056  0  0  -0.311954  0  3.583967  0  0  -0.333835  0  3.601246  0  -1.210611  0  -0.363297  -0.296674  0  3.571638  0
N  N117  1  0.26474241  0.08916808  0.46402270  1  0  -0.390565  0  3.293908  0  0  -0.3119  0  3.583814  0  0  -0.333782  0  3.601094  0  -1.210412  0  -0.363265  -0.296618  0  3.571483  0
N  N118  1  0.73525823  0.58916492  0.03597654  1  0  -0.390611  0  3.293985  0  0  -0.311927  0  3.583877  0  0  -0.333809  0  3.601159  0  -1.210618  0  -0.363297  -0.296646  0  3.571546  0
N  N119  1  0.76474161  0.41083461  0.53597503  1  0  -0.390604  0  3.294013  0  0  -0.311924  0  3.583922  0  0  -0.333806  0  3.601203  0  -1.210635  0  -0.363289  -0.296645  0  3.571593  0
N  N120  1  0.11103725  0.04209218  0.88180098  1  0  -0.061823  0  3.569114  0  0  0.02724  0  3.782801  0  0  0.013114  0  3.80887  0  -1.223783  0  -0.235892  0.036514  0  3.765212  0
N  N121  1  0.38896307  0.95790903  0.38180174  1  0  -0.061978  0  3.569128  0  0  0.027087  0  3.782831  0  0  0.01296  0  3.808899  0  -1.223997  0  -0.23592  0.03636  0  3.765246  0
N  N122  1  0.61103645  0.45790717  0.11819902  1  0  -0.061865  0  3.569104  0  0  0.027214  0  3.7828  0  0  0.013088  0  3.80887  0  -1.223794  0  -0.23591  0.036487  0  3.765214  0
N  N123  1  0.88896339  0.54209236  0.61819826  1  0  -0.061836  0  3.569188  0  0  0.027253  0  3.782871  0  0  0.013126  0  3.808943  0  -1.223996  0  -0.235872  0.036526  0  3.765281  0
O  O124  1  0.44184726  0.30293694  0.58173969  1  0  -0.670923  0  2.013118  0  0  -0.602428  0  2.275789  0  0  -0.632105  0  2.265412  0  -1.195508  0  -0.332594  -0.581303  0  2.281944  0
O  O125  1  0.05815194  0.69705924  0.08173742  1  0  -0.670998  0  2.013213  0  0  -0.602462  0  2.275897  0  0  -0.632141  0  2.265516  0  -1.195436  0  -0.332607  -0.581337  0  2.282054  0
O  O126  1  0.94184871  0.19706240  0.41826031  1  0  -0.670906  0  2.01308  0  0  -0.602396  0  2.275767  0  0  -0.632071  0  2.265391  0  -1.195504  0  -0.332564  -0.581273  0  2.281923  0
O  O127  1  0.55815226  0.80293796  0.91826182  1  0  -0.670883  0  2.013093  0  0  -0.602369  0  2.275756  0  0  -0.632046  0  2.265379  0  -1.195506  0  -0.332565  -0.581245  0  2.281911  0
O  O128  1  0.24474366  0.38992956  0.65166477  1  0  -0.631612  0  1.992596  0  0  -0.579237  0  2.238827  0  0  -0.6062  0  2.231512  0  -1.160132  0  -0.325217  -0.560298  0  2.243392  0
O  O129  1  0.25525554  0.61006913  0.15166477  1  0  -0.631588  0  1.992528  0  0  -0.579207  0  2.238821  0  0  -0.606157  0  2.231478  0  -1.160103  0  -0.325197  -0.560267  0  2.243384  0
O  O130  1  0.74474511  0.11006895  0.34833598  1  0  -0.631568  0  1.992612  0  0  -0.57919  0  2.238875  0  0  -0.606154  0  2.231561  0  -1.160116  0  -0.325189  -0.56025  0  2.243438  0
O  O131  1  0.75525586  0.88992891  0.84833598  1  0  -0.631552  0  1.992675  0  0  -0.579162  0  2.238901  0  0  -0.606123  0  2.231581  0  -1.160113  0  -0.325176  -0.560222  0  2.243465  0
O  O132  1  0.24416710  0.13228982  0.71757170  1  0  -0.621915  0  1.96121  0  0  -0.581682  0  2.198249  0  0  -0.604722  0  2.191334  0  -1.156519  0  -0.329522  -0.565762  0  2.20233  0
O  O133  1  0.25583210  0.86770971  0.21757246  1  0  -0.621931  0  1.961164  0  0  -0.581704  0  2.198211  0  0  -0.604743  0  2.191296  0  -1.156548  0  -0.329528  -0.565785  0  2.202292  0
O  O134  1  0.74416742  0.36771037  0.28242830  1  0  -0.621939  0  1.961222  0  0  -0.581706  0  2.198258  0  0  -0.604746  0  2.191343  0  -1.156518  0  -0.329539  -0.565789  0  2.202337  0
O  O135  1  0.75583242  0.63229000  0.78242754  1  0  -0.62196  0  1.961216  0  0  -0.581731  0  2.198245  0  0  -0.60477  0  2.191327  0  -1.15653  0  -0.329539  -0.565811  0  2.202324  0
O  O136  1  0.02371888  0.18862086  0.64861294  1  0  -0.651  0  1.998673  0  0  -0.581261  0  2.25151  0  0  -0.611512  0  2.242405  0  -1.165708  0  -0.338926  -0.56002  0  2.256725  0
O  O137  1  0.47627920  0.81137867  0.14861445  1  0  -0.651053  0  1.998709  0  0  -0.581295  0  2.251524  0  0  -0.611546  0  2.242421  0  -1.165672  0  -0.338965  -0.560056  0  2.256737  0
O  O138  1  0.52371920  0.31137848  0.35138706  1  0  -0.651003  0  1.998686  0  0  -0.581246  0  2.251502  0  0  -0.611494  0  2.242396  0  -1.165709  0  -0.338938  -0.560005  0  2.256717  0
O  O139  1  0.97628064  0.68862021  0.85138630  1  0  -0.651017  0  1.998813  0  0  -0.581287  0  2.251643  0  0  -0.611537  0  2.242538  0  -1.1657  0  -0.338957  -0.560046  0  2.256858  0
