# generated using pymatgen
data_VH7C7NCl3
_symmetry_space_group_name_H-M   'P 1'
_cell_length_a   5.80081386
_cell_length_b   9.83700919
_cell_length_c   10.07226278
_cell_angle_alpha   111.76064920
_cell_angle_beta   103.15282944
_cell_angle_gamma   104.87450667
_symmetry_Int_Tables_number   1
_chemical_formula_structural   VH7C7NCl3
_chemical_formula_sum   'V2 H14 C14 N2 Cl6'
_cell_volume   481.41065260
_cell_formula_units_Z   2
loop_
 _symmetry_equiv_pos_site_id
 _symmetry_equiv_pos_as_xyz
  1  'x, y, z'
loop_
 _atom_site_type_symbol
 _atom_site_label
 _atom_site_symmetry_multiplicity
 _atom_site_fract_x
 _atom_site_fract_y
 _atom_site_fract_z
 _atom_site_occupancy
 _atom_site_hle17_bader_spin_density
 _atom_site_hle17_ddec_charge
 _atom_site_hle17_ddec_spin_density
 _atom_site_hle17_ddec_sum_bond_order
 _atom_site_hle17_magmom
 _atom_site_hse06_10hf_bader_spin_density
 _atom_site_hse06_10hf_ddec_charge
 _atom_site_hse06_10hf_ddec_spin_density
 _atom_site_hse06_10hf_ddec_sum_bond_order
 _atom_site_hse06_10hf_magmom
 _atom_site_hse06_bader_spin_density
 _atom_site_hse06_ddec_charge
 _atom_site_hse06_ddec_spin_density
 _atom_site_hse06_ddec_sum_bond_order
 _atom_site_hse06_magmom
 _atom_site_pbe_bader_spin_density
 _atom_site_pbe_cm5_charge
 _atom_site_pbe_ddec_charge
 _atom_site_pbe_ddec_spin_density
 _atom_site_pbe_ddec_sum_bond_order
 _atom_site_pbe_magmom
V  V0  1  0.81391732  0.63841027  0.52343430  1  0  1.398803  0  3.046001  0  0  1.444185  0  3.430479  0  0  1.524194  0  3.402546  0  0  1.143604  1.387892  0  3.454116  0
V  V1  1  0.18612216  0.36160375  0.47657674  1  0  1.398867  0  3.045802  0  0  1.44427  0  3.430244  0  0  1.524259  0  3.402362  0  0  1.143601  1.387975  0  3.4539  0
H  H2  1  0.41654956  0.88162506  0.54766886  1  0  0.107562  0  0.972492  0  0  0.113384  0  1.041212  0  0  0.117033  0  1.038882  0  0  0.095321  0.111025  0  1.042652  0
H  H3  1  0.58347886  0.11837129  0.45231939  1  0  0.107598  0  0.972377  0  0  0.113424  0  1.041085  0  0  0.117045  0  1.038832  0  0  0.09535  0.111063  0  1.042523  0
H  H4  1  0.36232570  0.12859265  0.69557753  1  0  0.103402  0  0.963329  0  0  0.112242  0  1.027323  0  0  0.115935  0  1.026536  0  0  0.093507  0.109932  0  1.027758  0
H  H5  1  0.63766903  0.87139764  0.30440540  1  0  0.103411  0  0.963355  0  0  0.112251  0  1.027338  0  0  0.115933  0  1.026583  0  0  0.093524  0.109941  0  1.027772  0
H  H6  1  0.07742947  0.28013906  0.05613130  1  0  0.1016  0  0.964734  0  0  0.110373  0  1.028635  0  0  0.114026  0  1.027044  0  0  0.093283  0.107647  0  1.030209  0
H  H7  1  0.92254744  0.71986164  0.94387520  1  0  0.101597  0  0.964764  0  0  0.110375  0  1.028654  0  0  0.114027  0  1.027067  0  0  0.093314  0.107664  0  1.030212  0
H  H8  1  0.13651408  0.03402004  0.90677189  1  0  0.111361  0  0.934758  0  0  0.124733  0  0.988126  0  0  0.127212  0  0.987516  0  0  0.110083  0.123046  0  0.988576  0
H  H9  1  0.86348975  0.96598434  0.09323723  1  0  0.111326  0  0.934895  0  0  0.12472  0  0.988225  0  0  0.127199  0  0.987614  0  0  0.110065  0.123047  0  0.988658  0
H  H10  1  0.49843921  0.34185335  0.99619449  1  0  0.115528  0  0.941854  0  0  0.13631  0  1.004842  0  0  0.138128  0  1.004291  0  0  0.089747  0.135367  0  1.004917  0
H  H11  1  0.50151348  0.65811308  0.00379139  1  0  0.115548  0  0.94182  0  0  0.136306  0  1.00481  0  0  0.138124  0  1.004257  0  0  0.089718  0.135365  0  1.004885  0
H  H12  1  0.66719665  0.43779230  0.91093750  1  0  0.118571  0  0.957314  0  0  0.139209  0  1.019519  0  0  0.141433  0  1.01881  0  0  0.08528  0.13673  0  1.021346  0
H  H13  1  0.33275246  0.56219766  0.08905768  1  0  0.118706  0  0.957445  0  0  0.13934  0  1.019584  0  0  0.141564  0  1.018876  0  0  0.085327  0.13686  0  1.02141  0
H  H14  1  0.83462466  0.44526588  0.08691725  1  0  0.116931  0  0.969763  0  0  0.134643  0  1.03387  0  0  0.137702  0  1.032207  0  0  0.078699  0.132797  0  1.034561  0
H  H15  1  0.16533388  0.55472175  0.91308416  1  0  0.116847  0  0.96997  0  0  0.134565  0  1.03404  0  0  0.137622  0  1.032382  0  0  0.078654  0.132719  0  1.034731  0
C  C16  1  0.78004760  0.94233927  0.71808009  1  0  0.285385  0  3.837998  0  0  0.3004  0  4.081838  0  0  0.302432  0  4.101201  0  0  0.092355  0.299205  0  4.068547  0
C  C17  1  0.21996728  0.05766639  0.28192091  1  0  0.285421  0  3.837911  0  0  0.300333  0  4.081907  0  0  0.302366  0  4.101258  0  0  0.092349  0.299137  0  4.068616  0
C  C18  1  0.56067664  0.96988008  0.65859115  1  0  -0.096151  0  3.664654  0  0  -0.122482  0  3.916322  0  0  -0.118126  0  3.929814  0  0  -0.078939  -0.124186  0  3.905869  0
C  C19  1  0.43933704  0.03012088  0.34140299  1  0  -0.096251  0  3.664429  0  0  -0.122545  0  3.916149  0  0  -0.118192  0  3.92963  0  0  -0.078996  -0.124242  0  3.905689  0
C  C20  1  0.53147036  0.10781051  0.74253572  1  0  -0.124374  0  3.70972  0  0  -0.143103  0  3.964626  0  0  -0.149695  0  3.983119  0  0  -0.091908  -0.138996  0  3.951246  0
C  C21  1  0.46852732  0.89218448  0.25745328  1  0  -0.124267  0  3.709579  0  0  -0.143006  0  3.96453  0  0  -0.149599  0  3.983019  0  0  -0.091834  -0.138899  0  3.95115  0
C  C22  1  0.71581632  0.22174721  0.88683576  1  0  0.185984  0  3.702688  0  0  0.199387  0  3.950056  0  0  0.207857  0  3.968541  0  0  0.0029  0.194631  0  3.936699  0
C  C23  1  0.28417089  0.77824771  0.11315791  1  0  0.186024  0  3.702608  0  0  0.199384  0  3.950006  0  0  0.207854  0  3.968486  0  0  0.002831  0.194621  0  3.936661  0
C  C24  1  0.93335519  0.19315405  0.94421037  1  0  -0.128356  0  3.721744  0  0  -0.148099  0  3.978492  0  0  -0.154198  0  3.997347  0  0  -0.092799  -0.144252  0  3.965842  0
C  C25  1  0.06663011  0.80684907  0.05579406  1  0  -0.128473  0  3.721809  0  0  -0.148193  0  3.97855  0  0  -0.154291  0  3.997402  0  0  -0.092875  -0.144355  0  3.9659  0
C  C26  1  0.96823966  0.05621312  0.86198279  1  0  -0.107758  0  3.66932  0  0  -0.134612  0  3.921394  0  0  -0.131463  0  3.937136  0  0  -0.077624  -0.136585  0  3.910677  0
C  C27  1  0.03176087  0.94379479  0.13802427  1  0  -0.107634  0  3.669371  0  0  -0.134465  0  3.921441  0  0  -0.131313  0  3.93718  0  0  -0.077535  -0.13645  0  3.910725  0
C  C28  1  0.67936547  0.36963727  0.97576861  1  0  -0.346641  0  3.704487  0  0  -0.42438  0  3.942749  0  0  -0.427771  0  3.948633  0  0  -0.246546  -0.421191  0  3.93796  0
C  C29  1  0.32059638  0.63033863  0.02421990  1  0  -0.346754  0  3.704625  0  0  -0.424424  0  3.942856  0  0  -0.427814  0  3.948736  0  0  -0.246489  -0.421235  0  3.93807  0
N  N30  1  0.80535692  0.80571492  0.63654191  1  0  -0.57021  0  2.906455  0  0  -0.58326  0  3.234668  0  0  -0.597789  0  3.250348  0  0  -0.658333  -0.573608  0  3.224491  0
N  N31  1  0.19467503  0.19429553  0.36346392  1  0  -0.570291  0  2.906343  0  0  -0.583334  0  3.234614  0  0  -0.597855  0  3.250293  0  0  -0.6584  -0.573687  0  3.224444  0
Cl  Cl32  1  0.37751757  0.51517333  0.35572785  1  0  -0.457023  0  1.237133  0  0  -0.45503  0  1.513065  0  0  -0.480591  0  1.505385  0  0  -0.218808  -0.437788  0  1.521316  0
Cl  Cl33  1  0.62251516  0.48484419  0.64428368  1  0  -0.457101  0  1.237185  0  0  -0.45511  0  1.513103  0  0  -0.480663  0  1.50542  0  0  -0.218855  -0.437868  0  1.521358  0
Cl  Cl34  1  0.92858246  0.71093534  0.35772881  1  0  -0.375097  0  1.037868  0  0  -0.365631  0  1.280709  0  0  -0.396943  0  1.275872  0  0  -0.207294  -0.344944  0  1.284724  0
Cl  Cl35  1  0.07143954  0.28907624  0.64227624  1  0  -0.37514  0  1.037972  0  0  -0.365652  0  1.280763  0  0  -0.396973  0  1.275966  0  0  -0.207305  -0.344964  0  1.284773  0
Cl  Cl36  1  0.19210316  0.65340777  0.66387064  1  0  -0.439446  0  1.179218  0  0  -0.438237  0  1.442413  0  0  -0.469321  0  1.437524  0  0  -0.212474  -0.416689  0  1.446862  0
Cl  Cl37  1  0.80793395  0.34661093  0.33614583  1  0  -0.439505  0  1.179283  0  0  -0.438271  0  1.442442  0  0  -0.469348  0  1.437557  0  0  -0.212499  -0.416723  0  1.44689  0
