# generated using pymatgen
data_CuPH14C16(NO2)2
_symmetry_space_group_name_H-M   'P 1'
_cell_length_a   6.65884863
_cell_length_b   11.50493392
_cell_length_c   11.65187141
_cell_angle_alpha   114.09438993
_cell_angle_beta   86.90625636
_cell_angle_gamma   100.45280535
_symmetry_Int_Tables_number   1
_chemical_formula_structural   CuPH14C16(NO2)2
_chemical_formula_sum   'Cu2 P2 H28 C32 N4 O8'
_cell_volume   801.14900866
_cell_formula_units_Z   2
loop_
 _symmetry_equiv_pos_site_id
 _symmetry_equiv_pos_as_xyz
  1  'x, y, z'
loop_
 _atom_site_type_symbol
 _atom_site_label
 _atom_site_symmetry_multiplicity
 _atom_site_fract_x
 _atom_site_fract_y
 _atom_site_fract_z
 _atom_site_occupancy
 _atom_site_hle17_ddec_charge
 _atom_site_hle17_ddec_spin_density
 _atom_site_hle17_ddec_sum_bond_order
 _atom_site_hle17_magmom
 _atom_site_hse06_10hf_ddec_charge
 _atom_site_hse06_10hf_ddec_spin_density
 _atom_site_hse06_10hf_ddec_sum_bond_order
 _atom_site_hse06_10hf_magmom
 _atom_site_hse06_ddec_charge
 _atom_site_hse06_ddec_spin_density
 _atom_site_hse06_ddec_sum_bond_order
 _atom_site_hse06_magmom
 _atom_site_pbe_cm5_charge
 _atom_site_pbe_ddec_charge
 _atom_site_pbe_ddec_spin_density
 _atom_site_pbe_ddec_sum_bond_order
 _atom_site_pbe_magmom
Cu  Cu0  1  0.69359181  0.82510661  0.99628377  1  0.945765  0.734722  1.798688  0.531  0.934397  0.825165  2.18715  0.655  1.021595  0.89933  2.113716  0.74  0.762583  0.881636  0.762389  2.233438  0.591
Cu  Cu1  1  0.30640944  0.17489513  0.00371940  1  0.945758  -0.734718  1.798708  -0.531  0.934432  -0.825162  2.187179  -0.655  1.014717  -0.899312  2.126505  -0.74  0.762583  0.881662  -0.762396  2.233494  -0.591
P  P2  1  0.47207398  0.04426693  0.17376171  1  1.465184  -2.8e-05  4.885063  -0.001  1.334481  -0.000782  5.391195  -0.002  1.390177  -0.000883  5.355284  -0.002  0.321025  1.29456  -0.000561  5.4152  -0.002
P  P3  1  0.52792863  0.95573211  0.82623516  1  1.465032  2.8e-05  4.885191  0.001  1.33432  0.000779  5.391344  0.002  1.390109  0.000881  5.355144  0.002  0.320959  1.294397  0.00056  5.415335  0.002
H  H4  1  0.09872287  0.90334715  0.90445455  1  0.418951  0.000135  0.870596  0.0  0.399083  2.5e-05  0.921724  0.0  0.410086  4.2e-05  0.905548  0.0  0.286367  0.391188  1.3e-05  0.93331  0.0
H  H5  1  0.90127784  0.09665577  0.09554224  1  0.418957  -0.000135  0.870681  0.0  0.399064  -2.5e-05  0.921769  0.0  0.410033  -4.2e-05  0.90567  0.0  0.286357  0.391166  -1.4e-05  0.93336  0.0
H  H6  1  0.12342403  0.88724292  0.02803078  1  0.430547  6e-05  0.873975  0.0  0.403229  1e-05  0.933176  0.0  0.414081  7e-06  0.917653  0.0  0.280601  0.395503  1.9e-05  0.944205  0.0
H  H7  1  0.87658413  0.11276007  0.97196691  1  0.430523  -6e-05  0.873994  0.0  0.403204  -1.1e-05  0.933195  0.0  0.414079  -7e-06  0.917635  0.0  0.280573  0.395481  -1.9e-05  0.944218  0.0
H  H8  1  0.60290892  0.66003675  0.71045503  1  0.085988  0.001016  0.956715  0.002  0.094838  0.000947  1.020053  0.002  0.097361  0.000662  1.017227  0.001  0.119068  0.092638  0.001186  1.022432  0.002
H  H9  1  0.39710070  0.33996714  0.28954562  1  0.085958  -0.001014  0.956689  -0.002  0.094804  -0.000947  1.020034  -0.002  0.097346  -0.000662  1.017156  -0.001  0.119025  0.092606  -0.001186  1.022417  -0.002
H  H10  1  0.59395868  0.42316240  0.56751831  1  0.096925  0.00051  0.952523  0.0  0.110142  0.000574  1.007324  0.0  0.113019  0.000415  1.00706  0.0  0.103846  0.107932  0.000703  1.00782  0.0
H  H11  1  0.40604341  0.57684139  0.43248229  1  0.096918  -0.00051  0.952438  0.0  0.110134  -0.000574  1.007245  0.0  0.113011  -0.000415  1.006988  0.0  0.103837  0.107924  -0.000703  1.007737  0.0
H  H12  1  0.65116871  0.27148634  0.66235652  1  0.100512  0.000234  0.970351  0.0  0.111695  3.8e-05  1.031359  0.0  0.11342  7e-06  1.031779  0.0  0.106255  0.110278  7.4e-05  1.031356  0.0
H  H13  1  0.34882840  0.72851545  0.33764323  1  0.100566  -0.000233  0.970262  0.0  0.111695  -3.9e-05  1.031343  0.0  0.113421  -7e-06  1.031757  0.0  0.106252  0.11028  -7.4e-05  1.031337  0.0
H  H14  1  0.72486624  0.24042923  0.86337249  1  0.134582  0.000295  0.973118  0.0  0.140202  0.000252  1.038419  0.0  0.144433  0.000181  1.036184  0.0  0.109903  0.136931  0.000323  1.040276  0.0
H  H15  1  0.27512442  0.75957146  0.13662851  1  0.134495  -0.000293  0.973188  0.0  0.140164  -0.000252  1.038411  0.0  0.144347  -0.000182  1.036339  0.0  0.109897  0.136892  -0.000323  1.040271  0.0
H  H16  1  0.80507937  0.33805723  0.08777104  1  0.126615  0.000306  0.932291  0.0  0.136242  0.000236  0.992384  0.0  0.140136  0.000154  0.989684  0.0  0.111283  0.133195  0.000308  0.994571  0.0
H  H17  1  0.19490630  0.66194146  0.91222911  1  0.126644  -0.000309  0.932274  0.0  0.136266  -0.000235  0.992345  0.0  0.14014  -0.000154  0.989691  0.0  0.111272  0.133216  -0.000308  0.994534  0.0
H  H18  1  0.86884242  0.54490385  0.29557725  1  0.097104  0.000258  0.925186  0.0  0.11249  4.1e-05  0.975927  0.0  0.114938  1.4e-05  0.974577  0.0  0.109982  0.110545  7.8e-05  0.977284  0.0
H  H19  1  0.13115281  0.45509781  0.70442588  1  0.097153  -0.000258  0.925169  0.0  0.112496  -4.1e-05  0.975953  0.0  0.114943  -1.3e-05  0.974597  0.0  0.110015  0.110551  -7.8e-05  0.977304  0.0
H  H20  1  0.88328147  0.78555328  0.40326549  1  0.096104  0.000369  0.959444  0.0  0.109128  0.00038  1.016403  0.0  0.111524  0.000279  1.016661  0.0  0.106168  0.107271  0.000457  1.01654  0.0
H  H21  1  0.11672636  0.21444871  0.59673263  1  0.096087  -0.000369  0.959376  0.0  0.109107  -0.000381  1.016347  0.0  0.111502  -0.000279  1.016614  0.0  0.106183  0.107253  -0.000457  1.016485  0.0
H  H22  1  0.81070352  0.90650222  0.27653246  1  0.092266  0.000962  0.952805  0.002  0.099394  0.000833  1.017186  0.002  0.101658  0.000578  1.014971  0.001  0.121276  0.097441  0.001047  1.019116  0.002
H  H23  1  0.18930544  0.09349789  0.72346401  1  0.092281  -0.000962  0.952797  -0.002  0.09938  -0.000833  1.017189  -0.002  0.101668  -0.000578  1.014913  -0.001  0.121277  0.09743  -0.001047  1.019115  -0.002
H  H24  1  0.64079275  0.21682596  0.35991354  1  0.118018  6e-05  0.937118  0.0  0.133497  0.000124  0.991861  0.0  0.135883  8.3e-05  0.990793  0.0  0.097556  0.131914  0.000157  0.992539  0.0
H  H25  1  0.35921013  0.78317002  0.64008720  1  0.117982  -6e-05  0.9371  0.0  0.133467  -0.000124  0.991846  0.0  0.135853  -8.3e-05  0.990777  0.0  0.097546  0.131885  -0.000157  0.992523  0.0
H  H26  1  0.36870422  0.19635561  0.36739813  1  0.111067  0.00099  0.94856  0.001  0.125721  0.000677  1.007546  0.001  0.126747  0.00046  1.007752  0.0  0.097655  0.125051  0.000833  1.007405  0.001
H  H27  1  0.63130285  0.80363943  0.63260308  1  0.111017  -0.000991  0.948523  -0.001  0.125649  -0.000677  1.007565  -0.001  0.126675  -0.00046  1.007767  0.0  0.097618  0.124975  -0.000833  1.007427  -0.001
H  H28  1  0.82293497  0.12738028  0.46715188  1  0.080262  4e-06  0.955092  0.0  0.093241  -1.8e-05  1.013487  0.0  0.096274  -1.4e-05  1.011568  0.0  0.09504  0.090977  -2.1e-05  1.015046  0.0
H  H29  1  0.17706378  0.87261173  0.53284890  1  0.080325  -4e-06  0.954893  0.0  0.093267  1.8e-05  1.013337  0.0  0.096308  1.4e-05  1.01141  0.0  0.095057  0.091001  2.1e-05  1.014899  0.0
H  H30  1  0.82161232  0.00676082  0.60280646  1  0.095859  -3.8e-05  0.953341  0.0  0.107197  -4e-06  1.015904  0.0  0.110029  -3e-06  1.014773  0.0  0.098802  0.105066  -4e-06  1.016853  0.0
H  H31  1  0.17839348  0.99323516  0.39719515  1  0.095844  3.8e-05  0.953378  0.0  0.107251  3e-06  1.015853  0.0  0.110086  3e-06  1.014715  0.0  0.098825  0.105119  4e-06  1.016812  0.0
C  C32  1  0.63500609  0.59044974  0.74528522  1  0.142196  -0.006365  3.684318  -0.007  0.115157  -0.001463  3.934795  -0.003  0.125874  -0.002233  3.950626  -0.004  0.056457  0.107781  -0.000958  3.925112  -0.002
C  C33  1  0.36499544  0.40955208  0.25471541  1  0.142265  0.006342  3.684383  0.007  0.115218  0.001464  3.934875  0.003  0.126035  0.002235  3.950244  0.004  0.056517  0.10784  0.000959  3.925203  0.002
C  C34  1  0.62861212  0.45864635  0.66775852  1  -0.140022  0.006984  3.768919  0.008  -0.151312  0.003553  4.019388  0.004  -0.159314  0.003188  4.039908  0.004  -0.090163  -0.14615  0.003856  4.006147  0.005
C  C35  1  0.37139128  0.54135562  0.33223873  1  -0.140051  -0.006965  3.768843  -0.008  -0.151323  -0.003552  4.0193  -0.004  -0.159323  -0.003188  4.039845  -0.004  -0.090179  -0.146162  -0.003856  4.006057  -0.005
C  C36  1  0.66033589  0.37452493  0.72002890  1  -0.045164  -0.006918  3.688122  -0.007  -0.069163  -0.002812  3.933014  -0.003  -0.065485  -0.002879  3.951001  -0.003  -0.064735  -0.071949  -0.002915  3.921336  -0.003
C  C37  1  0.33965463  0.62547482  0.27997084  1  -0.045245  0.006897  3.687841  0.007  -0.069206  0.002813  3.932771  0.003  -0.06553  0.002881  3.950771  0.003  -0.064753  -0.071984  0.002915  3.921089  0.003
C  C38  1  0.70157407  0.42284060  0.85048194  1  0.026177  0.004015  3.788993  0.004  0.044889  0.002186  4.016601  0.003  0.042498  0.001866  4.040147  0.002  -0.00149  0.046586  0.002491  4.000744  0.003
C  C39  1  0.29841521  0.57715922  0.14951525  1  0.026258  -0.003993  3.788806  -0.004  0.044893  -0.002186  4.01648  -0.003  0.0425  -0.001867  4.040041  -0.002  -0.001526  0.046579  -0.002491  4.000636  -0.003
C  C40  1  0.73469272  0.34510552  0.91503060  1  -0.101641  0.001203  3.679052  0.001  -0.131648  0.000814  3.948146  0.001  -0.135695  0.000681  3.969165  0.0  -0.083834  -0.128889  0.000946  3.934423  0.001
C  C41  1  0.26529880  0.65489319  0.08497129  1  -0.10155  -0.001245  3.679138  -0.001  -0.131556  -0.000812  3.948178  -0.001  -0.135735  -0.000682  3.969566  0.0  -0.083796  -0.128788  -0.000946  3.934448  -0.001
C  C42  1  0.77886723  0.39990487  0.04152286  1  -0.083121  0.00121  3.670092  0.001  -0.11068  0.000898  3.937673  0.001  -0.113643  0.000791  3.958636  0.001  -0.078622  -0.108792  0.000999  3.924207  0.001
C  C43  1  0.22112466  0.60009574  0.95848069  1  -0.083224  -0.001165  3.670278  -0.001  -0.110713  -0.0009  3.937713  -0.001  -0.113782  -0.000792  3.959009  -0.001  -0.07863  -0.108817  -0.000999  3.924238  -0.001
C  C44  1  0.79208798  0.53634022  0.11365019  1  0.023939  0.00398  3.793438  0.004  0.039566  0.002108  4.023818  0.002  0.036899  0.001766  4.048021  0.002  -0.000654  0.041373  0.002425  4.007482  0.003
C  C45  1  0.20789934  0.46365943  0.88635122  1  0.024019  -0.003998  3.793529  -0.004  0.039615  -0.00211  4.02388  -0.002  0.036945  -0.001767  4.048091  -0.002  -0.000576  0.041414  -0.002425  4.007549  -0.003
C  C46  1  0.83947060  0.60064586  0.24367441  1  -0.050811  -0.006863  3.71123  -0.007  -0.074867  -0.002705  3.959672  -0.003  -0.070864  -0.002742  3.976851  -0.003  -0.065345  -0.07785  -0.00279  3.948567  -0.003
C  C47  1  0.16052194  0.39935497  0.75632320  1  -0.050848  0.006871  3.711201  0.007  -0.074878  0.002707  3.959666  0.003  -0.070872  0.002743  3.976861  0.003  -0.065398  -0.077859  0.002791  3.94856  0.003
C  C48  1  0.84897273  0.73326957  0.30291171  1  -0.120691  0.007339  3.728343  0.008  -0.133582  0.003627  3.981008  0.004  -0.141727  0.003191  4.00204  0.004  -0.081861  -0.128431  0.003986  3.967482  0.005
C  C49  1  0.15103045  0.26673321  0.69709018  1  -0.120667  -0.007345  3.728357  -0.008  -0.133565  -0.003627  3.981003  -0.004  -0.141708  -0.003191  4.002064  -0.004  -0.081896  -0.128413  -0.003986  3.967479  -0.005
C  C50  1  0.80913153  0.80264370  0.23384177  1  0.170717  -0.006548  3.632777  -0.007  0.142087  -0.001551  3.887757  -0.003  0.154266  -0.002316  3.902271  -0.004  0.069247  0.133623  -0.001009  3.879079  -0.002
C  C51  1  0.19087465  0.19735734  0.76615509  1  0.170733  0.006554  3.632689  0.007  0.142173  0.001551  3.88763  0.003  0.154455  0.002316  3.901648  0.004  0.069288  0.133702  0.001009  3.878954  0.002
C  C52  1  0.75631827  0.61459389  0.05197741  1  0.121232  -0.000846  3.782809  -0.001  0.118753  0.000945  4.018728  0.0  0.124013  0.000184  4.041629  -0.001  0.116525  0.11523  0.001459  4.003822  0.001
C  C53  1  0.24367084  0.38540765  0.94802653  1  0.121108  0.000865  3.782932  0.001  0.118666  -0.000943  4.018846  0.0  0.124063  -0.000183  4.041144  0.001  0.116498  0.115148  -0.001459  4.003938  -0.001
C  C54  1  0.71079730  0.55753916  0.91999674  1  0.124141  -0.001295  3.773027  -0.002  0.117232  0.000599  4.012271  0.0  0.122376  -0.000121  4.034458  -0.001  0.118505  0.113701  0.001109  3.997907  0.001
C  C55  1  0.28919208  0.44246247  0.08000465  1  0.124117  0.001273  3.772972  0.002  0.117215  -0.000601  4.012237  0.0  0.122494  0.000122  4.033823  0.001  0.118509  0.113684  -0.001108  3.997883  -0.001
C  C56  1  0.49984747  0.14518993  0.34496578  1  -0.465358  0.001201  3.727103  0.001  -0.493256  0.000986  3.975448  0.001  -0.503492  0.000721  3.984801  0.001  -0.17486  -0.486121  0.001079  3.96889  0.001
C  C57  1  0.50015853  0.85480968  0.65504424  1  -0.465199  -0.001194  3.727029  -0.001  -0.493144  -0.000986  3.975315  -0.001  -0.503379  -0.00072  3.984653  -0.001  -0.17483  -0.486016  -0.001077  3.968759  -0.001
C  C58  1  0.50006812  0.07118240  0.42471033  1  0.143618  0.000143  3.781013  0.0  0.159596  -0.00022  4.020754  0.0  0.161636  -0.000116  4.045547  0.0  -0.012542  0.157924  -0.000263  4.004073  0.0
C  C59  1  0.49994487  0.92881091  0.57528671  1  0.143495  -0.000145  3.781325  0.0  0.159698  0.000219  4.020739  0.0  0.161737  0.000116  4.045546  0.0  -0.012559  0.158028  0.000263  4.004053  0.0
C  C60  1  0.68047546  0.07123127  0.48166625  1  -0.140892  -0.000751  3.786895  -0.001  -0.158354  -9.8e-05  4.03989  0.0  -0.161279  -0.000105  4.060654  0.0  -0.10065  -0.156134  -9.9e-05  4.025687  0.0
C  C61  1  0.31953183  0.92876296  0.51833031  1  -0.141013  0.000749  3.786869  0.001  -0.158498  9.9e-05  4.039794  0.0  -0.161431  0.000105  4.060573  0.0  -0.100684  -0.156276  9.9e-05  4.025591  0.0
C  C62  1  0.68090425  0.00215879  0.55603115  1  -0.127465  0.001205  3.743572  0.001  -0.150018  0.000458  3.999666  0.0  -0.152812  0.000337  4.021105  0.0  -0.098183  -0.147978  0.00061  3.985072  0.001
C  C63  1  0.31910110  0.99784019  0.44396828  1  -0.127405  -0.001202  3.743405  -0.001  -0.149942  -0.000458  3.999552  0.0  -0.152741  -0.000336  4.020992  0.0  -0.098169  -0.147905  -0.00061  3.984962  -0.001
N  N64  1  0.67589487  0.63812755  0.86799997  1  -0.302302  0.062389  3.318621  0.078  -0.258849  0.048966  3.604802  0.065  -0.286338  0.040695  3.624495  0.057  -0.329569  -0.242591  0.053454  3.593111  0.069
N  N65  1  0.32410441  0.36187223  0.13200237  1  -0.302306  -0.062373  3.318573  -0.078  -0.258871  -0.048969  3.604784  -0.065  -0.285373  -0.040699  3.624403  -0.057  -0.329579  -0.242614  -0.053456  3.593109  -0.069
N  N66  1  0.76285743  0.74413532  0.11153684  1  -0.308813  0.062796  3.29368  0.078  -0.267564  0.047432  3.582535  0.063  -0.29577  0.039043  3.600721  0.055  -0.329749  -0.250883  0.052015  3.571994  0.067
N  N67  1  0.23714614  0.25586356  0.88846513  1  -0.308795  -0.062808  3.293513  -0.078  -0.267617  -0.047435  3.582409  -0.063  -0.294813  -0.039046  3.600558  -0.055  -0.329768  -0.250933  -0.052016  3.57187  -0.067
O  O68  1  0.46818769  0.14607197  0.11967491  1  -0.827521  -0.084491  2.054662  -0.11  -0.796  -0.047029  2.374151  -0.067  -0.837997  -0.034916  2.353729  -0.052  -0.399158  -0.764993  -0.054972  2.387033  -0.075
O  O69  1  0.53182095  0.85392715  0.88032199  1  -0.827419  0.084493  2.054635  0.11  -0.795949  0.04703  2.374227  0.067  -0.839203  0.034912  2.352979  0.052  -0.399168  -0.764932  0.054977  2.38709  0.075
O  O70  1  0.03268662  0.85236215  0.95079286  1  -0.867652  -0.001518  1.845556  -0.001  -0.83111  -0.001004  2.026111  -0.001  -0.852897  -0.001063  1.989685  -0.001  -0.609542  -0.81521  -0.000968  2.051081  -0.001
O  O71  1  0.96731410  0.14764077  0.04920393  1  -0.86763  0.00152  1.845709  0.001  -0.831044  0.001005  2.02624  0.001  -0.85189  0.001058  1.990822  0.001  -0.609504  -0.815138  0.000969  2.05121  0.001
O  O72  1  0.67596368  0.98924068  0.14069689  1  -0.822439  0.078856  1.997671  0.103  -0.778769  0.048488  2.288092  0.068  -0.824099  0.037284  2.270158  0.055  -0.387567  -0.747095  0.053322  2.299418  0.072
O  O73  1  0.32404077  0.01076116  0.85930460  1  -0.822415  -0.07886  1.997729  -0.103  -0.778743  -0.048486  2.288158  -0.068  -0.82292  -0.03729  2.270686  -0.055  -0.387561  -0.747062  -0.053323  2.299473  -0.072
O  O74  1  0.28025628  0.94351267  0.15253299  1  -0.843843  -0.00374  1.913921  -0.005  -0.777136  -0.000873  2.153878  -0.001  -0.805704  -0.000392  2.136425  0.0  -0.37959  -0.755334  -0.001847  2.164799  -0.002
O  O75  1  0.71974938  0.05648553  0.84746095  1  -0.843804  0.003739  1.913819  0.005  -0.777077  0.000873  2.153761  0.001  -0.805575  0.000392  2.136105  0.0  -0.379543  -0.755277  0.001847  2.164675  0.002
