# generated using pymatgen
data_NiH12C12N2O5
_symmetry_space_group_name_H-M   'P 1'
_cell_length_a   7.85119154
_cell_length_b   9.70360138
_cell_length_c   11.20068633
_cell_angle_alpha   64.33991355
_cell_angle_beta   87.20445512
_cell_angle_gamma   83.84640194
_symmetry_Int_Tables_number   1
_chemical_formula_structural   NiH12C12N2O5
_chemical_formula_sum   'Ni2 H24 C24 N4 O10'
_cell_volume   764.73232457
_cell_formula_units_Z   2
loop_
 _symmetry_equiv_pos_site_id
 _symmetry_equiv_pos_as_xyz
  1  'x, y, z'
loop_
 _atom_site_type_symbol
 _atom_site_label
 _atom_site_symmetry_multiplicity
 _atom_site_fract_x
 _atom_site_fract_y
 _atom_site_fract_z
 _atom_site_occupancy
 _atom_site_pbe_bader_charge
 _atom_site_pbe_bader_spin_density
 _atom_site_pbe_cm5_charge
 _atom_site_pbe_ddec_charge
 _atom_site_pbe_ddec_spin_density
 _atom_site_pbe_ddec_sum_bond_order
 _atom_site_pbe_magmom
Ni  Ni0  1  0.51133394  0.30464256  0.50441829  1  1.189443  1.573363  0.643688  0.789545  1.781462  2.456505  1.561
Ni  Ni1  1  0.01068369  0.80838405  0.49547579  1  1.182835  1.573401  0.643374  0.788502  1.782024  2.456922  1.561
H  H2  1  0.38541207  0.37305231  0.23549073  1  0.153221  0.001649  0.124411  0.105926  0.000587  0.990623  0.001
H  H3  1  0.88502429  0.60736941  0.76486507  1  0.149491  0.001658  0.124592  0.105989  0.00059  0.989915  0.001
H  H4  1  0.64002791  0.61460609  0.38502592  1  0.107282  0.001755  0.117584  0.079357  0.000496  1.052935  0.001
H  H5  1  0.13766878  0.00004484  0.61402737  1  0.095598  0.001768  0.117985  0.080013  0.000501  1.052563  0.001
H  H6  1  0.38087214  0.58845326  0.00717473  1  0.075823  0.000918  0.111523  0.121009  0.000442  0.993271  0.0
H  H7  1  0.88126617  0.59400764  0.99339989  1  0.074257  0.000928  0.111448  0.120429  0.000445  0.993161  0.0
H  H8  1  0.64754039  0.83877025  0.16728340  1  0.114536  0.000923  0.108304  0.113776  0.000434  1.016261  0.0
H  H9  1  0.14610342  0.00601195  0.83188817  1  0.086946  0.000937  0.108424  0.113863  0.000435  1.015928  0.0
H  H10  1  0.50736995  0.73756207  0.81656827  1  0.12031  0.000949  0.113096  0.125352  0.000451  0.997695  0.0
H  H11  1  0.00865047  0.55282234  0.18342336  1  0.088645  0.000953  0.113005  0.125585  0.00045  0.997192  0.0
H  H12  1  0.51384353  0.03883508  0.01088352  1  0.076491  0.001027  0.111367  0.120127  0.000499  0.995009  0.0
H  H13  1  0.01364559  0.04853995  0.98908769  1  0.093275  0.001014  0.111345  0.120062  0.000496  0.994827  0.0
H  H14  1  0.49728001  0.96792201  0.60460640  1  0.143278  0.001864  0.12007  0.090341  0.000604  1.038005  0.001
H  H15  1  0.99863563  0.57129243  0.39537962  1  0.135588  0.001865  0.120156  0.090572  0.000602  1.039031  0.001
H  H16  1  0.51357689  0.25780556  0.78555463  1  0.144374  0.001825  0.125761  0.110296  0.000627  0.982441  0.001
H  H17  1  0.01365300  0.04223448  0.21437094  1  0.152943  0.001811  0.125734  0.110509  0.000623  0.982975  0.001
H  H18  1  0.31365281  0.63366981  0.43390342  1  0.074974  0.001685  0.100236  -0.004378  0.000205  1.036679  0.001
H  H19  1  0.81330921  0.06738942  0.56616661  1  0.069016  0.001675  0.100207  -0.005102  0.0002  1.03734  0.001
H  H20  1  0.14770630  0.28218068  0.59128701  1  0.062059  0.000671  0.103258  0.015339  8.4e-05  1.006086  0.0
H  H21  1  0.64720175  0.87332695  0.40950525  1  0.079141  0.00066  0.103164  0.015142  8.2e-05  1.005914  0.0
H  H22  1  0.84399102  0.34552120  0.51524297  1  0.64481  0.000403  0.28069  0.368472  0.000466  0.986207  0.0
H  H23  1  0.34345671  0.86005521  0.48522215  1  0.643814  0.000395  0.280763  0.368443  0.000461  0.986206  0.0
H  H24  1  0.74094027  0.45284323  0.57761082  1  0.629836  0.001624  0.303004  0.39519  0.001408  0.914331  0.001
H  H25  1  0.24075153  0.02960062  0.42205256  1  0.637776  0.001601  0.303817  0.396283  0.001398  0.911687  0.001
C  C26  1  0.44272661  0.47869592  0.21417460  1  0.482696  -0.004692  0.054022  0.107773  -0.005287  3.912249  -0.003
C  C27  1  0.94210015  0.69194542  0.78592908  1  0.503234  -0.00472  0.054164  0.107744  -0.005311  3.91265  -0.003
C  C28  1  0.58219595  0.61418628  0.29899604  1  0.482629  -0.004452  0.047922  0.094854  -0.0051  3.955186  -0.003
C  C29  1  0.08054355  0.91312080  0.70041899  1  0.533756  -0.004478  0.046793  0.093773  -0.005085  3.957305  -0.003
C  C30  1  0.44167206  0.59912069  0.08782079  1  -0.07022  0.004145  -0.082267  -0.177371  0.002235  3.941355  0.003
C  C31  1  0.94155511  0.68572588  0.91239692  1  -0.091979  0.004168  -0.08189  -0.175772  0.002239  3.939249  0.004
C  C32  1  0.58545944  0.73949283  0.17643883  1  -0.079595  0.003604  -0.083115  -0.172298  0.001949  3.947273  0.003
C  C33  1  0.08433426  0.91559775  0.82304074  1  -0.087367  0.003614  -0.082953  -0.172116  0.001951  3.947478  0.003
C  C34  1  0.51325078  0.73456511  0.06642649  1  0.01335  -0.006807  0.007703  0.098361  -0.00752  3.996141  -0.004
C  C35  1  0.01294532  0.80004391  0.93346326  1  0.052255  -0.006785  0.007369  0.098089  -0.007522  3.995514  -0.004
C  C36  1  0.51240354  0.86669760  0.93531741  1  0.016694  -0.007179  0.005525  0.092112  -0.007934  4.004323  -0.004
C  C37  1  0.01273110  0.80087126  0.06464244  1  -0.045198  -0.007203  0.006639  0.092026  -0.007926  4.005109  -0.004
C  C38  1  0.50767405  0.84931327  0.81761504  1  -0.035522  0.00389  -0.080938  -0.170642  0.002085  3.941529  0.003
C  C39  1  0.00861975  0.66568007  0.18236479  1  -0.010854  0.003888  -0.080413  -0.170563  0.002086  3.941653  0.003
C  C40  1  0.51458884  0.01682978  0.92336337  1  -0.076144  0.004246  -0.084863  -0.184181  0.002277  3.956221  0.004
C  C41  1  0.01471237  0.93903488  0.07659585  1  -0.071237  0.004249  -0.085643  -0.183949  0.002267  3.956086  0.003
C  C42  1  0.50424660  0.97850653  0.69691823  1  0.45326  -0.004686  0.046506  0.087557  -0.005405  3.94683  -0.003
C  C43  1  0.00526862  0.67423951  0.30306689  1  0.448958  -0.004656  0.046446  0.087596  -0.005393  3.946737  -0.003
C  C44  1  0.51370603  0.13986216  0.79875477  1  0.485179  -0.004805  0.051117  0.102065  -0.005406  3.929489  -0.003
C  C45  1  0.01398517  0.93748880  0.20119028  1  0.489109  -0.00481  0.051063  0.101613  -0.005394  3.92945  -0.003
C  C46  1  0.27760290  0.55441293  0.53580207  1  1.555796  -0.00192  0.132255  0.48452  -0.001702  4.240438  -0.002
C  C47  1  0.77795699  0.09020754  0.46419256  1  1.555408  -0.001913  0.133002  0.486862  -0.001734  4.241438  -0.002
C  C48  1  0.14382031  0.27768172  0.49393076  1  1.544727  0.000521  0.12864  0.452451  0.000396  4.264375  0.0
C  C49  1  0.64283531  0.77128030  0.50668640  1  1.531509  0.000507  0.128391  0.452874  0.000379  4.261922  0.0
N  N50  1  0.51088739  0.48594707  0.31919863  1  -1.193906  0.061614  -0.322974  -0.216701  0.035765  3.566552  0.056
N  N51  1  0.00959610  0.80473814  0.68056749  1  -1.200933  0.061743  -0.322551  -0.216362  0.035887  3.568928  0.056
N  N52  1  0.50843223  0.12139721  0.68657255  1  -1.208167  0.064381  -0.326631  -0.215637  0.037371  3.581749  0.058
N  N53  1  0.00897658  0.80685304  0.31338822  1  -1.188655  0.064203  -0.326508  -0.215634  0.037362  3.580503  0.058
O  O54  1  0.36844393  0.42769961  0.59360881  1  -1.165757  0.071407  -0.322695  -0.52785  0.039759  2.43277  0.065
O  O55  1  0.86869013  0.02085583  0.40645495  1  -1.164078  0.07123  -0.323326  -0.529335  0.039625  2.432526  0.064
O  O56  1  0.14482513  0.59490999  0.58620117  1  -1.147282  0.087782  -0.319155  -0.495445  0.049043  2.367647  0.08
O  O57  1  0.64606318  0.18176949  0.41364174  1  -1.144  0.087508  -0.319844  -0.496737  0.048869  2.368188  0.08
O  O58  1  0.28547346  0.23802543  0.45043313  1  -1.164599  0.072831  -0.321573  -0.534736  0.040082  2.358326  0.065
O  O59  1  0.78426491  0.68798899  0.54969920  1  -1.168769  0.072796  -0.321053  -0.534619  0.040036  2.356543  0.065
O  O60  1  0.00244844  0.31226372  0.43429347  1  -1.179862  0.013037  -0.318658  -0.491891  0.006874  2.251665  0.011
O  O61  1  0.50126674  0.74615010  0.56655157  1  -1.179232  0.013  -0.318294  -0.491674  0.006852  2.250923  0.011
O  O62  1  0.73795927  0.35785127  0.56730076  1  -1.247183  0.058682  -0.574481  -0.763245  0.032641  2.161707  0.051
O  O63  1  0.23799251  0.92420057  0.43263650  1  -1.253782  0.058737  -0.574742  -0.764155  0.032617  2.160242  0.051
