# generated using pymatgen
data_LaH19C16N2Cl4O9
_symmetry_space_group_name_H-M   'P 1'
_cell_length_a   9.37012309
_cell_length_b   10.99219604
_cell_length_c   12.52400000
_cell_angle_alpha   89.56607876
_cell_angle_beta   72.39741535
_cell_angle_gamma   79.94692858
_symmetry_Int_Tables_number   1
_chemical_formula_structural   LaH19C16N2Cl4O9
_chemical_formula_sum   'La2 H38 C32 N4 Cl8 O18'
_cell_volume   1209.26681669
_cell_formula_units_Z   2
loop_
 _symmetry_equiv_pos_site_id
 _symmetry_equiv_pos_as_xyz
  1  'x, y, z'
loop_
 _atom_site_type_symbol
 _atom_site_label
 _atom_site_symmetry_multiplicity
 _atom_site_fract_x
 _atom_site_fract_y
 _atom_site_fract_z
 _atom_site_occupancy
 _atom_site_hle17_bader_spin_density
 _atom_site_hle17_ddec_charge
 _atom_site_hle17_ddec_spin_density
 _atom_site_hle17_ddec_sum_bond_order
 _atom_site_hle17_magmom
 _atom_site_hse06_10hf_bader_spin_density
 _atom_site_hse06_10hf_ddec_charge
 _atom_site_hse06_10hf_ddec_spin_density
 _atom_site_hse06_10hf_ddec_sum_bond_order
 _atom_site_hse06_10hf_magmom
 _atom_site_hse06_bader_spin_density
 _atom_site_hse06_ddec_charge
 _atom_site_hse06_ddec_spin_density
 _atom_site_hse06_ddec_sum_bond_order
 _atom_site_hse06_magmom
 _atom_site_pbe_bader_charge
 _atom_site_pbe_bader_spin_density
 _atom_site_pbe_cm5_charge
 _atom_site_pbe_ddec_charge
 _atom_site_pbe_ddec_spin_density
 _atom_site_pbe_ddec_sum_bond_order
 _atom_site_pbe_magmom
La  La0  1  0.12763894  0.54443868  0.10837381  1  0  2.158247  0  1.734967  0  0  2.04024  0  2.240259  0  0  2.141842  0  2.137769  0  2.285605  0  1.384995  1.961793  0  2.314095  0
La  La1  1  0.87236317  0.45556046  0.89162548  1  0  2.158197  0  1.735004  0  0  2.04015  0  2.240361  0  0  2.141765  0  2.137855  0  2.28563  0  1.384968  1.961711  0  2.314185  0
H  H2  1  0.41489684  0.21995661  0.79687228  1  0  0.142022  0  0.922904  0  0  0.165729  0  0.972659  0  0  0.168116  0  0.971699  0  0.063824  0  0.102922  0.164054  0  0.973318  0
H  H3  1  0.58510680  0.78004068  0.20312827  1  0  0.141993  0  0.922777  0  0  0.165698  0  0.972536  0  0  0.16808  0  0.971584  0  0.063929  0  0.102901  0.164023  0  0.973194  0
H  H4  1  0.44044053  0.35303484  0.71905289  1  0  0.134659  0  0.937155  0  0  0.153495  0  0.996578  0  0  0.156107  0  0.995143  0  0.044765  0  0.096484  0.151656  0  0.997734  0
H  H5  1  0.55956198  0.64696245  0.28094872  1  0  0.134673  0  0.937128  0  0  0.1535  0  0.996552  0  0  0.156113  0  0.995116  0  0.04485  0  0.096474  0.15166  0  0.997708  0
H  H6  1  0.27162709  0.28829161  0.73538930  1  0  0.147072  0  0.954697  0  0  0.159556  0  1.023178  0  0  0.162905  0  1.021149  0  0.106839  0  0.099341  0.157208  0  1.024468  0
H  H7  1  0.72837543  0.71170568  0.26461310  1  0  0.147116  0  0.954656  0  0  0.159549  0  1.023197  0  0  0.162898  0  1.021168  0  0.106745  0  0.099336  0.157201  0  1.024487  0
H  H8  1  0.50390835  0.33112077  0.08405759  1  0  0.057112  0  0.930639  0  0  0.064442  0  1.002388  0  0  0.06687  0  0.996458  0  0.136979  0  0.133549  0.062572  0  1.006658  0
H  H9  1  0.49609335  0.66888023  0.91594337  1  0  0.057032  0  0.930784  0  0  0.064435  0  1.002439  0  0  0.066863  0  0.996511  0  0.136996  0  0.133542  0.062566  0  1.006709  0
H  H10  1  0.62176565  0.05976953  0.18025157  1  0  0.09583  0  0.93961  0  0  0.116228  0  1.001821  0  0  0.115686  0  1.003998  0  0.068698  0  0.097524  0.116464  0  1.000501  0
H  H11  1  0.37823625  0.94023054  0.81974856  1  0  0.095845  0  0.939629  0  0  0.116239  0  1.001832  0  0  0.115695  0  1.004009  0  0.068733  0  0.097522  0.116475  0  1.000512  0
H  H12  1  0.64878709  0.15619387  0.06291316  1  0  0.116702  0  0.952361  0  0  0.130308  0  1.025134  0  0  0.132311  0  1.02347  0  0.113717  0  0.109809  0.12872  0  1.026521  0
H  H13  1  0.35121370  0.84380619  0.93708722  1  0  0.116719  0  0.952344  0  0  0.130317  0  1.025125  0  0  0.132318  0  1.023463  0  0.113718  0  0.109811  0.128729  0  1.026512  0
H  H14  1  0.54561610  0.03164226  0.07022860  1  0  0.090786  0  0.942497  0  0  0.109941  0  1.006929  0  0  0.110861  0  1.006328  0  0.046017  0  0.09579  0.109302  0  1.007366  0
H  H15  1  0.45438357  0.96835781  0.92977203  1  0  0.090768  0  0.942528  0  0  0.109926  0  1.006954  0  0  0.110845  0  1.006356  0  0.045998  0  0.095785  0.109289  0  1.00739  0
H  H16  1  0.35284427  0.11840132  0.33683549  1  0  0.084644  0  0.966225  0  0  0.098937  0  1.041828  0  0  0.099215  0  1.041919  0  0.056947  0  0.086586  0.098673  0  1.041819  0
H  H17  1  0.64715519  0.88159967  0.66316439  1  0  0.084652  0  0.96618  0  0  0.098934  0  1.041794  0  0  0.099214  0  1.041885  0  0.056943  0  0.086603  0.09867  0  1.041787  0
H  H18  1  0.29787972  0.04854471  0.23091849  1  0  0.111283  0  0.958718  0  0  0.126808  0  1.028395  0  0  0.128444  0  1.0271  0  0.1038  0  0.098963  0.125542  0  1.029363  0
H  H19  1  0.70212197  0.95145628  0.76908168  1  0  0.111262  0  0.95871  0  0  0.126789  0  1.028395  0  0  0.128425  0  1.027101  0  0.103782  0  0.098945  0.125522  0  1.029364  0
H  H20  1  0.20786923  0.20249177  0.28448382  1  0  0.105819  0  0.957265  0  0  0.123762  0  1.023529  0  0  0.12539  0  1.021866  0  0.089764  0  0.104244  0.122277  0  1.025234  0
H  H21  1  0.79213134  0.79750923  0.71551501  1  0  0.105794  0  0.957283  0  0  0.12374  0  1.023545  0  0  0.125369  0  1.021881  0  0.089759  0  0.104225  0.122257  0  1.025247  0
H  H22  1  0.03028965  0.35279619  0.34495613  1  0  0.037536  0  0.950555  0  0  0.043826  0  1.028698  0  0  0.046247  0  1.022421  0  0.09876  0  0.12247  0.042069  0  1.032999  0
H  H23  1  0.96970757  0.64720480  0.65504585  1  0  0.037522  0  0.950555  0  0  0.043807  0  1.028698  0  0  0.04623  0  1.022421  0  0.098744  0  0.122459  0.042049  0  1.032999  0
H  H24  1  0.91709997  0.25496031  0.48897386  1  0  0.095131  0  0.949832  0  0  0.113589  0  1.01776  0  0  0.113799  0  1.018419  0  0.06321  0  0.099709  0.113224  0  1.017602  0
H  H25  1  0.08289592  0.74504161  0.51102761  1  0  0.095271  0  0.949689  0  0  0.113692  0  1.017646  0  0  0.113902  0  1.018304  0  0.063149  0  0.099766  0.113327  0  1.017488  0
H  H26  1  0.71989499  0.31521454  0.55204342  1  0  0.087562  0  0.964765  0  0  0.103041  0  1.037349  0  0  0.103646  0  1.037065  0  0.062242  0  0.089181  0.102434  0  1.037809  0
H  H27  1  0.28009958  0.68478831  0.44795835  1  0  0.087567  0  0.964841  0  0  0.103057  0  1.03741  0  0  0.103661  0  1.037124  0  0.062265  0  0.089209  0.102452  0  1.037867  0
H  H28  1  0.85590261  0.34493465  0.61791442  1  0  0.114628  0  0.948647  0  0  0.130445  0  1.016343  0  0  0.131704  0  1.016173  0  0.109333  0  0.110334  0.1293  0  1.016775  0
H  H29  1  0.14409216  0.65506726  0.38208811  1  0  0.114627  0  0.94867  0  0  0.130443  0  1.01636  0  0  0.1317  0  1.016192  0  0.109334  0  0.110324  0.129299  0  1.016792  0
H  H30  1  0.79084524  0.63732307  0.47979474  1  0  0.108493  0  0.964606  0  0  0.126086  0  1.031693  0  0  0.127651  0  1.030552  0  0.092664  0  0.100994  0.124829  0  1.032531  0
H  H31  1  0.20915177  0.36267885  0.52020409  1  0  0.108504  0  0.964643  0  0  0.126058  0  1.031764  0  0  0.127645  0  1.0306  0  0.092437  0  0.10099  0.124801  0  1.032598  0
H  H32  1  0.72906353  0.56700673  0.61235152  1  0  0.112726  0  0.95576  0  0  0.132042  0  1.018605  0  0  0.133051  0  1.018625  0  0.091563  0  0.106468  0.131105  0  1.01881  0
H  H33  1  0.27093684  0.43299518  0.38764735  1  0  0.11272  0  0.955787  0  0  0.132036  0  1.018626  0  0  0.133045  0  1.018647  0  0.09149  0  0.106467  0.131098  0  1.018827  0
H  H34  1  0.63594792  0.55618521  0.50812823  1  0  0.082099  0  0.957644  0  0  0.09657  0  1.03388  0  0  0.096934  0  1.033521  0  0.05075  0  0.088199  0.096326  0  1.033836  0
H  H35  1  0.36404929  0.44381579  0.49187295  1  0  0.082022  0  0.957646  0  0  0.096511  0  1.033874  0  0  0.096867  0  1.033523  0  0.050616  0  0.088168  0.096267  0  1.033828  0
H  H36  1  0.30941809  0.72275939  0.16277476  1  0  0.418873  0  0.893218  0  0  0.387151  0  0.958839  0  0  0.399319  0  0.941352  0  0.645643  0  0.286077  0.378326  0  0.971415  0
H  H37  1  0.69058249  0.27724161  0.83722486  1  0  0.418829  0  0.89328  0  0  0.387127  0  0.958867  0  0  0.399294  0  0.941382  0  0.64564  0  0.286072  0.378302  0  0.971443  0
H  H38  1  0.45782721  0.61497517  0.10309365  1  0  0.438223  0  0.862693  0  0  0.408182  0  0.923612  0  0  0.420077  0  0.906571  0  0.622016  0  0.29194  0.398576  0  0.937397  0
H  H39  1  0.54217357  0.38502490  0.89690753  1  0  0.438234  0  0.862685  0  0  0.408196  0  0.923596  0  0  0.420092  0  0.906555  0  0.622058  0  0.291937  0.398589  0  0.937384  0
C  C40  1  0.07726073  0.85252428  0.22164168  1  0  0.673602  0  3.942264  0  0  0.6246  0  4.247914  0  0  0.659077  0  4.239731  0  1.648823  0  0.210036  0.600876  0  4.252605  0
C  C41  1  0.92273711  0.14747394  0.77835938  1  0  0.673554  0  3.942535  0  0  0.624592  0  4.24813  0  0  0.659072  0  4.239944  0  1.649352  0  0.209957  0.600869  0  4.252821  0
C  C42  1  0.96611295  0.97501593  0.24842788  1  0  -0.128356  0  3.708734  0  0  -0.131853  0  3.967371  0  0  -0.133798  0  3.981613  0  0.099122  0  -0.017342  -0.130854  0  3.958394  0
C  C43  1  0.03388560  0.02498414  0.75157061  1  0  -0.128288  0  3.708827  0  0  -0.131792  0  3.967437  0  0  -0.133733  0  3.981677  0  0.09911  0  -0.017342  -0.130792  0  3.95846  0
C  C44  1  0.84220320  0.99469522  0.34676532  1  0  0.076179  0  3.772527  0  0  0.071902  0  4.049226  0  0  0.075364  0  4.067643  0  0.068485  0  0.009062  0.068846  0  4.037513  0
C  C45  1  0.15779758  0.00530485  0.65323346  1  0  0.076143  0  3.772583  0  0  0.071854  0  4.049271  0  0  0.07531  0  4.067696  0  0.068481  0  0.009063  0.068795  0  4.037559  0
C  C46  1  0.73903669  0.10781382  0.37215717  1  0  0.008435  0  3.818475  0  0  0.002709  0  4.103168  0  0  0.004814  0  4.122767  0  0.163399  0  -0.006599  0.0012  0  4.090338  0
C  C47  1  0.26096388  0.89218718  0.62784165  1  0  0.008411  0  3.818565  0  0  0.002722  0  4.103189  0  0  0.004827  0  4.12279  0  0.163397  0  -0.006608  0.001214  0  4.09036  0
C  C48  1  0.76282741  0.20308284  0.29681580  1  0  0.069754  0  3.781791  0  0  0.064977  0  4.060387  0  0  0.068199  0  4.079573  0  0.083809  0  0.007651  0.06233  0  4.048025  0
C  C49  1  0.23717337  0.79691723  0.70318298  1  0  0.06975  0  3.781859  0  0  0.065013  0  4.060456  0  0  0.068236  0  4.079643  0  0.083812  0  0.007661  0.062367  0  4.048093  0
C  C50  1  0.88716647  0.18686951  0.19941536  1  0  -0.137803  0  3.737209  0  0  -0.140508  0  3.995745  0  0  -0.14276  0  4.009902  0  0.072796  0  -0.020617  -0.139688  0  3.987347  0
C  C51  1  0.11283431  0.81313056  0.80058343  1  0  -0.137698  0  3.737163  0  0  -0.140528  0  3.995878  0  0  -0.142775  0  4.010026  0  0.072782  0  -0.020578  -0.139708  0  3.987479  0
C  C52  1  0.98616685  0.07283787  0.17638444  1  0  0.117232  0  3.763149  0  0  0.108408  0  4.043687  0  0  0.112821  0  4.061695  0  0.038065  0  0.020143  0.105328  0  4.032443  0
C  C53  1  0.01383281  0.92716219  0.82361300  1  0  0.117145  0  3.763227  0  0  0.108354  0  4.043782  0  0  0.112766  0  4.061792  0  0.038107  0  0.020122  0.105275  0  4.032538  0
C  C54  1  0.27603113  0.38761766  0.88211893  1  0  0.77801  0  3.807121  0  0  0.741014  0  4.097698  0  0  0.776504  0  4.090658  0  1.519051  0  0.228212  0.716278  0  4.102001  0
C  C55  1  0.72397006  0.61238055  0.11788217  1  0  0.778114  0  3.807011  0  0  0.741064  0  4.097658  0  0  0.776558  0  4.090608  0  1.519077  0  0.228243  0.716327  0  4.101961  0
C  C56  1  0.35397065  0.30737797  0.77629704  1  0  -0.45818  0  3.648257  0  0  -0.53185  0  3.875379  0  0  -0.538355  0  3.875481  0  -0.093914  0  -0.239995  -0.527182  0  3.875277  0
C  C57  1  0.64603299  0.69261932  0.22370510  1  0  -0.458227  0  3.648069  0  0  -0.531822  0  3.875278  0  0  -0.538326  0  3.875377  0  -0.094009  0  -0.239957  -0.527154  0  3.875175  0
C  C58  1  0.40719853  0.30635678  0.15067313  1  0  0.404779  0  3.802853  0  0  0.327895  0  4.098666  0  0  0.3578  0  4.098128  0  1.362505  0  0.18158  0.30768  0  4.098355  0
C  C59  1  0.59280205  0.69364422  0.84932809  1  0  0.404799  0  3.802793  0  0  0.327881  0  4.098605  0  0  0.357786  0  4.09807  0  1.36249  0  0.181601  0.307666  0  4.098295  0
C  C60  1  0.56911758  0.10437746  0.11903410  1  0  -0.185195  0  3.683648  0  0  -0.286133  0  3.93733  0  0  -0.283087  0  3.948449  0  0.246106  0  -0.138805  -0.288003  0  3.929914  0
C  C61  1  0.43088320  0.89562261  0.88096628  1  0  -0.185239  0  3.68373  0  0  -0.286169  0  3.937427  0  0  -0.283121  0  3.948549  0  0.24608  0  -0.138817  -0.288039  0  3.930009  0
C  C62  1  0.31509815  0.13623801  0.26223108  1  0  -0.175634  0  3.651424  0  0  -0.2746  0  3.896533  0  0  -0.270989  0  3.905976  0  0.235714  0  -0.142921  -0.276696  0  3.89033  0
C  C63  1  0.68490264  0.86376205  0.73776771  1  0  -0.175617  0  3.651323  0  0  -0.274562  0  3.896427  0  0  -0.270953  0  3.905866  0  0.235721  0  -0.142912  -0.276658  0  3.890222  0
C  C64  1  0.95816278  0.44387776  0.37456838  1  0  0.408387  0  3.810179  0  0  0.33096  0  4.107512  0  0  0.360354  0  4.108002  0  1.390249  0  0.178119  0.311315  0  4.105952  0
C  C65  1  0.04183668  0.55612323  0.62543230  1  0  0.408371  0  3.810214  0  0  0.330967  0  4.107504  0  0  0.360362  0  4.107995  0  1.390235  0  0.178124  0.311325  0  4.105942  0
C  C66  1  0.83548688  0.33408260  0.53707798  1  0  -0.176692  0  3.663582  0  0  -0.280459  0  3.918029  0  0  -0.277346  0  3.929504  0  0.23868  0  -0.137952  -0.282177  0  3.910368  0
C  C67  1  0.16450789  0.66591931  0.46292295  1  0  -0.176825  0  3.663632  0  0  -0.280575  0  3.918091  0  0  -0.277465  0  3.929575  0  0.238696  0  -0.138018  -0.282293  0  3.910428  0
C  C68  1  0.74605288  0.55822390  0.52191790  1  0  -0.179195  0  3.6553  0  0  -0.278218  0  3.90047  0  0  -0.274621  0  3.909907  0  0.232035  0  -0.141887  -0.280294  0  3.89389  0
C  C69  1  0.25394525  0.44177802  0.47808147  1  0  -0.179107  0  3.655261  0  0  -0.278101  0  3.900425  0  0  -0.274516  0  3.909856  0  0.232488  0  -0.141845  -0.280189  0  3.893873  0
C  C70  1  0.92043869  0.29315061  0.12366566  1  0  0.701987  0  3.936574  0  0  0.653123  0  4.24265  0  0  0.689559  0  4.232352  0  1.668218  0  0.222249  0.62797  0  4.248692  0
C  C71  1  0.07956292  0.70684576  0.87633137  1  0  0.701905  0  3.93651  0  0  0.653034  0  4.242683  0  0  0.689471  0  4.232387  0  1.66796  0  0.22219  0.627883  0  4.24872  0
N  N72  1  0.42854772  0.18766038  0.17645443  1  0  -0.082675  0  3.512393  0  0  0.021959  0  3.744541  0  0  0.001127  0  3.770092  0  -1.227703  0  -0.281906  0.035904  0  3.726933  0
N  N73  1  0.57145286  0.81234061  0.82354599  1  0  -0.082581  0  3.512299  0  0  0.022027  0  3.744486  0  0  0.001197  0  3.770039  0  -1.227696  0  -0.281883  0.035972  0  3.726878  0
N  N74  1  0.85321151  0.44544840  0.47447448  1  0  -0.093992  0  3.521972  0  0  0.013707  0  3.751029  0  0  -0.007497  0  3.777379  0  -1.206003  0  -0.284005  0.027761  0  3.73265  0
N  N75  1  0.14678551  0.55455351  0.52552594  1  0  -0.093978  0  3.521976  0  0  0.013723  0  3.751013  0  0  -0.00748  0  3.777369  0  -1.205976  0  -0.283992  0.027776  0  3.732632  0
Cl  Cl76  1  0.81794628  0.87813094  0.43982258  1  0  -0.04689  0  1.450524  0  0  -0.027448  0  1.693113  0  0  -0.02932  0  1.686379  0  -0.188499  0  0.036449  -0.026274  0  1.698519  0
Cl  Cl77  1  0.18205339  0.12186913  0.56017645  1  0  -0.046888  0  1.450538  0  0  -0.027446  0  1.693135  0  0  -0.029318  0  1.686409  0  -0.188514  0  0.036442  -0.026271  0  1.69854  0
Cl  Cl78  1  0.58713167  0.13005349  0.49237305  1  0  -0.058937  0  1.487812  0  0  -0.048285  0  1.731957  0  0  -0.049784  0  1.725781  0  -0.182958  0  0.019451  -0.047194  0  1.736656  0
Cl  Cl79  1  0.41287002  0.86994750  0.50762552  1  0  -0.058921  0  1.48783  0  0  -0.048282  0  1.731957  0  0  -0.049781  0  1.725781  0  -0.183058  0  0.019456  -0.047193  0  1.736657  0
Cl  Cl80  1  0.63823440  0.34293574  0.32354929  1  0  -0.034796  0  1.407779  0  0  -0.01198  0  1.642755  0  0  -0.013892  0  1.637604  0  -0.190886  0  0.043665  -0.010865  0  1.646488  0
Cl  Cl81  1  0.36176730  0.65706525  0.67645008  1  0  -0.034803  0  1.407823  0  0  -0.011989  0  1.642788  0  0  -0.013901  0  1.637639  0  -0.190877  0  0.043667  -0.010875  0  1.646522  0
Cl  Cl82  1  0.13700722  0.05454701  0.05403778  1  0  -0.035458  0  1.402459  0  0  -0.017052  0  1.644717  0  0  -0.019354  0  1.639292  0  -0.179893  0  0.045563  -0.015631  0  1.649151  0
Cl  Cl83  1  0.86299244  0.94545306  0.94596206  1  0  -0.035423  0  1.402416  0  0  -0.017016  0  1.64466  0  0  -0.01932  0  1.639237  0  -0.179853  0  0.045582  -0.015595  0  1.649095  0
O  O84  1  0.02768309  0.76171651  0.19291962  1  0  -0.673477  0  1.986419  0  0  -0.633286  0  2.241656  0  0  -0.666026  0  2.233073  0  -1.185408  0  -0.371586  -0.608235  0  2.24608  0
O  O85  1  0.97231607  0.23828078  0.80708115  1  0  -0.673461  0  1.986584  0  0  -0.633256  0  2.24178  0  0  -0.665997  0  2.233195  0  -1.18596  0  -0.371527  -0.608204  0  2.246203  0
O  O86  1  0.20824640  0.85300065  0.22975277  1  0  -0.611002  0  1.918577  0  0  -0.561721  0  2.12621  0  0  -0.587004  0  2.117186  0  -1.159776  0  -0.314882  -0.543838  0  2.132078  0
O  O87  1  0.79174808  0.14699757  0.77024985  1  0  -0.611008  0  1.918682  0  0  -0.561756  0  2.12629  0  0  -0.587041  0  2.117265  0  -1.159794  0  -0.314864  -0.543875  0  2.132158  0
O  O88  1  0.84840801  0.31493796  0.05321178  1  0  -0.665281  0  2.000671  0  0  -0.629168  0  2.259877  0  0  -0.661954  0  2.251075  0  -1.170803  0  -0.360821  -0.604763  0  2.264619  0
O  O89  1  0.15159666  0.68505470  0.94678377  1  0  -0.665284  0  2.000575  0  0  -0.629144  0  2.259782  0  0  -0.661929  0  2.250986  0  -1.170606  0  -0.360809  -0.604739  0  2.264526  0
O  O90  1  0.01894683  0.34864204  0.14124305  1  0  -0.683756  0  2.06189  0  0  -0.643956  0  2.320899  0  0  -0.678459  0  2.315253  0  -1.176912  0  -0.361166  -0.617996  0  2.323566  0
O  O91  1  0.98105131  0.65135988  0.85875552  1  0  -0.683717  0  2.061977  0  0  -0.643888  0  2.320952  0  0  -0.678392  0  2.315306  0  -1.176793  0  -0.361157  -0.617931  0  2.323616  0
O  O92  1  0.13180823  0.41996384  0.91467194  1  0  -0.742763  0  2.08044  0  0  -0.690799  0  2.336435  0  0  -0.728019  0  2.329158  0  -1.186097  0  -0.390545  -0.663593  0  2.34052  0
O  O93  1  0.86819409  0.58003437  0.08532571  1  0  -0.742866  0  2.080399  0  0  -0.690872  0  2.336415  0  0  -0.728093  0  2.329138  0  -1.186166  0  -0.390613  -0.663664  0  2.340501  0
O  O94  1  0.35473784  0.42245023  0.93983878  1  0  -0.693514  0  1.953094  0  0  -0.635962  0  2.175646  0  0  -0.668719  0  2.166967  0  -1.196451  0  -0.341289  -0.612115  0  2.181444  0
O  O95  1  0.64526091  0.57754891  0.06016447  1  0  -0.693512  0  1.953037  0  0  -0.635949  0  2.175635  0  0  -0.668704  0  2.166949  0  -1.196463  0  -0.341271  -0.612104  0  2.18143  0
O  O96  1  0.28915639  0.38410083  0.19675486  1  0  -0.605251  0  2.100832  0  0  -0.557613  0  2.366986  0  0  -0.587091  0  2.360737  0  -1.19657  0  -0.35296  -0.536354  0  2.370338  0
O  O97  1  0.71084664  0.61589924  0.80324501  1  0  -0.605241  0  2.100736  0  0  -0.557618  0  2.366926  0  0  -0.587099  0  2.360678  0  -1.196584  0  -0.352979  -0.536362  0  2.37028  0
O  O98  1  0.97662911  0.53714047  0.31703717  1  0  -0.582862  0  2.055642  0  0  -0.535213  0  2.318899  0  0  -0.564591  0  2.313647  0  -1.185175  0  -0.347048  -0.513975  0  2.321457  0
O  O99  1  0.02337056  0.46285960  0.68296347  1  0  -0.58285  0  2.055631  0  0  -0.535206  0  2.318869  0  0  -0.564591  0  2.31362  0  -1.185179  0  -0.347058  -0.513971  0  2.321426  0
O  O100  1  0.34491912  0.63996486  0.12048915  1  0  -0.926069  0  1.837519  0  0  -0.875513  0  2.031809  0  0  -0.903117  0  1.995696  0  -1.293093  0  -0.655403  -0.854188  0  2.058375  0
O  O101  1  0.65508440  0.36003799  0.87950580  1  0  -0.926038  0  1.837606  0  0  -0.875484  0  2.031846  0  0  -0.903087  0  1.995726  0  -1.293127  0  -0.655407  -0.854159  0  2.05841  0
