# generated using pymatgen
data_SbH8C7S5BrO
_symmetry_space_group_name_H-M   'P 1'
_cell_length_a   7.79759207
_cell_length_b   8.81208641
_cell_length_c   10.25214696
_cell_angle_alpha   99.17694684
_cell_angle_beta   102.94904568
_cell_angle_gamma   106.03363062
_symmetry_Int_Tables_number   1
_chemical_formula_structural   SbH8C7S5BrO
_chemical_formula_sum   'Sb2 H16 C14 S10 Br2 O2'
_cell_volume   641.14119696
_cell_formula_units_Z   2
loop_
 _symmetry_equiv_pos_site_id
 _symmetry_equiv_pos_as_xyz
  1  'x, y, z'
loop_
 _atom_site_type_symbol
 _atom_site_label
 _atom_site_symmetry_multiplicity
 _atom_site_fract_x
 _atom_site_fract_y
 _atom_site_fract_z
 _atom_site_occupancy
 _atom_site_hle17_bader_spin_density
 _atom_site_hle17_ddec_charge
 _atom_site_hle17_ddec_spin_density
 _atom_site_hle17_ddec_sum_bond_order
 _atom_site_hle17_magmom
 _atom_site_hse06_10hf_bader_spin_density
 _atom_site_hse06_10hf_ddec_charge
 _atom_site_hse06_10hf_ddec_spin_density
 _atom_site_hse06_10hf_ddec_sum_bond_order
 _atom_site_hse06_10hf_magmom
 _atom_site_hse06_bader_spin_density
 _atom_site_hse06_ddec_charge
 _atom_site_hse06_ddec_spin_density
 _atom_site_hse06_ddec_sum_bond_order
 _atom_site_hse06_magmom
 _atom_site_pbe_bader_spin_density
 _atom_site_pbe_cm5_charge
 _atom_site_pbe_ddec_charge
 _atom_site_pbe_ddec_spin_density
 _atom_site_pbe_ddec_sum_bond_order
 _atom_site_pbe_magmom
Sb  Sb0  1  0.29969570  0.49048809  0.31235487  1  0  0.683161  0  2.846944  0  0  0.592077  0  3.352151  0  0  0.615926  0  3.341586  0  0  0.39568  0.567985  0  3.362092  0
Sb  Sb1  1  0.70029842  0.50951514  0.68764523  1  0  0.683084  0  2.847031  0  0  0.592043  0  3.352186  0  0  0.615872  0  3.341667  0  0  0.395652  0.567964  0  3.362101  0
H  H2  1  0.27674075  0.38835745  0.85991720  1  0  0.053014  0  0.941905  0  0  0.064158  0  1.012867  0  0  0.064844  0  1.012221  0  0  0.085498  0.061563  0  1.017241  0
H  H3  1  0.72327577  0.61164225  0.14008696  1  0  0.053063  0  0.941919  0  0  0.064201  0  1.012835  0  0  0.064882  0  1.012195  0  0  0.085526  0.061605  0  1.017213  0
H  H4  1  0.10303713  0.39901802  0.94667894  1  0  0.052509  0  0.974167  0  0  0.056734  0  1.058589  0  0  0.057156  0  1.058222  0  0  0.083774  0.05676  0  1.05818  0
H  H5  1  0.89696473  0.60097801  0.05331356  1  0  0.052433  0  0.974252  0  0  0.056645  0  1.058671  0  0  0.057067  0  1.058303  0  0  0.083744  0.05667  0  1.05826  0
H  H6  1  0.09665475  0.10229562  0.80394787  1  0  0.061506  0  0.990409  0  0  0.07242  0  1.06755  0  0  0.072294  0  1.069427  0  0  0.072461  0.072523  0  1.066546  0
H  H7  1  0.90336128  0.89769923  0.19605356  1  0  0.061596  0  0.9902  0  0  0.07244  0  1.067411  0  0  0.072315  0  1.069284  0  0  0.072487  0.072544  0  1.066404  0
H  H8  1  0.04121438  0.12062563  0.96328323  1  0  0.068689  0  0.967857  0  0  0.083258  0  1.037092  0  0  0.08407  0  1.037437  0  0  0.075934  0.082394  0  1.037551  0
H  H9  1  0.95879546  0.87937042  0.03671445  1  0  0.068648  0  0.967869  0  0  0.083241  0  1.037074  0  0  0.084031  0  1.037442  0  0  0.075869  0.082368  0  1.037549  0
H  H10  1  0.29738188  0.03176130  0.04004357  1  0  0.065099  0  0.963856  0  0  0.079627  0  1.031441  0  0  0.080248  0  1.03175  0  0  0.075096  0.078597  0  1.032245  0
H  H11  1  0.70263246  0.96824323  0.95996094  1  0  0.06507  0  0.963794  0  0  0.079605  0  1.031429  0  0  0.080228  0  1.031738  0  0  0.075096  0.078576  0  1.032227  0
H  H12  1  0.39334585  0.08369618  0.90617643  1  0  0.063648  0  0.965073  0  0  0.075936  0  1.036042  0  0  0.076529  0  1.036973  0  0  0.075069  0.075146  0  1.035866  0
H  H13  1  0.60667775  0.91630839  0.09383152  1  0  0.063729  0  0.96531  0  0  0.076089  0  1.036186  0  0  0.07669  0  1.037112  0  0  0.075162  0.07528  0  1.036024  0
H  H14  1  0.50782540  0.28854472  0.18587755  1  0  0.037599  0  0.974644  0  0  0.043213  0  1.060796  0  0  0.042997  0  1.061129  0  0  0.077928  0.043575  0  1.060347  0
H  H15  1  0.49216888  0.71145846  0.81413233  1  0  0.037588  0  0.974662  0  0  0.043159  0  1.06079  0  0  0.042959  0  1.061111  0  0  0.077905  0.043516  0  1.060343  0
H  H16  1  0.58124253  0.33822551  0.04113009  1  0  0.056216  0  0.963449  0  0  0.066821  0  1.035726  0  0  0.067644  0  1.034685  0  0  0.086231  0.066337  0  1.036173  0
H  H17  1  0.41877029  0.66178501  0.95888773  1  0  0.05622  0  0.963638  0  0  0.066779  0  1.035884  0  0  0.067603  0  1.034848  0  0  0.08622  0.066295  0  1.036329  0
C  C18  1  0.24657603  0.82733763  0.46440497  1  0  -0.06112  0  3.851418  0  0  -0.053247  0  4.141205  0  0  -0.051618  0  4.163487  0  0  -0.038293  -0.054179  0  4.125672  0
C  C19  1  0.75340216  0.17265828  0.53558665  1  0  -0.061095  0  3.851302  0  0  -0.05319  0  4.14103  0  0  -0.051559  0  4.163306  0  0  -0.038225  -0.054122  0  4.125497  0
C  C20  1  0.27452740  0.86406624  0.34347418  1  0  -0.060775  0  3.824531  0  0  -0.049813  0  4.110995  0  0  -0.048953  0  4.13334  0  0  -0.034958  -0.050291  0  4.095117  0
C  C21  1  0.72544817  0.13592601  0.65651844  1  0  -0.060842  0  3.824647  0  0  -0.049857  0  4.111051  0  0  -0.048993  0  4.133386  0  0  -0.035012  -0.050334  0  4.095174  0
C  C22  1  0.27012912  0.13176949  0.49233500  1  0  -0.039932  0  3.808198  0  0  -0.036066  0  4.123583  0  0  -0.021422  0  4.137993  0  0  -0.002506  -0.044952  0  4.112065  0
C  C23  1  0.72986976  0.86823257  0.50766180  1  0  -0.040044  0  3.808299  0  0  -0.036163  0  4.123676  0  0  -0.021522  0  4.138092  0  0  -0.002534  -0.045047  0  4.112155  0
C  C24  1  0.21309202  0.34601383  0.93880486  1  0  0.08705  0  3.585395  0  0  0.030561  0  3.847274  0  0  0.03812  0  3.852901  0  0  -0.085737  0.025835  0  3.844348  0
C  C25  1  0.78691253  0.65398220  0.06119100  1  0  0.087018  0  3.585508  0  0  0.030595  0  3.847329  0  0  0.038158  0  3.852948  0  0  -0.08572  0.025883  0  3.844369  0
C  C26  1  0.15118074  0.16184254  0.91391289  1  0  -0.151863  0  3.686124  0  0  -0.189705  0  3.936649  0  0  -0.19186  0  3.950512  0  0  -0.18276  -0.188651  0  3.927564  0
C  C27  1  0.84883309  0.83815352  0.08608738  1  0  -0.15191  0  3.686207  0  0  -0.189694  0  3.936648  0  0  -0.191833  0  3.950523  0  0  -0.182741  -0.188635  0  3.927551  0
C  C28  1  0.32855684  0.12643423  0.98296583  1  0  -0.136394  0  3.640951  0  0  -0.168912  0  3.885074  0  0  -0.170976  0  3.898527  0  0  -0.175593  -0.166924  0  3.875918  0
C  C29  1  0.67145630  0.87356662  0.01704576  1  0  -0.13646  0  3.641578  0  0  -0.169173  0  3.88576  0  0  -0.171242  0  3.899214  0  0  -0.175693  -0.16717  0  3.876613  0
C  C30  1  0.45901699  0.29080384  0.07712424  1  0  0.083957  0  3.556053  0  0  0.02875  0  3.815276  0  0  0.036608  0  3.820637  0  0  -0.083578  0.023572  0  3.810369  0
C  C31  1  0.54098789  0.70919937  0.92289124  1  0  0.083891  0  3.556571  0  0  0.02894  0  3.815523  0  0  0.036788  0  3.820871  0  0  -0.083527  0.023752  0  3.810635  0
S  S32  1  0.23157388  0.64556540  0.51130252  1  0  -0.191866  0  2.403138  0  0  -0.173036  0  2.772203  0  0  -0.181123  0  2.774373  0  0  -0.098889  -0.165398  0  2.770869  0
S  S33  1  0.76840211  0.35443171  0.48868892  1  0  -0.191909  0  2.40315  0  0  -0.173098  0  2.772189  0  0  -0.181181  0  2.774358  0  0  -0.098902  -0.165459  0  2.770855  0
S  S34  1  0.30024992  0.73522849  0.20799000  1  0  -0.1684  0  2.199286  0  0  -0.15241  0  2.544902  0  0  -0.159255  0  2.545577  0  0  -0.0767  -0.145952  0  2.544748  0
S  S35  1  0.69974103  0.26476990  0.79200500  1  0  -0.168442  0  2.199342  0  0  -0.152447  0  2.544887  0  0  -0.159311  0  2.545605  0  0  -0.076711  -0.145992  0  2.544741  0
S  S36  1  0.23372474  0.98479570  0.58375383  1  0  0.210375  0  2.684726  0  0  0.203315  0  3.042175  0  0  0.203502  0  3.047226  0  0  0.122742  0.201974  0  3.039739  0
S  S37  1  0.76625521  0.01520143  0.41623825  1  0  0.210432  0  2.684851  0  0  0.203384  0  3.042227  0  0  0.20357  0  3.047284  0  0  0.122748  0.202043  0  3.039791  0
S  S38  1  0.29213175  0.06305366  0.33255811  1  0  0.187564  0  2.694099  0  0  0.184138  0  3.052159  0  0  0.185196  0  3.0558  0  0  0.124634  0.182937  0  3.049717  0
S  S39  1  0.70786316  0.93694840  0.66743707  1  0  0.187699  0  2.694164  0  0  0.184226  0  3.052272  0  0  0.185283  0  3.055922  0  0  0.124674  0.183028  0  3.049827  0
S  S40  1  0.28294703  0.32280770  0.55749600  1  0  -0.240601  0  2.269672  0  0  -0.225652  0  2.627028  0  0  -0.239071  0  2.628019  0  0  -0.116946  -0.216034  0  2.629484  0
S  S41  1  0.71704218  0.67719311  0.44249907  1  0  -0.240567  0  2.269719  0  0  -0.225612  0  2.627059  0  0  -0.239032  0  2.628052  0  0  -0.116933  -0.216005  0  2.629543  0
Br  Br42  1  0.94959429  0.30487917  0.19215497  1  0  -0.342442  0  1.044728  0  0  -0.30832  0  1.331821  0  0  -0.317213  0  1.320387  0  0  -0.159102  -0.299027  0  1.340452  0
Br  Br43  1  0.05040097  0.69512413  0.80783459  1  0  -0.342424  0  1.044808  0  0  -0.308286  0  1.331862  0  0  -0.317177  0  1.32043  0  0  -0.159073  -0.298991  0  1.340489  0
O  O44  1  0.35371976  0.40381273  0.07131641  1  0  -0.316988  0  2.254783  0  0  -0.223842  0  2.489888  0  0  -0.243624  0  2.493771  0  0  -0.219994  -0.207786  0  2.485708  0
O  O45  1  0.64627744  0.59618809  0.92868482  1  0  -0.316787  0  2.254948  0  0  -0.223832  0  2.490038  0  0  -0.243614  0  2.493935  0  0  -0.220002  -0.207773  0  2.485847  0
