# generated using pymatgen
data_AlH10C19O7
_symmetry_space_group_name_H-M   'P 1'
_cell_length_a   6.65801874
_cell_length_b   21.44477240
_cell_length_c   25.55370780
_cell_angle_alpha   95.80721689
_cell_angle_beta   89.95521907
_cell_angle_gamma   89.98650368
_symmetry_Int_Tables_number   1
_chemical_formula_structural   AlH10C19O7
_chemical_formula_sum   'Al4 H40 C76 O28'
_cell_volume   3629.82488756
_cell_formula_units_Z   4
loop_
 _symmetry_equiv_pos_site_id
 _symmetry_equiv_pos_as_xyz
  1  'x, y, z'
loop_
 _atom_site_type_symbol
 _atom_site_label
 _atom_site_symmetry_multiplicity
 _atom_site_fract_x
 _atom_site_fract_y
 _atom_site_fract_z
 _atom_site_occupancy
 _atom_site_pbe_bader_charge
 _atom_site_pbe_bader_spin_density
 _atom_site_pbe_cm5_charge
 _atom_site_pbe_ddec_charge
 _atom_site_pbe_ddec_spin_density
 _atom_site_pbe_ddec_sum_bond_order
 _atom_site_pbe_magmom
Al  Al0  1  0.21298214  0.74807352  0.74803960  1  2.502032  0  0.398705  1.649258  0  2.575158  0
Al  Al1  1  0.80167296  0.24867152  0.24844158  1  2.499727  0  0.39873  1.640898  0  2.580982  0
Al  Al2  1  0.71298292  0.75199520  0.75198596  1  2.50271  0  0.398957  1.649995  0  2.573105  0
Al  Al3  1  0.30169617  0.25127738  0.25148804  1  2.500458  0  0.398543  1.642127  0  2.580721  0
H  H4  1  0.94624795  0.62626707  0.41086933  1  0.077372  0  0.112604  0.135617  0  0.97955  0
H  H5  1  0.76837641  0.38556211  0.57726224  1  0.086562  0  0.109708  0.131548  0  0.982868  0
H  H6  1  0.44835176  0.87366817  0.08910640  1  0.075871  0  0.112429  0.135197  0  0.979443  0
H  H7  1  0.26633418  0.11433389  0.92294783  1  0.092823  0  0.109544  0.130971  0  0.982433  0
H  H8  1  0.07158954  0.62871694  0.58997748  1  0.062161  0  0.108551  0.107606  0  1.026441  0
H  H9  1  0.06117209  0.36903812  0.41180885  1  0.055468  0  0.110226  0.111261  0  1.015038  0
H  H10  1  0.57193291  0.87137716  0.90983393  1  0.063233  0  0.108565  0.107426  0  1.026969  0
H  H11  1  0.56035997  0.13097203  0.08810030  1  0.048447  0  0.110381  0.111436  0  1.014925  0
H  H12  1  0.79614563  0.54809930  0.71918910  1  0.072245  0  0.109903  0.113974  0  0.982851  0
H  H13  1  0.00418466  0.46186656  0.27108145  1  0.125117  0  0.103575  0.111045  0  1.040675  0
H  H14  1  0.29449744  0.95187485  0.78094548  1  0.07462  0  0.109659  0.113785  0  0.982743  0
H  H15  1  0.50602294  0.03806727  0.22887339  1  0.127579  0  0.103584  0.11227  0  1.039418  0
H  H16  1  0.98222177  0.56440734  0.32532699  1  0.063785  0  0.107735  0.10861  0  0.984196  0
H  H17  1  0.75975254  0.44629856  0.66342774  1  0.064458  0  0.105266  0.105167  0  0.99135  0
H  H18  1  0.48379713  0.93556630  0.17461825  1  0.066009  0  0.107715  0.108629  0  0.984679  0
H  H19  1  0.25762104  0.05364646  0.83678805  1  0.071559  0  0.105084  0.104866  0  0.991571  0
H  H20  1  0.70172633  0.97747949  0.58772678  1  0.0763  0  0.111372  0.113764  0  0.980368  0
H  H21  1  0.30413335  0.09804250  0.46599733  1  0.092104  0  0.112128  0.114151  0  0.97949  0
H  H22  1  0.20176507  0.52249631  0.91232752  1  0.076041  0  0.111403  0.113818  0  0.98018  0
H  H23  1  0.80437391  0.40192638  0.03395959  1  0.091275  0  0.112253  0.114276  0  0.979561  0
H  H24  1  0.68372867  0.90487481  0.65811203  1  0.112003  0  0.116485  0.121227  0  0.978575  0
H  H25  1  0.32207240  0.16605682  0.39244540  1  0.107878  0  0.115762  0.121762  0  0.979101  0
H  H26  1  0.18384508  0.59512813  0.84197571  1  0.113943  0  0.116313  0.120787  0  0.978944  0
H  H27  1  0.82195745  0.33388440  0.10751119  1  0.107828  0  0.115841  0.121989  0  0.979228  0
H  H28  1  0.26102093  0.89106630  0.53369769  1  0.118405  0  0.114032  0.122741  0  0.985818  0
H  H29  1  0.75913241  0.01467182  0.39906778  1  0.107693  0  0.114074  0.121659  0  0.990381  0
H  H30  1  0.76081664  0.60889735  0.96626200  1  0.115056  0  0.114122  0.122668  0  0.986063  0
H  H31  1  0.25921566  0.48540488  0.10102007  1  0.105092  0  0.113892  0.121352  0  0.990363  0
H  H32  1  0.87785796  0.64422459  0.54461970  1  0.614901  0  0.314345  0.34352  0  0.9402  0
H  H33  1  0.82888337  0.36839390  0.44285722  1  0.577592  0  0.309636  0.339646  0  0.951207  0
H  H34  1  0.37904044  0.85571321  0.95542209  1  0.616394  0  0.314367  0.34388  0  0.939745  0
H  H35  1  0.32770701  0.13149204  0.05729606  1  0.575467  0  0.310271  0.340249  0  0.950486  0
H  H36  1  0.21867461  0.75727497  0.60951316  1  0.061051  0  0.102635  0.035876  0  0.979843  0
H  H37  1  0.79325471  0.08830162  0.27512403  1  0.063762  0  0.107155  0.044843  0  0.994409  0
H  H38  1  0.71830302  0.74269044  0.89033833  1  0.05892  0  0.102847  0.035828  0  0.97977  0
H  H39  1  0.29320644  0.41222392  0.22505996  1  0.071622  0  0.107025  0.044807  0  0.992992  0
H  H40  1  0.47563431  0.73093794  0.68117479  1  0.618846  0  0.356394  0.436767  0  0.845334  0
H  H41  1  0.56002471  0.28734125  0.31325779  1  0.647415  0  0.35546  0.432872  0  0.84961  0
H  H42  1  0.97517618  0.76841200  0.81897540  1  0.613676  0  0.356399  0.436708  0  0.845827  0
H  H43  1  0.06060765  0.21258730  0.18669224  1  0.647494  0  0.355345  0.43309  0  0.850003  0
C  C44  1  0.45842194  0.68048352  0.81928024  1  1.56884  0  0.268467  0.635351  0  4.11163  0
C  C45  1  0.55136398  0.32268326  0.18304443  1  1.553103  0  0.266362  0.631578  0  4.116376  0
C  C46  1  0.95829426  0.81953968  0.68076395  1  1.565724  0  0.268314  0.636172  0  4.110803  0
C  C47  1  0.05182173  0.17728764  0.31691017  1  1.555653  0  0.267062  0.632449  0  4.114164  0
C  C48  1  0.45692916  0.84562180  0.80916548  1  1.570839  0  0.271906  0.651694  0  4.094398  0
C  C49  1  0.54801493  0.15247504  0.19290591  1  1.580024  0  0.279792  0.669071  0  4.064345  0
C  C50  1  0.95762134  0.65444207  0.69078911  1  1.571445  0  0.271634  0.651832  0  4.092487  0
C  C51  1  0.04697773  0.34749897  0.30698860  1  1.582047  0  0.279606  0.670039  0  4.063676  0
C  C52  1  0.02966050  0.40933539  0.33943958  1  -0.066507  0  -0.017902  -0.028884  0  4.013783  0
C  C53  1  0.93432776  0.59423007  0.65667340  1  -0.057666  0  -0.017261  -0.026859  0  4.014982  0
C  C54  1  0.53042383  0.09062491  0.16049389  1  -0.061319  0  -0.017765  -0.027311  0  4.010382  0
C  C55  1  0.43371487  0.90581388  0.84331122  1  -0.058541  0  -0.016551  -0.025489  0  4.012762  0
C  C56  1  0.99050657  0.52108808  0.34424458  1  -0.014743  0  -0.084366  -0.117657  0  3.971705  0
C  C57  1  0.81881543  0.48748913  0.64685177  1  -0.09275  0  -0.087587  -0.126981  0  3.99308  0
C  C58  1  0.49196615  0.97889145  0.15571611  1  -0.018407  0  -0.084129  -0.117455  0  3.97255  0
C  C59  1  0.31717916  0.01246619  0.85327758  1  -0.038721  0  -0.088219  -0.127796  0  3.992962  0
C  C60  1  0.00633487  0.46429112  0.31398808  1  -0.065986  0  -0.088702  -0.109673  0  3.99076  0
C  C61  1  0.84233088  0.54321196  0.67804011  1  0.012069  0  -0.087039  -0.104477  0  4.014878  0
C  C62  1  0.50790544  0.03566175  0.18597492  1  -0.066681  0  -0.088593  -0.110756  0  3.989721  0
C  C63  1  0.34100951  0.95677631  0.82204474  1  0.011772  0  -0.086878  -0.10387  0  4.013197  0
C  C64  1  0.02376933  0.41165024  0.39388189  1  -0.007383  0  -0.10117  -0.203567  0  4.004542  0
C  C65  1  0.98610324  0.59020040  0.60381208  1  -0.002222  0  -0.094757  -0.189365  0  3.9883  0
C  C66  1  0.52357245  0.08833766  0.10605920  1  -0.00458  0  -0.101617  -0.204259  0  4.004199  0
C  C67  1  0.48595690  0.90986250  0.89612430  1  -0.021401  0  -0.094846  -0.189542  0  3.988686  0
C  C68  1  0.98415842  0.46863573  0.42567197  1  -0.028263  0  -0.010449  0.037931  0  3.969232  0
C  C69  1  0.93669716  0.53638324  0.56907996  1  -0.088709  0  -0.009203  0.035857  0  3.962955  0
C  C70  1  0.48422017  0.03134062  0.07429519  1  -0.031436  0  -0.010194  0.037369  0  3.97188  0
C  C71  1  0.43619976  0.96361045  0.93092591  1  -0.067576  0  -0.008813  0.036205  0  3.962736  0
C  C72  1  0.98065257  0.52493946  0.39988218  1  -0.021509  0  -0.005788  0.096982  0  4.04752  0
C  C73  1  0.86490709  0.48253861  0.59239661  1  0.072277  0  -0.007029  0.097867  0  4.04657  0
C  C74  1  0.48161594  0.97503754  0.10008117  1  -0.019727  0  -0.005623  0.097372  0  4.046798  0
C  C75  1  0.36367364  0.01742585  0.90769918  1  0.009094  0  -0.006595  0.097324  0  4.047908  0
C  C76  1  0.94631180  0.47312932  0.48173459  1  0.054047  0  -0.012104  -0.071837  0  3.952702  0
C  C77  1  0.95352625  0.53268124  0.51233542  1  -0.012461  0  -0.011218  -0.070518  0  3.948004  0
C  C78  1  0.44592096  0.02683851  0.01827296  1  0.052741  0  -0.012515  -0.073444  0  3.953835  0
C  C79  1  0.45353401  0.96730196  0.98766156  1  -0.011001  0  -0.010863  -0.069186  0  3.946096  0
C  C80  1  0.95233859  0.58783327  0.48421771  1  0.419582  0  0.082761  0.275904  0  4.070737  0
C  C81  1  0.87552415  0.42040200  0.50752330  1  0.464353  0  0.080889  0.276353  0  4.075753  0
C  C82  1  0.45325537  0.91214190  0.01576415  1  0.419527  0  0.08217  0.275589  0  4.071834  0
C  C83  1  0.37434371  0.07952216  0.99257810  1  0.463536  0  0.081296  0.277256  0  4.074378  0
C  C84  1  0.96007413  0.58345558  0.43024087  1  0.07972  0  -0.107989  -0.266846  0  3.980911  0
C  C85  1  0.83263678  0.42579815  0.56038158  1  -0.019077  0  -0.110692  -0.270502  0  3.988513  0
C  C86  1  0.46137441  0.91650626  0.06973297  1  0.080017  0  -0.108079  -0.266542  0  3.97971  0
C  C87  1  0.33104171  0.07411827  0.93975936  1  -0.026111  0  -0.110599  -0.269285  0  3.987414  0
C  C88  1  0.82031625  0.94324763  0.59168954  1  -0.015161  0  -0.070775  -0.113498  0  3.920078  0
C  C89  1  0.18853812  0.09514256  0.43567805  1  -0.064406  0  -0.067256  -0.105347  0  3.915512  0
C  C90  1  0.32031778  0.55673124  0.90836902  1  -0.012953  0  -0.07073  -0.113217  0  3.91905  0
C  C91  1  0.68872307  0.40486227  0.06431280  1  -0.06481  0  -0.067475  -0.105587  0  3.915786  0
C  C92  1  0.80975790  0.90274343  0.63077339  1  -0.00949  0  -0.068462  -0.064892  0  3.976065  0
C  C93  1  0.19895736  0.13296294  0.39468581  1  -0.006458  0  -0.070519  -0.074673  0  3.975211  0
C  C94  1  0.30977674  0.59725046  0.86929377  1  -0.010616  0  -0.068294  -0.064378  0  3.975155  0
C  C95  1  0.69894514  0.36702390  0.10529492  1  -0.00598  0  -0.07052  -0.075003  0  3.975054  0
C  C96  1  0.96193720  0.85882015  0.63595206  1  0.011268  0  -0.004601  -0.06906  0  3.933351  0
C  C97  1  0.04917900  0.13026937  0.35612683  1  0.007902  0  8e-05  -0.059463  0  3.921941  0
C  C98  1  0.46188173  0.64117821  0.86408235  1  0.011432  0  -0.004496  -0.068825  0  3.933136  0
C  C99  1  0.54913124  0.36977575  0.14390522  1  0.009566  0  -9e-06  -0.059364  0  3.921512  0
C  C100  1  0.12445077  0.85428922  0.60018748  1  -0.064387  0  -0.006865  0.013334  0  3.97482  0
C  C101  1  0.89094561  0.08655693  0.35760672  1  -0.010724  0  -0.009092  0.010167  0  3.974392  0
C  C102  1  0.62431900  0.64569026  0.89980260  1  -0.065563  0  -0.007235  0.01277  0  3.975598  0
C  C103  1  0.39095083  0.41354908  0.14248787  1  -0.009117  0  -0.008443  0.010705  0  3.974133  0
C  C104  1  0.13594725  0.89540214  0.56137837  1  0.022295  0  -0.066634  -0.139345  0  3.876794  0
C  C105  1  0.88071979  0.04868346  0.39885014  1  -0.045611  0  -0.065203  -0.134623  0  3.874484  0
C  C106  1  0.63583088  0.60457345  0.93860326  1  0.027109  0  -0.066499  -0.138768  0  3.877467  0
C  C107  1  0.38086582  0.45140447  0.10124598  1  0.01291  0  -0.065134  -0.134381  0  3.874515  0
C  C108  1  0.98491167  0.94048285  0.55668243  1  0.07261  0  0.006938  0.144912  0  4.113062  0
C  C109  1  0.02696880  0.05301776  0.43878238  1  0.144736  0  0.007829  0.143919  0  4.111209  0
C  C110  1  0.48490149  0.55947448  0.94331905  1  0.067102  0  0.0068  0.14437  0  4.113616  0
C  C111  1  0.52715263  0.44700491  0.06124915  1  0.08764  0  0.008007  0.144218  0  4.111252  0
C  C112  1  0.99805661  0.98112882  0.51635444  1  -0.109935  0  -0.03967  -0.100036  0  4.103961  0
C  C113  1  0.01270929  0.01474538  0.48077428  1  -0.232594  0  -0.037941  -0.100406  0  4.10207  0
C  C114  1  0.49808418  0.51884638  0.98366097  1  -0.111468  0  -0.039596  -0.100136  0  4.103462  0
C  C115  1  0.51287514  0.48524281  0.01924401  1  -0.228252  0  -0.037925  -0.100252  0  4.10189  0
C  C116  1  0.27630835  0.80301881  0.59879368  1  0.947858  0  0.104958  0.289653  0  3.966096  0
C  C117  1  0.74392005  0.07474436  0.31389828  1  0.968024  0  0.106506  0.284786  0  3.934987  0
C  C118  1  0.77600379  0.69698353  0.90113142  1  0.954042  0  0.105174  0.290273  0  3.966826  0
C  C119  1  0.24372062  0.42544428  0.18620918  1  0.956443  0  0.106206  0.284798  0  3.933711  0
O  O120  1  0.63167134  0.82304055  0.79978443  1  -1.255158  0  -0.236892  -0.592469  0  2.306084  0
O  O121  1  0.38218250  0.17863592  0.20661408  1  -1.260683  0  -0.229398  -0.590668  0  2.330083  0
O  O122  1  0.13245558  0.67673028  0.70044104  1  -1.255386  0  -0.23658  -0.591687  0  2.304955  0
O  O123  1  0.88102615  0.32188473  0.29272704  1  -1.263107  0  -0.229317  -0.589995  0  2.329599  0
O  O124  1  0.28916569  0.69300296  0.79986260  1  -1.257059  0  -0.231837  -0.581053  0  2.335217  0
O  O125  1  0.72107812  0.30096305  0.19517920  1  -1.255237  0  -0.2343  -0.585273  0  2.340718  0
O  O126  1  0.78904994  0.80736472  0.70040954  1  -1.256382  0  -0.23179  -0.581267  0  2.334978  0
O  O127  1  0.22192876  0.19835434  0.30433966  1  -1.259638  0  -0.234578  -0.585803  0  2.340972  0
O  O128  1  0.29194764  0.82126665  0.79246683  1  -1.259321  0  -0.232205  -0.588916  0  2.344404  0
O  O129  1  0.72160451  0.17439628  0.20461774  1  -1.259099  0  -0.23243  -0.592667  0  2.310313  0
O  O130  1  0.79253648  0.67907528  0.70721208  1  -1.258946  0  -0.232157  -0.589355  0  2.343359  0
O  O131  1  0.22048781  0.32505088  0.29583303  1  -1.259769  0  -0.232369  -0.593335  0  2.308063  0
O  O132  1  0.12921799  0.80112745  0.69580431  1  -1.242645  0  -0.22886  -0.595081  0  2.388661  0
O  O133  1  0.88103377  0.19430482  0.30070837  1  -1.245447  0  -0.234274  -0.595745  0  2.370634  0
O  O134  1  0.62954457  0.69854997  0.80402932  1  -1.245558  0  -0.229387  -0.595009  0  2.387149  0
O  O135  1  0.38046420  0.30624638  0.19965122  1  -1.247645  0  -0.23358  -0.595492  0  2.373507  0
O  O136  1  0.46577657  0.74451457  0.71839815  1  -1.419831  0  -0.448361  -0.997439  0  2.211732  0
O  O137  1  0.55372845  0.25760947  0.28206729  1  -1.44922  0  -0.447903  -0.986724  0  2.190963  0
O  O138  1  0.96566175  0.75551425  0.78163258  1  -1.414318  0  -0.448503  -0.997463  0  2.212336  0
O  O139  1  0.05390156  0.24233105  0.21786959  1  -1.449428  0  -0.448054  -0.98723  0  2.191173  0
O  O140  1  0.92825338  0.64698845  0.50899399  1  -1.136635  0  -0.36181  -0.440649  0  2.267073  0
O  O141  1  0.83170721  0.36364461  0.48051012  1  -1.107758  0  -0.364628  -0.443331  0  2.265153  0
O  O142  1  0.42977878  0.85296950  0.99100066  1  -1.137822  0  -0.361657  -0.441117  0  2.267843  0
O  O143  1  0.33022409  0.13624378  0.01964216  1  -1.104526  0  -0.365195  -0.443913  0  2.265335  0
O  O144  1  0.44980604  0.80824897  0.58391754  1  -1.084981  0  -0.267107  -0.363574  0  2.117076  0
O  O145  1  0.58159384  0.04878984  0.31863488  1  -1.083802  0  -0.261353  -0.360661  0  2.122368  0
O  O146  1  0.94944867  0.69181103  0.91600453  1  -1.08785  0  -0.26749  -0.364242  0  2.11844  0
O  O147  1  0.08100433  0.45117648  0.18140046  1  -1.082787  0  -0.261249  -0.360553  0  2.121085  0
