# generated using pymatgen
data_SnH24C20Br2(NO2)2
_symmetry_space_group_name_H-M   'P 1'
_cell_length_a   8.01917050
_cell_length_b   9.91118581
_cell_length_c   14.92772479
_cell_angle_alpha   76.49969819
_cell_angle_beta   79.90931740
_cell_angle_gamma   81.06802106
_symmetry_Int_Tables_number   1
_chemical_formula_structural   SnH24C20Br2(NO2)2
_chemical_formula_sum   'Sn2 H48 C40 Br4 N4 O8'
_cell_volume   1127.68636930
_cell_formula_units_Z   2
loop_
 _symmetry_equiv_pos_site_id
 _symmetry_equiv_pos_as_xyz
  1  'x, y, z'
loop_
 _atom_site_type_symbol
 _atom_site_label
 _atom_site_symmetry_multiplicity
 _atom_site_fract_x
 _atom_site_fract_y
 _atom_site_fract_z
 _atom_site_occupancy
 _atom_site_hle17_bader_spin_density
 _atom_site_hle17_ddec_charge
 _atom_site_hle17_ddec_spin_density
 _atom_site_hle17_ddec_sum_bond_order
 _atom_site_hle17_magmom
 _atom_site_hse06_10hf_bader_spin_density
 _atom_site_hse06_10hf_ddec_charge
 _atom_site_hse06_10hf_ddec_spin_density
 _atom_site_hse06_10hf_ddec_sum_bond_order
 _atom_site_hse06_10hf_magmom
 _atom_site_hse06_bader_spin_density
 _atom_site_hse06_ddec_charge
 _atom_site_hse06_ddec_spin_density
 _atom_site_hse06_ddec_sum_bond_order
 _atom_site_hse06_magmom
 _atom_site_pbe_bader_spin_density
 _atom_site_pbe_cm5_charge
 _atom_site_pbe_ddec_charge
 _atom_site_pbe_ddec_spin_density
 _atom_site_pbe_ddec_sum_bond_order
 _atom_site_pbe_magmom
Sn  Sn0  1  0.64875723  0.11283716  0.71786852  1  0  1.340262  0  2.766136  0  0  1.1779  0  3.249037  0  0  1.230541  0  3.2268  0  0  0.595591  1.141572  0  3.263645  0
Sn  Sn1  1  0.35123493  0.88716743  0.28212832  1  0  1.340308  0  2.766046  0  0  1.177968  0  3.248933  0  0  1.230612  0  3.226695  0  0  0.595611  1.141645  0  3.263538  0
H  H2  1  0.05904851  0.12130582  0.71321081  1  0  0.113987  0  0.93501  0  0  0.120395  0  1.000335  0  0  0.124104  0  0.99618  0  0  0.131091  0.117579  0  1.003211  0
H  H3  1  0.94094730  0.87869149  0.28678953  1  0  0.114036  0  0.93501  0  0  0.120431  0  1.000326  0  0  0.12414  0  0.99617  0  0  0.131115  0.117615  0  1.003203  0
H  H4  1  0.21716106  0.53290767  0.61489466  1  0  0.12507  0  0.943049  0  0  0.135469  0  1.004254  0  0  0.13914  0  1.000616  0  0  0.116927  0.132674  0  1.00705  0
H  H5  1  0.78284028  0.46708658  0.38510834  1  0  0.125026  0  0.943114  0  0  0.135442  0  1.004309  0  0  0.139112  0  1.000674  0  0  0.116934  0.132647  0  1.007101  0
H  H6  1  0.69227344  0.45439976  0.63647455  1  0  0.115794  0  0.930644  0  0  0.123293  0  0.992728  0  0  0.127225  0  0.988429  0  0  0.127436  0.120562  0  0.995796  0
H  H7  1  0.30772862  0.54560600  0.36352456  1  0  0.11583  0  0.930629  0  0  0.123328  0  0.992699  0  0  0.127261  0  0.9884  0  0  0.127436  0.120604  0  0.995769  0
H  H8  1  0.59203279  0.63118491  0.82988218  1  0  0.087891  0  0.939066  0  0  0.093152  0  1.008404  0  0  0.096698  0  1.004669  0  0  0.114687  0.090602  0  1.011101  0
H  H9  1  0.40796578  0.36881874  0.17011959  1  0  0.0879  0  0.939088  0  0  0.093158  0  1.008423  0  0  0.096707  0  1.004687  0  0  0.114683  0.090608  0  1.011119  0
H  H10  1  0.09833735  0.72813916  0.82758273  1  0  0.12435  0  0.947999  0  0  0.133867  0  1.011139  0  0  0.136946  0  1.008959  0  0  0.117055  0.131508  0  1.012926  0
H  H11  1  0.90166670  0.27186240  0.17241351  1  0  0.124271  0  0.94795  0  0  0.133781  0  1.011123  0  0  0.136862  0  1.008942  0  0  0.11699  0.131424  0  1.012909  0
H  H12  1  0.96193002  0.30638375  0.91568279  1  0  0.083899  0  0.938811  0  0  0.091991  0  1.004827  0  0  0.095085  0  1.002002  0  0  0.112464  0.089683  0  1.006915  0
H  H13  1  0.03806938  0.69361468  0.08432039  1  0  0.083897  0  0.938835  0  0  0.09199  0  1.004847  0  0  0.095082  0  1.002022  0  0  0.112456  0.089655  0  1.006963  0
H  H14  1  0.86693122  0.06269916  0.56950260  1  0  0.109698  0  0.981123  0  0  0.121145  0  1.049776  0  0  0.12408  0  1.050301  0  0  0.083009  0.119117  0  1.049161  0
H  H15  1  0.13306594  0.93730551  0.43049780  1  0  0.109689  0  0.98108  0  0  0.121144  0  1.04973  0  0  0.124076  0  1.050257  0  0  0.083019  0.119111  0  1.049118  0
H  H16  1  0.68837838  0.96765129  0.58765173  1  0  0.111207  0  0.985065  0  0  0.127803  0  1.044599  0  0  0.130376  0  1.045703  0  0  0.084262  0.125958  0  1.043255  0
H  H17  1  0.31162312  0.03235026  0.41234608  1  0  0.111146  0  0.985137  0  0  0.127766  0  1.044646  0  0  0.130342  0  1.045748  0  0  0.08424  0.125922  0  1.043302  0
H  H18  1  0.68571528  0.28086962  0.49641176  1  0  0.049827  0  0.945123  0  0  0.069335  0  1.007858  0  0  0.06937  0  1.008599  0  0  0.079674  0.069053  0  1.007591  0
H  H19  1  0.31428240  0.71913189  0.50358774  1  0  0.049811  0  0.945154  0  0  0.069325  0  1.007881  0  0  0.06936  0  1.008623  0  0  0.079666  0.069042  0  1.007612  0
H  H20  1  0.51101784  0.18560305  0.51506726  1  0  0.052977  0  0.945825  0  0  0.070954  0  1.009859  0  0  0.071421  0  1.010386  0  0  0.081763  0.070354  0  1.009846  0
H  H21  1  0.48898096  0.81439952  0.48493063  1  0  0.052973  0  0.945774  0  0  0.07095  0  1.009816  0  0  0.071417  0  1.010341  0  0  0.081748  0.070349  0  1.009806  0
H  H22  1  0.84944585  0.12549279  0.39048787  1  0  0.049878  0  0.955511  0  0  0.064637  0  1.025326  0  0  0.065929  0  1.025098  0  0  0.073431  0.063578  0  1.025526  0
H  H23  1  0.15055451  0.87450772  0.60951289  1  0  0.049859  0  0.955472  0  0  0.064611  0  1.02529  0  0  0.065902  0  1.025062  0  0  0.073409  0.063549  0  1.025491  0
H  H24  1  0.67579363  0.02765283  0.41217804  1  0  0.061158  0  0.933578  0  0  0.081151  0  0.99092  0  0  0.081917  0  0.991614  0  0  0.082114  0.08073  0  0.990155  0
H  H25  1  0.32420766  0.97234978  0.58782164  1  0  0.061292  0  0.933492  0  0  0.081237  0  0.990866  0  0  0.082001  0  0.991564  0  0  0.082179  0.080815  0  0.990103  0
H  H26  1  0.48827957  0.24542844  0.34428314  1  0  0.077279  0  0.987886  0  0  0.092327  0  1.064672  0  0  0.093896  0  1.064535  0  0  0.07023  0.090956  0  1.065092  0
H  H27  1  0.51172315  0.75457313  0.65571657  1  0  0.077272  0  0.987859  0  0  0.092322  0  1.064645  0  0  0.09389  0  1.064507  0  0  0.070227  0.090949  0  1.065067  0
H  H28  1  0.66168066  0.19792903  0.26286993  1  0  0.096714  0  0.971218  0  0  0.118524  0  1.032608  0  0  0.120094  0  1.031763  0  0  0.083553  0.11711  0  1.033713  0
H  H29  1  0.33832098  0.80207148  0.73712938  1  0  0.096725  0  0.971237  0  0  0.118524  0  1.032645  0  0  0.120095  0  1.031799  0  0  0.083556  0.117109  0  1.033748  0
H  H30  1  0.66737562  0.33979027  0.31626456  1  0  0.077317  0  0.976941  0  0  0.096375  0  1.046293  0  0  0.097174  0  1.046793  0  0  0.072345  0.095555  0  1.046311  0
H  H31  1  0.33262712  0.66021130  0.68373448  1  0  0.077329  0  0.976933  0  0  0.096387  0  1.046279  0  0  0.097186  0  1.046779  0  0  0.072352  0.095566  0  1.046299  0
H  H32  1  0.59992195  0.28131180  0.83748403  1  0  0.113737  0  1.009567  0  0  0.12052  0  1.085434  0  0  0.123708  0  1.085592  0  0  0.081142  0.117634  0  1.086303  0
H  H33  1  0.40007151  0.71868444  0.16251602  1  0  0.113758  0  1.009424  0  0  0.120538  0  1.085315  0  0  0.123726  0  1.085471  0  0  0.08113  0.117649  0  1.086191  0
H  H34  1  0.46731825  0.14385735  0.87838783  1  0  0.114347  0  0.981804  0  0  0.128497  0  1.044778  0  0  0.130957  0  1.046164  0  0  0.087737  0.126813  0  1.043541  0
H  H35  1  0.53268023  0.85613896  0.12161443  1  0  0.114375  0  0.981824  0  0  0.128518  0  1.044802  0  0  0.13098  0  1.046186  0  0  0.087736  0.126834  0  1.043566  0
H  H36  1  0.72451614  0.97966363  0.93203658  1  0  0.048721  0  0.947314  0  0  0.067945  0  1.010311  0  0  0.068295  0  1.010704  0  0  0.082609  0.067794  0  1.009772  0
H  H37  1  0.27548586  0.02033478  0.06796169  1  0  0.048717  0  0.947336  0  0  0.067955  0  1.010348  0  0  0.068302  0  1.010741  0  0  0.082604  0.0678  0  1.009803  0
H  H38  1  0.85190932  0.11642560  0.89125750  1  0  0.050907  0  0.943843  0  0  0.072173  0  1.005425  0  0  0.071725  0  1.007182  0  0  0.084277  0.07246  0  1.004262  0
H  H39  1  0.14808986  0.88357486  0.10873802  1  0  0.050932  0  0.943847  0  0  0.072233  0  1.005408  0  0  0.071788  0  1.007158  0  0  0.08431  0.072518  0  1.004239  0
H  H40  1  0.66256597  0.25164262  0.00332138  1  0  0.056313  0  0.950894  0  0  0.071046  0  1.018407  0  0  0.072195  0  1.018094  0  0  0.079078  0.070168  0  1.018554  0
H  H41  1  0.33743915  0.74836001  0.99667594  1  0  0.056319  0  0.950874  0  0  0.07107  0  1.018376  0  0  0.072221  0  1.018063  0  0  0.079077  0.070192  0  1.018524  0
H  H42  1  0.54006746  0.11128880  0.04396698  1  0  0.06044  0  0.945343  0  0  0.080795  0  1.003813  0  0  0.081349  0  1.004896  0  0  0.083261  0.080212  0  1.003246  0
H  H43  1  0.45993653  0.88871278  0.95603261  1  0  0.060468  0  0.945354  0  0  0.080776  0  1.003891  0  0  0.08133  0  1.004979  0  0  0.083267  0.080195  0  1.003327  0
H  H44  1  0.80553677  0.95173470  0.09263972  1  0  0.079073  0  0.960956  0  0  0.098285  0  1.030808  0  0  0.09987  0  1.030065  0  0  0.076148  0.097162  0  1.031324  0
H  H45  1  0.19446630  0.04826478  0.90735962  1  0  0.079108  0  0.960932  0  0  0.098312  0  1.030793  0  0  0.099898  0  1.030048  0  0  0.076159  0.097192  0  1.031305  0
H  H46  1  0.74836918  0.08978348  0.15232351  1  0  0.100632  0  0.968559  0  0  0.121317  0  1.031411  0  0  0.123132  0  1.030376  0  0  0.084792  0.119806  0  1.032665  0
H  H47  1  0.25163486  0.91021809  0.84767341  1  0  0.100644  0  0.968563  0  0  0.121356  0  1.031373  0  0  0.123171  0  1.030335  0  0  0.084805  0.119829  0  1.032643  0
H  H48  1  0.92133178  0.09821615  0.05912486  1  0  0.08156  0  0.96453  0  0  0.10311  0  1.030164  0  0  0.103722  0  1.031207  0  0  0.077895  0.102534  0  1.029564  0
H  H49  1  0.07867475  0.90178546  0.94087450  1  0  0.081562  0  0.964603  0  0  0.103139  0  1.030197  0  0  0.103745  0  1.031245  0  0  0.077898  0.102562  0  1.029595  0
C  C50  1  0.33915555  0.26114138  0.67851299  1  0  0.616548  0  3.929375  0  0  0.564265  0  4.222662  0  0  0.598903  0  4.216133  0  0  0.214328  0.541063  0  4.226343  0
C  C51  1  0.66084203  0.73885282  0.32148768  1  0  0.616663  0  3.929398  0  0  0.564365  0  4.222699  0  0  0.59901  0  4.21617  0  0  0.214436  0.541163  0  4.226377  0
C  C52  1  0.03054102  0.23339562  0.68729632  1  0  0.113257  0  3.649294  0  0  0.063823  0  3.909127  0  0  0.074344  0  3.922963  0  0  0.061087  0.057589  0  3.899549  0
C  C53  1  0.96945333  0.76660274  0.31270600  1  0  0.113194  0  3.649401  0  0  0.063815  0  3.909163  0  0  0.074337  0  3.922998  0  0  0.061092  0.057584  0  3.899579  0
C  C54  1  0.15945095  0.32077742  0.66617912  1  0  -0.089534  0  3.76038  0  0  -0.065037  0  4.005394  0  0  -0.077106  0  4.027308  0  0  -0.007825  -0.057905  0  3.991016  0
C  C55  1  0.84054737  0.67921993  0.33382232  1  0  -0.089459  0  3.760298  0  0  -0.064946  0  4.005271  0  0  -0.077012  0  4.027178  0  0  -0.007794  -0.057815  0  3.990893  0
C  C56  1  0.11796131  0.46361294  0.63212867  1  0  -0.06713  0  3.696185  0  0  -0.110432  0  3.950741  0  0  -0.105206  0  3.967398  0  0  -0.065535  -0.113158  0  3.939759  0
C  C57  1  0.88203987  0.53638235  0.36787351  1  0  -0.0671  0  3.69602  0  0  -0.110423  0  3.950574  0  0  -0.105198  0  3.967232  0  0  -0.065549  -0.113143  0  3.939587  0
C  C58  1  0.94916289  0.51240425  0.62059013  1  0  0.035787  0  3.72346  0  0  0.053766  0  4.001165  0  0  0.050957  0  4.02416  0  0  -0.011202  0.054758  0  3.986324  0
C  C59  1  0.05083854  0.48759733  0.37941171  1  0  0.035758  0  3.723349  0  0  0.053723  0  4.001068  0  0  0.050915  0  4.024064  0  0  -0.011221  0.054717  0  3.986228  0
C  C60  1  0.82602078  0.41985067  0.64369661  1  0  0.08432  0  3.670598  0  0  0.041113  0  3.926729  0  0  0.049519  0  3.941791  0  0  0.053436  0.035337  0  3.917073  0
C  C61  1  0.17398118  0.58014776  0.35630366  1  0  0.084317  0  3.670354  0  0  0.041136  0  3.926475  0  0  0.04954  0  3.941537  0  0  0.053402  0.035346  0  3.916833  0
C  C62  1  0.78360770  0.84728976  0.78713138  1  0  0.614438  0  3.92594  0  0  0.559108  0  4.222771  0  0  0.594014  0  4.21588  0  0  0.213136  0.535749  0  4.226207  0
C  C63  1  0.21638908  0.15270965  0.21286653  1  0  0.614454  0  3.925817  0  0  0.559126  0  4.222654  0  0  0.594029  0  4.215761  0  0  0.213145  0.535766  0  4.226086  0
C  C64  1  0.72392122  0.59789957  0.84204820  1  0  0.101601  0  3.707149  0  0  0.058401  0  3.977257  0  0  0.067212  0  3.990843  0  0  0.045118  0.052532  0  3.968278  0
C  C65  1  0.27607691  0.40209884  0.15795510  1  0  0.101498  0  3.707308  0  0  0.058306  0  3.977414  0  0  0.067113  0  3.991006  0  0  0.045097  0.052439  0  3.968433  0
C  C66  1  0.83886313  0.69719242  0.82468641  1  0  -0.103823  0  3.7821  0  0  -0.079848  0  4.026109  0  0  -0.091525  0  4.048722  0  0  -0.015564  -0.072718  0  4.010835  0
C  C67  1  0.16113600  0.30280806  0.17531178  1  0  -0.103725  0  3.782164  0  0  -0.079766  0  4.02619  0  0  -0.091441  0  4.048802  0  0  -0.015599  -0.072636  0  4.010917  0
C  C68  1  0.00699267  0.65267696  0.84115811  1  0  -0.070684  0  3.696799  0  0  -0.109077  0  3.943542  0  0  -0.105336  0  3.96221  0  0  -0.069967  -0.110711  0  3.930564  0
C  C69  1  0.99300994  0.34732563  0.15883810  1  0  -0.07064  0  3.696779  0  0  -0.109038  0  3.943542  0  0  -0.105299  0  3.962213  0  0  -0.06991  -0.110669  0  3.930561  0
C  C70  1  0.05087121  0.51067483  0.87459436  1  0  0.025997  0  3.745528  0  0  0.044614  0  4.018785  0  0  0.042024  0  4.042576  0  0  -0.01868  0.045768  0  4.002678  0
C  C71  1  0.94912679  0.48932461  0.12540611  1  0  0.026034  0  3.745654  0  0  0.044658  0  4.018909  0  0  0.042068  0  4.0427  0  0  -0.018646  0.045814  0  4.002794  0
C  C72  1  0.92866620  0.41819708  0.88949668  1  0  0.063947  0  3.738437  0  0  0.026727  0  4.0045  0  0  0.033357  0  4.02061  0  0  0.036115  0.022857  0  3.993401  0
C  C73  1  0.07133037  0.58180339  0.11050376  1  0  0.063906  0  3.738453  0  0  0.026683  0  4.004494  0  0  0.033318  0  4.020594  0  0  0.036101  0.022836  0  3.993403  0
C  C74  1  0.72678561  0.07209165  0.57994640  1  0  -0.465304  0  3.609782  0  0  -0.485805  0  3.879437  0  0  -0.499595  0  3.897298  0  0  -0.234491  -0.477235  0  3.867163  0
C  C75  1  0.27321332  0.92790990  0.42005433  1  0  -0.465249  0  3.609707  0  0  -0.485773  0  3.879327  0  0  -0.499558  0  3.897191  0  0  -0.234453  -0.477194  0  3.867055  0
C  C76  1  0.65142076  0.17584512  0.50080917  1  0  -0.056878  0  3.764202  0  0  -0.094792  0  4.021642  0  0  -0.093958  0  4.039772  0  0  -0.17406  -0.094987  0  4.009767  0
C  C77  1  0.34857835  0.82415537  0.49919104  1  0  -0.056839  0  3.764186  0  0  -0.094756  0  4.021626  0  0  -0.093924  0  4.039765  0  0  -0.17406  -0.09495  0  4.009751  0
C  C78  1  0.70929404  0.13324293  0.40691632  1  0  -0.066295  0  3.689969  0  0  -0.094956  0  3.942817  0  0  -0.096331  0  3.957811  0  0  -0.175652  -0.09395  0  3.932314  0
C  C79  1  0.29070616  0.86675861  0.59308362  1  0  -0.066436  0  3.689958  0  0  -0.095053  0  3.942789  0  0  -0.096427  0  3.957781  0  0  -0.175688  -0.094044  0  3.932279  0
C  C80  1  0.62815757  0.23470801  0.32826931  1  0  -0.282165  0  3.718719  0  0  -0.35556  0  3.964605  0  0  -0.357669  0  3.975489  0  0  -0.25351  -0.353756  0  3.957546  0
C  C81  1  0.37184390  0.76529354  0.67172984  1  0  -0.282177  0  3.718726  0  0  -0.35557  0  3.964591  0  0  -0.357679  0  3.975475  0  0  -0.253526  -0.353764  0  3.957537  0
C  C82  1  0.59857293  0.16769177  0.85189103  1  0  -0.468758  0  3.598759  0  0  -0.489889  0  3.86802  0  0  -0.503911  0  3.886169  0  0  -0.235896  -0.479367  0  3.85572  0
C  C83  1  0.40142561  0.83230451  0.14810788  1  0  -0.468815  0  3.598691  0  0  -0.489922  0  3.867959  0  0  -0.503942  0  3.886098  0  0  -0.235853  -0.479402  0  3.855657  0
C  C84  1  0.72057717  0.09405167  0.92029646  1  0  -0.049008  0  3.743018  0  0  -0.087698  0  4.000944  0  0  -0.086912  0  4.019341  0  0  -0.170817  -0.088456  0  3.988399  0
C  C85  1  0.27942621  0.90594572  0.07970452  1  0  -0.049068  0  3.74302  0  0  -0.087805  0  4.001007  0  0  -0.087029  0  4.01944  0  0  -0.170848  -0.088536  0  3.98842  0
C  C86  1  0.66982381  0.13714379  0.01441081  1  0  -0.068461  0  3.685624  0  0  -0.097444  0  3.938498  0  0  -0.098795  0  3.953645  0  0  -0.174163  -0.096507  0  3.928301  0
C  C87  1  0.33018023  0.86285778  0.98558611  1  0  -0.068386  0  3.685574  0  0  -0.097395  0  3.938563  0  0  -0.098754  0  3.953717  0  0  -0.174186  -0.096468  0  3.928363  0
C  C88  1  0.79285759  0.06624208  0.08324358  1  0  -0.281225  0  3.721676  0  0  -0.35716  0  3.971164  0  0  -0.359222  0  3.982097  0  0  -0.250232  -0.355455  0  3.963877  0
C  C89  1  0.20714658  0.93375846  0.91675550  1  0  -0.281346  0  3.721769  0  0  -0.357291  0  3.971256  0  0  -0.359344  0  3.982189  0  0  -0.250257  -0.355576  0  3.963982  0
Br  Br90  1  0.88456772  0.70468034  0.57257706  1  0  -0.008298  0  1.318061  0  0  0.007135  0  1.575512  0  0  0.000896  0  1.573035  0  0  0.102561  0.013498  0  1.576084  0
Br  Br91  1  0.11543855  0.29532236  0.42742819  1  0  -0.008297  0  1.318067  0  0  0.007133  0  1.575527  0  0  0.000895  0  1.573052  0  0  0.10258  0.013499  0  1.5761  0
Br  Br92  1  0.27600114  0.44013306  0.89921231  1  0  -0.018094  0  1.283688  0  0  -0.003786  0  1.530449  0  0  -0.008701  0  1.526514  0  0  0.080169  -0.0002  0  1.533011  0
Br  Br93  1  0.72400048  0.55986746  0.10078833  1  0  -0.018078  0  1.283737  0  0  -0.003769  0  1.530496  0  0  -0.008681  0  1.526558  0  0  0.080179  -0.00018  0  1.533056  0
N  N94  1  0.86820815  0.28264984  0.67622230  1  0  -0.295694  0  3.227464  0  0  -0.2195  0  3.484855  0  0  -0.238278  0  3.505132  0  0  -0.28113  -0.208053  0  3.470865  0
N  N95  1  0.13178899  0.71735484  0.32377944  1  0  -0.295733  0  3.227293  0  0  -0.219587  0  3.484701  0  0  -0.238364  0  3.504974  0  0  -0.281137  -0.20814  0  3.470717  0
N  N96  1  0.76790173  0.46109713  0.87299607  1  0  -0.280699  0  3.100366  0  0  -0.240554  0  3.378217  0  0  -0.252573  0  3.39329  0  0  -0.310344  -0.232056  0  3.36775  0
N  N97  1  0.23209754  0.53890232  0.12700429  1  0  -0.280623  0  3.100388  0  0  -0.240474  0  3.378218  0  0  -0.252494  0  3.393293  0  0  -0.310284  -0.231974  0  3.367738  0
O  O98  1  0.36754388  0.12790755  0.70742483  1  0  -0.581849  0  1.983957  0  0  -0.512097  0  2.211836  0  0  -0.539569  0  2.206764  0  0  -0.271332  -0.493265  0  2.214801  0
O  O99  1  0.63245227  0.87208767  0.29257580  1  0  -0.581906  0  1.983861  0  0  -0.512195  0  2.211812  0  0  -0.539689  0  2.206756  0  0  -0.27142  -0.493361  0  2.214773  0
O  O100  1  0.45581065  0.33992755  0.66069863  1  0  -0.602274  0  1.930653  0  0  -0.547707  0  2.154032  0  0  -0.57278  0  2.146383  0  0  -0.291437  -0.530198  0  2.158601  0
O  O101  1  0.54418835  0.66006561  0.33930274  1  0  -0.602384  0  1.930716  0  0  -0.547817  0  2.154123  0  0  -0.572889  0  2.14647  0  0  -0.291505  -0.530309  0  2.158695  0
O  O102  1  0.62409536  0.88431257  0.78153277  1  0  -0.58376  0  1.990076  0  0  -0.512928  0  2.221244  0  0  -0.540197  0  2.216387  0  0  -0.272094  -0.493974  0  2.22414  0
O  O103  1  0.37590234  0.11568894  0.21846539  1  0  -0.583769  0  1.989966  0  0  -0.512955  0  2.221159  0  0  -0.540221  0  2.2163  0  0  -0.272058  -0.494  0  2.224058  0
O  O104  1  0.89160170  0.93504543  0.76078248  1  0  -0.598999  0  1.945322  0  0  -0.536669  0  2.172895  0  0  -0.562487  0  2.166647  0  0  -0.284602  -0.518355  0  2.175955  0
O  O105  1  0.10839360  0.06495504  0.23921874  1  0  -0.599044  0  1.945304  0  0  -0.536695  0  2.172851  0  0  -0.56251  0  2.166601  0  0  -0.284633  -0.518402  0  2.17596  0
