# generated using pymatgen
data_Zr6H19C50N(O17F5)2
_symmetry_space_group_name_H-M   'P 1'
_cell_length_a   14.78372823
_cell_length_b   14.79234598
_cell_length_c   14.80920030
_cell_angle_alpha   60.16112488
_cell_angle_beta   59.90141895
_cell_angle_gamma   60.08527914
_symmetry_Int_Tables_number   1
_chemical_formula_structural   Zr6H19C50N(O17F5)2
_chemical_formula_sum   'Zr6 H19 C50 N1 O34 F10'
_cell_volume   2292.54404902
_cell_formula_units_Z   1
loop_
 _symmetry_equiv_pos_site_id
 _symmetry_equiv_pos_as_xyz
  1  'x, y, z'
loop_
 _atom_site_type_symbol
 _atom_site_label
 _atom_site_symmetry_multiplicity
 _atom_site_fract_x
 _atom_site_fract_y
 _atom_site_fract_z
 _atom_site_occupancy
 _atom_site_pbe_bader_charge
 _atom_site_pbe_bader_spin_density
 _atom_site_pbe_cm5_charge
 _atom_site_pbe_ddec_charge
 _atom_site_pbe_ddec_spin_density
 _atom_site_pbe_ddec_sum_bond_order
 _atom_site_pbe_magmom
Zr  Zr0  1  0.87791294  0.88369418  0.61649357  1  2.637555  0  1.63308  2.375603  0  2.758927  0
Zr  Zr1  1  0.12093668  0.11913417  0.38148041  1  2.637077  0  1.635944  2.37999  0  2.747931  0
Zr  Zr2  1  0.11727945  0.88061498  0.61945996  1  2.632614  0  1.628466  2.374795  0  2.75298  0
Zr  Zr3  1  0.88166969  0.12214447  0.37826490  1  2.636118  0  1.627633  2.374388  0  2.748219  0
Zr  Zr4  1  0.11914607  0.88186659  0.37911984  1  2.637328  0  1.633597  2.379493  0  2.750866  0
Zr  Zr5  1  0.87943891  0.12079030  0.61915242  1  2.63905  0  1.630106  2.378399  0  2.742906  0
H  H6  1  0.09112677  0.71979660  0.59194650  1  0.618702  0  0.332111  0.423529  0  0.859708  0
H  H7  1  0.09715862  0.09486112  0.21693972  1  0.606145  0  0.332544  0.425936  0  0.853693  0
H  H8  1  0.09365739  0.09240171  0.59596387  1  0.604712  0  0.332334  0.424709  0  0.854613  0
H  H9  1  0.71643311  0.09777701  0.59138428  1  0.602832  0  0.332462  0.426296  0  0.853843  0
H  H10  1  0.15896655  0.56702579  0.38644288  1  0.118708  0  0.124402  0.155819  0  0.970869  0
H  H11  1  0.82735635  0.44780465  0.59841295  1  0.132906  0  0.121889  0.154258  0  0.979589  0
H  H12  1  0.62133418  0.10764382  0.94140838  1  0.137445  0  0.123582  0.155748  0  0.975461  0
H  H13  1  0.40695858  0.86287711  0.08654416  1  0.126234  0  0.123996  0.156484  0  0.973402  0
H  H14  1  0.83796199  0.12122148  0.10944349  1  0.154936  0  0.122331  0.153234  0  0.980048  0
H  H15  1  0.13765712  0.85568348  0.91311134  1  0.129465  0  0.124192  0.155294  0  0.971742  0
H  H16  1  0.59271785  0.41460298  0.35413785  1  0.12055  0  0.121445  0.149479  0  0.984756  0
H  H17  1  0.43126944  0.61285148  0.61771575  1  0.120057  0  0.124314  0.156746  0  0.97335  0
H  H18  1  0.13308602  0.59825554  0.91999059  1  0.136206  0  0.121239  0.140752  0  0.975304  0
H  H19  1  0.73428639  0.63100735  0.96754779  1  0.082548  0  0.101726  0.118603  0  0.985392  0
H  H20  1  0.82234837  0.54513676  0.88328915  1  0.076261  0  0.103764  0.117611  0  0.972637  0
H  H21  1  0.82587011  0.37563897  0.05426282  1  0.052923  0  0.102909  0.11559  0  0.976249  0
H  H22  1  0.73846079  0.46142151  0.13884186  1  0.052336  0  0.101557  0.114349  0  0.9819  0
H  H23  1  0.60566231  0.84756682  0.62397462  1  0.139927  0  0.12382  0.156901  0  0.975789  0
H  H24  1  0.41910711  0.12974098  0.34765138  1  0.150054  0  0.126427  0.1611  0  0.971088  0
C  C25  1  0.99020617  0.70484827  0.49431825  1  1.581258  0  0.237908  0.657609  0  4.099315  0
C  C26  1  0.31212306  0.99428021  0.20565807  1  1.588793  0  0.239068  0.656805  0  4.09646  0
C  C27  1  0.99992993  0.30557039  0.49622183  1  1.581115  0  0.239598  0.658437  0  4.093665  0
C  C28  1  0.70099199  0.99341696  0.80749007  1  1.571434  0  0.238666  0.657555  0  4.096973  0
C  C29  1  0.99190663  0.70369050  0.80577903  1  1.565056  0  0.237325  0.64309  0  4.114267  0
C  C30  1  0.70265707  0.00098253  0.48656463  1  1.583439  0  0.23888  0.657506  0  4.09295  0
C  C31  1  0.99635171  0.30902928  0.20151522  1  1.578097  0  0.237579  0.649982  0  4.114247  0
C  C32  1  0.30900451  0.98901668  0.49859138  1  1.583004  0  0.238905  0.657726  0  4.096164  0
C  C33  1  0.30751558  0.70271026  0.49121708  1  1.577336  0  0.237735  0.656249  0  4.099019  0
C  C34  1  0.98864475  0.99515485  0.81059653  1  1.590484  0  0.237478  0.655247  0  4.099836  0
C  C35  1  0.70472091  0.31274698  0.49339390  1  1.571453  0  0.238226  0.657123  0  4.095317  0
C  C36  1  0.99792001  0.99436342  0.19996837  1  1.58303  0  0.239108  0.658012  0  4.096016  0
C  C37  1  0.99862066  0.40867845  0.49312075  1  0.084955  0  -0.013809  -0.115077  0  3.953401  0
C  C38  1  0.98838052  0.60535199  0.49300863  1  0.029055  0  -0.015168  -0.116319  0  3.961949  0
C  C39  1  0.09118422  0.44440958  0.43416245  1  0.41654  0  0.109881  0.277507  0  4.036683  0
C  C40  1  0.89585073  0.56957432  0.55182522  1  0.39988  0  0.104302  0.265505  0  4.048303  0
C  C41  1  0.08617384  0.54101100  0.43310691  1  0.12444  0  -0.084634  -0.199645  0  3.961933  0
C  C42  1  0.90031041  0.47362152  0.55212131  1  0.079412  0  -0.086435  -0.202446  0  3.969495  0
C  C43  1  0.41891552  0.98802160  0.11072000  1  0.014224  0  -0.014391  -0.115415  0  3.952197  0
C  C44  1  0.60722516  0.98503159  0.91509085  1  0.040839  0  -0.015142  -0.119019  0  3.957713  0
C  C45  1  0.48343687  0.05380601  0.06958840  1  0.475981  0  0.109781  0.273759  0  4.035032  0
C  C46  1  0.54671743  0.91424550  0.96033624  1  0.455604  0  0.104294  0.266562  0  4.046649  0
C  C47  1  0.57470426  0.05349501  0.97332892  1  0.039846  0  -0.082704  -0.19512  0  3.951665  0
C  C48  1  0.45431432  0.91612493  0.05518951  1  0.070379  0  -0.087275  -0.20505  0  3.9763  0
C  C49  1  0.98383208  0.99128176  0.91584079  1  0.07475  0  -0.014818  -0.116824  0  3.952848  0
C  C50  1  0.99358674  0.98769566  0.10468550  1  0.036469  0  -0.014419  -0.115333  0  3.950318  0
C  C51  1  0.89907407  0.06385695  0.97490396  1  0.434822  0  0.105729  0.268871  0  4.041739  0
C  C52  1  0.07590126  0.91192486  0.04851788  1  0.485759  0  0.107663  0.270775  0  4.04079  0
C  C53  1  0.90392784  0.06277817  0.06651320  1  0.027618  0  -0.087472  -0.205277  0  3.973302  0
C  C54  1  0.07149058  0.91382319  0.95626233  1  0.012827  0  -0.085785  -0.199247  0  3.968888  0
C  C55  1  0.41408777  0.60769016  0.48438195  1  0.062131  0  -0.014814  -0.116232  0  3.952269  0
C  C56  1  0.60864352  0.41840004  0.48885271  1  -0.000895  0  -0.014513  -0.116876  0  3.954042  0
C  C57  1  0.46374299  0.55122977  0.40889093  1  0.416597  0  0.105365  0.268607  0  4.044963  0
C  C58  1  0.56212438  0.47809034  0.56070476  1  0.499098  0  0.108001  0.271616  0  4.03921  0
C  C59  1  0.55806150  0.45856721  0.41142258  1  0.098061  0  -0.087574  -0.204175  0  3.980687  0
C  C60  1  0.46677797  0.56978999  0.55938307  1  0.039613  0  -0.084453  -0.199436  0  3.963909  0
C  C61  1  0.98816364  0.60719187  0.90949740  1  -0.062235  0  -0.007013  -0.061683  0  3.966598  0
C  C62  1  0.99239028  0.41252306  0.10469879  1  0.073584  0  -0.00571  -0.128566  0  3.936814  0
C  C63  1  0.90889939  0.55592119  0.96183055  1  0.029771  0  0.002429  0.064961  0  3.874889  0
C  C64  1  0.07065849  0.46716983  0.05163247  1  0.149675  0  0.084766  0.061341  0  3.938  0
C  C65  1  0.91144440  0.46183577  0.05618165  1  -0.057198  0  0.003651  0.076888  0  3.873487  0
C  C66  1  0.06958812  0.56068655  0.95787525  1  0.064836  0  -0.075095  -0.152905  0  3.942708  0
C  C67  1  0.80796851  0.55769590  0.95716651  1  -0.048802  0  -0.146569  -0.19917  0  3.861747  0
C  C68  1  0.81049571  0.45150491  0.06400212  1  0.004668  0  -0.145169  -0.193051  0  3.863934  0
C  C69  1  0.41530874  0.98431374  0.49244847  1  0.009535  0  -0.015409  -0.119982  0  3.954657  0
C  C70  1  0.60720504  0.99514646  0.48158421  1  -0.041541  0  -0.015396  -0.117876  0  3.953468  0
C  C71  1  0.47161402  0.90407625  0.56792647  1  0.487105  0  0.105925  0.269236  0  4.042622  0
C  C72  1  0.55413916  0.07216979  0.40278959  1  0.478432  0  0.107096  0.270559  0  4.04151  0
C  C73  1  0.56482691  0.90947257  0.56324695  1  0.067672  0  -0.08531  -0.199951  0  3.965513  0
C  C74  1  0.46011283  0.06759307  0.40822560  1  0.07653  0  -0.083705  -0.198046  0  3.958651  0
N  N75  1  0.16212651  0.42654475  0.09238081  1  0.430851  0  0.059648  0.523719  0  4.239644  0
O  O76  1  0.91523932  0.74320387  0.57234603  1  -1.168078  0  -0.35633  -0.618609  0  2.306605  0
O  O77  1  0.26913471  0.07393981  0.24195923  1  -1.169003  0  -0.352461  -0.608214  0  2.30374  0
O  O78  1  0.07778249  0.26352229  0.42174144  1  -1.17122  0  -0.354319  -0.609747  0  2.3126  0
O  O79  1  0.73738523  0.92169966  0.76277326  1  -1.169102  0  -0.358593  -0.618645  0  2.317621  0
O  O80  1  0.07166312  0.74013330  0.76445464  1  -1.18134  0  -0.359314  -0.620997  0  2.289243  0
O  O81  1  0.73982825  0.08021551  0.41397545  1  -1.168125  0  -0.356458  -0.618036  0  2.301551  0
O  O82  1  0.92146223  0.26815612  0.23686152  1  -1.169465  0  -0.352935  -0.610742  0  2.275804  0
O  O83  1  0.26540039  0.91623370  0.57784798  1  -1.172711  0  -0.356649  -0.618434  0  2.298401  0
O  O84  1  0.26442432  0.73984243  0.41830883  1  -1.164477  0  -0.355976  -0.615746  0  2.313754  0
O  O85  1  0.91612970  0.07468080  0.76742591  1  -1.172212  0  -0.35423  -0.613671  0  2.309168  0
O  O86  1  0.74057513  0.26938583  0.57318329  1  -1.164981  0  -0.353595  -0.613456  0  2.300787  0
O  O87  1  0.07643055  0.92115395  0.23757516  1  -1.178647  0  -0.356541  -0.615823  0  2.312109  0
O  O88  1  0.06775352  0.91972772  0.77027751  1  -1.177669  0  -0.349337  -0.611064  0  2.267594  0
O  O89  1  0.74124557  0.27242184  0.41801864  1  -1.17582  0  -0.349859  -0.61192  0  2.269656  0
O  O90  1  0.92318291  0.07448565  0.23524352  1  -1.182363  0  -0.34902  -0.61212  0  2.265367  0
O  O91  1  0.26678900  0.73812090  0.57124158  1  -1.175244  0  -0.348245  -0.610172  0  2.264415  0
O  O92  1  0.91677571  0.74093941  0.76533873  1  -1.164759  0  -0.34191  -0.597309  0  2.261988  0
O  O93  1  0.26836848  0.06845109  0.42426075  1  -1.180303  0  -0.347961  -0.605015  0  2.287588  0
O  O94  1  0.07358727  0.26833172  0.24013144  1  -1.168026  0  -0.342939  -0.602315  0  2.302166  0
O  O95  1  0.73819386  0.92641021  0.56602581  1  -1.174282  0  -0.34943  -0.606592  0  2.280716  0
O  O96  1  0.73638866  0.07325143  0.76747971  1  -1.175297  0  -0.347411  -0.606863  0  2.258997  0
O  O97  1  0.06934950  0.74142611  0.41903163  1  -1.179056  0  -0.347888  -0.607857  0  2.264751  0
O  O98  1  0.27001222  0.92077431  0.24047686  1  -1.170998  0  -0.350614  -0.611006  0  2.273805  0
O  O99  1  0.92249361  0.26731486  0.57382111  1  -1.182253  0  -0.34957  -0.61017  0  2.260748  0
O  O100  1  0.79676219  0.07090374  0.56481333  1  -1.231649  0  -0.693663  -1.073698  0  2.355279  0
O  O101  1  0.06656767  0.06639118  0.56881482  1  -1.229374  0  -0.694318  -1.072248  0  2.363145  0
O  O102  1  0.06893438  0.06864390  0.29706500  1  -1.233231  0  -0.694048  -1.074831  0  2.357694  0
O  O103  1  0.06487074  0.79985443  0.56552942  1  -1.245868  0  -0.695302  -1.072448  0  2.369578  0
O  O104  1  0.14829772  0.95047626  0.45060166  1  -1.196739  0  -0.79128  -1.151551  0  2.130694  0
O  O105  1  0.94975517  0.95331230  0.44778734  1  -1.202299  0  -0.791545  -1.151322  0  2.129378  0
O  O106  1  0.95105977  0.14970859  0.45005952  1  -1.19828  0  -0.790253  -1.152355  0  2.127463  0
O  O107  1  0.94814757  0.95195363  0.64758653  1  -1.20006  0  -0.790734  -1.151776  0  2.128759  0
O  O108  1  0.14373654  0.46446886  0.15999315  1  -0.431279  0  -0.124462  -0.316317  0  1.889608  0
O  O109  1  0.25105187  0.36278144  0.05087337  1  -0.437177  0  -0.129686  -0.321845  0  1.872429  0
F  F110  1  0.18991184  0.38355014  0.37935414  1  -0.624507  0  -0.091843  -0.125243  0  1.362882  0
F  F111  1  0.79773996  0.62911424  0.60964524  1  -0.633048  0  -0.097757  -0.134186  0  1.3491  0
F  F112  1  0.45859617  0.11989507  0.12276254  1  -0.622915  0  -0.088259  -0.121128  0  1.360574  0
F  F113  1  0.57467759  0.84289568  0.91116366  1  -0.629255  0  -0.095267  -0.13426  0  1.357993  0
F  F114  1  0.80917008  0.13844962  0.94398570  1  -0.621949  0  -0.094225  -0.129391  0  1.350268  0
F  F115  1  0.16429866  0.83522397  0.08093086  1  -0.623595  0  -0.094058  -0.127632  0  1.347058  0
F  F116  1  0.41997519  0.58377372  0.33178120  1  -0.626509  0  -0.096241  -0.130717  0  1.348559  0
F  F117  1  0.60872591  0.44771760  0.63471481  1  -0.625466  0  -0.092795  -0.128046  0  1.350145  0
F  F118  1  0.43592638  0.81867612  0.64935580  1  -0.623654  0  -0.097634  -0.132336  0  1.345077  0
F  F119  1  0.59225730  0.15518045  0.31895940  1  -0.625787  0  -0.09714  -0.131776  0  1.34493  0
