# generated using pymatgen
data_NaH3C5N2O3
_symmetry_space_group_name_H-M   'P 1'
_cell_length_a   4.46717110
_cell_length_b   11.53733221
_cell_length_c   11.71630458
_cell_angle_alpha   89.99724360
_cell_angle_beta   89.99967917
_cell_angle_gamma   98.27091870
_symmetry_Int_Tables_number   1
_chemical_formula_structural   NaH3C5N2O3
_chemical_formula_sum   'Na4 H12 C20 N8 O12'
_cell_volume   597.56871882
_cell_formula_units_Z   4
loop_
 _symmetry_equiv_pos_site_id
 _symmetry_equiv_pos_as_xyz
  1  'x, y, z'
loop_
 _atom_site_type_symbol
 _atom_site_label
 _atom_site_symmetry_multiplicity
 _atom_site_fract_x
 _atom_site_fract_y
 _atom_site_fract_z
 _atom_site_occupancy
 _atom_site_hle17_bader_spin_density
 _atom_site_hle17_ddec_charge
 _atom_site_hle17_ddec_spin_density
 _atom_site_hle17_ddec_sum_bond_order
 _atom_site_hle17_magmom
 _atom_site_hse06_10hf_bader_spin_density
 _atom_site_hse06_10hf_ddec_charge
 _atom_site_hse06_10hf_ddec_spin_density
 _atom_site_hse06_10hf_ddec_sum_bond_order
 _atom_site_hse06_10hf_magmom
 _atom_site_hse06_bader_spin_density
 _atom_site_hse06_ddec_charge
 _atom_site_hse06_ddec_spin_density
 _atom_site_hse06_ddec_sum_bond_order
 _atom_site_hse06_magmom
 _atom_site_pbe_bader_spin_density
 _atom_site_pbe_cm5_charge
 _atom_site_pbe_ddec_charge
 _atom_site_pbe_ddec_spin_density
 _atom_site_pbe_ddec_sum_bond_order
 _atom_site_pbe_magmom
Na  Na0  1  0.32953171  0.62427353  0.47540180  1  0  0.894393  0  0.381697  0  0  0.837724  0  0.545603  0  0  0.850421  0  0.523448  0  0  0.687585  0.828532  0  0.561283  0
Na  Na1  1  0.67063763  0.87566727  0.97518360  1  0  0.894191  0  0.381922  0  0  0.837767  0  0.545449  0  0  0.850432  0  0.523379  0  0  0.687824  0.8286  0  0.561122  0
Na  Na2  1  0.67056206  0.37563160  0.52474371  1  0  0.894094  0  0.382035  0  0  0.837697  0  0.545459  0  0  0.850354  0  0.523378  0  0  0.687779  0.828504  0  0.561132  0
Na  Na3  1  0.32950776  0.12436663  0.02465037  1  0  0.894279  0  0.381774  0  0  0.837788  0  0.545391  0  0  0.850448  0  0.52331  0  0  0.687604  0.828627  0  0.561068  0
H  H4  1  0.10957715  0.46421970  0.68879223  1  0  0.113404  0  0.966014  0  0  0.120622  0  1.03444  0  0  0.125719  0  1.029863  0  0  0.117007  0.116931  0  1.037902  0
H  H5  1  0.89010109  0.03577340  0.18883248  1  0  0.113697  0  0.965436  0  0  0.120792  0  1.034002  0  0  0.125949  0  1.029379  0  0  0.116869  0.117044  0  1.037546  0
H  H6  1  0.89011067  0.53567109  0.31124488  1  0  0.113737  0  0.965575  0  0  0.120937  0  1.033992  0  0  0.126055  0  1.029415  0  0  0.117066  0.117181  0  1.037528  0
H  H7  1  0.10997872  0.96425868  0.81119438  1  0  0.11361  0  0.96552  0  0  0.12075  0  1.034013  0  0  0.125929  0  1.029371  0  0  0.116908  0.117001  0  1.03755  0
H  H8  1  0.26793594  0.49804254  0.88895676  1  0  0.109656  0  0.935597  0  0  0.117171  0  0.998626  0  0  0.120792  0  0.996306  0  0  0.108856  0.114432  0  1.000525  0
H  H9  1  0.73153497  0.00186935  0.38891531  1  0  0.109918  0  0.935117  0  0  0.117342  0  0.998273  0  0  0.120978  0  0.995927  0  0  0.108915  0.114647  0  1.000107  0
H  H10  1  0.73165715  0.50180965  0.11098135  1  0  0.109921  0  0.935143  0  0  0.117403  0  0.998225  0  0  0.121071  0  0.995803  0  0  0.109014  0.114686  0  1.000118  0
H  H11  1  0.26848534  0.99815919  0.61105522  1  0  0.109865  0  0.935008  0  0  0.117378  0  0.998013  0  0  0.121015  0  0.995659  0  0  0.108996  0.114679  0  0.999855  0
H  H12  1  0.08696876  0.66549952  0.99760840  1  0  0.078731  0  0.955358  0  0  0.080559  0  1.029751  0  0  0.083919  0  1.027368  0  0  0.114816  0.078152  0  1.031536  0
H  H13  1  0.91317369  0.83453383  0.49758577  1  0  0.078346  0  0.955877  0  0  0.080323  0  1.030126  0  0  0.083672  0  1.027747  0  0  0.114673  0.07792  0  1.031906  0
H  H14  1  0.91337399  0.33451703  0.00235616  1  0  0.078868  0  0.955293  0  0  0.080513  0  1.029826  0  0  0.083838  0  1.027471  0  0  0.114784  0.078112  0  1.03161  0
H  H15  1  0.08680508  0.16554634  0.50242914  1  0  0.078575  0  0.955592  0  0  0.08046  0  1.029952  0  0  0.083819  0  1.027561  0  0  0.114736  0.078015  0  1.031772  0
C  C16  1  0.75360147  0.69755339  0.75260561  1  0  0.071562  0  3.683806  0  0  0.041243  0  3.946964  0  0  0.032772  0  3.970996  0  0  0.177651  0.046193  0  3.931167  0
C  C17  1  0.24600584  0.80232291  0.25253302  1  0  0.06943  0  3.684505  0  0  0.04135  0  3.94605  0  0  0.032925  0  3.970008  0  0  0.177565  0.046267  0  3.93031  0
C  C18  1  0.24633146  0.30241991  0.24742382  1  0  0.070247  0  3.683925  0  0  0.041603  0  3.946091  0  0  0.033142  0  3.970134  0  0  0.177692  0.046552  0  3.930297  0
C  C19  1  0.75380967  0.19763541  0.74745544  1  0  0.071389  0  3.683279  0  0  0.041461  0  3.946104  0  0  0.032993  0  3.970135  0  0  0.177557  0.04641  0  3.930311  0
C  C20  1  0.83923275  0.60605002  0.68001910  1  0  0.332348  0  3.904964  0  0  0.318598  0  4.176177  0  0  0.336943  0  4.188264  0  0  0.103034  0.306436  0  4.167654  0
C  C21  1  0.16058308  0.89392819  0.18002343  1  0  0.333717  0  3.904675  0  0  0.319528  0  4.175734  0  0  0.337884  0  4.18776  0  0  0.103288  0.307367  0  4.167239  0
C  C22  1  0.16088323  0.39400136  0.31993948  1  0  0.333656  0  3.903739  0  0  0.319318  0  4.175267  0  0  0.337655  0  4.187353  0  0  0.103447  0.307154  0  4.166732  0
C  C23  1  0.83920201  0.10600208  0.81994027  1  0  0.3333  0  3.904132  0  0  0.319319  0  4.175449  0  0  0.33767  0  4.187537  0  0  0.10336  0.307153  0  4.166935  0
C  C24  1  0.03308053  0.53510396  0.73714034  1  0  -0.157411  0  3.690674  0  0  -0.188729  0  3.957551  0  0  -0.194446  0  3.974135  0  0  -0.089505  -0.184964  0  3.946347  0
C  C25  1  0.96725496  0.96503028  0.23720785  1  0  -0.157575  0  3.69006  0  0  -0.189014  0  3.957179  0  0  -0.194786  0  3.973749  0  0  -0.089527  -0.185208  0  3.946024  0
C  C26  1  0.96726582  0.46500190  0.26276276  1  0  -0.157827  0  3.68986  0  0  -0.189281  0  3.957104  0  0  -0.195019  0  3.973698  0  0  -0.08991  -0.185466  0  3.945937  0
C  C27  1  0.03278708  0.03497814  0.76278658  1  0  -0.158013  0  3.690469  0  0  -0.189213  0  3.957302  0  0  -0.195011  0  3.973872  0  0  -0.089587  -0.185408  0  3.946152  0
C  C28  1  0.12112985  0.55380906  0.84851707  1  0  -0.06309  0  3.715013  0  0  -0.081183  0  3.978406  0  0  -0.080863  0  3.997208  0  0  -0.077483  -0.081098  0  3.965521  0
C  C29  1  0.87937855  0.94638010  0.34863004  1  0  -0.063383  0  3.714308  0  0  -0.08146  0  3.977859  0  0  -0.081153  0  3.996688  0  0  -0.077385  -0.081392  0  3.964929  0
C  C30  1  0.87919537  0.44628803  0.15137749  1  0  -0.062934  0  3.714908  0  0  -0.081167  0  3.978345  0  0  -0.080844  0  3.99716  0  0  -0.077355  -0.081111  0  3.965417  0
C  C31  1  0.12079437  0.05367395  0.65138402  1  0  -0.062841  0  3.714066  0  0  -0.080926  0  3.977359  0  0  -0.080607  0  3.996193  0  0  -0.077365  -0.080865  0  3.964421  0
C  C32  1  0.01894576  0.64641020  0.90945912  1  0  0.119339  0  3.729163  0  0  0.083285  0  4.00593  0  0  0.085118  0  4.02237  0  0  0.042297  0.081957  0  3.994694  0
C  C33  1  0.98113723  0.85360391  0.40945080  1  0  0.119922  0  3.730281  0  0  0.083563  0  4.007262  0  0  0.085404  0  4.023722  0  0  0.042178  0.082222  0  3.99603  0
C  C34  1  0.98097530  0.35352456  0.09055666  1  0  0.118804  0  3.729695  0  0  0.082824  0  4.006642  0  0  0.084676  0  4.023083  0  0  0.042041  0.081494  0  3.99542  0
C  C35  1  0.01880915  0.14640005  0.59055302  1  0  0.119292  0  3.729075  0  0  0.083157  0  4.005909  0  0  0.084992  0  4.022361  0  0  0.042229  0.081851  0  3.994675  0
N  N36  1  0.55798950  0.77809746  0.71427271  1  0  0.471222  0  3.930267  0  0  0.530784  0  4.179899  0  0  0.552761  0  4.189496  0  0  0.037477  0.516298  0  4.17329  0
N  N37  1  0.44180050  0.72182384  0.21421718  1  0  0.474754  0  3.929316  0  0  0.530368  0  4.18004  0  0  0.55232  0  4.189639  0  0  0.037454  0.515891  0  4.173428  0
N  N38  1  0.44208358  0.22192849  0.28579000  1  0  0.473652  0  3.929638  0  0  0.530027  0  4.17967  0  0  0.55199  0  4.189275  0  0  0.037164  0.515543  0  4.173059  0
N  N39  1  0.55801278  0.27814674  0.78576957  1  0  0.471052  0  3.930416  0  0  0.530395  0  4.180148  0  0  0.552368  0  4.189748  0  0  0.03751  0.515908  0  4.173539  0
N  N40  1  0.84212724  0.71531593  0.86187163  1  0  -0.389643  0  3.253101  0  0  -0.352227  0  3.539483  0  0  -0.358732  0  3.557014  0  0  -0.381845  -0.347311  0  3.527592  0
N  N41  1  0.15744059  0.78456095  0.36182056  1  0  -0.389415  0  3.253361  0  0  -0.352441  0  3.539298  0  0  -0.358974  0  3.556806  0  0  -0.381445  -0.347505  0  3.527409  0
N  N42  1  0.15758040  0.28456788  0.13818597  1  0  -0.389471  0  3.253439  0  0  -0.352344  0  3.539322  0  0  -0.358859  0  3.556846  0  0  -0.381694  -0.347427  0  3.52744  0
N  N43  1  0.84236182  0.21541049  0.63818326  1  0  -0.389858  0  3.252712  0  0  -0.352566  0  3.539106  0  0  -0.359089  0  3.556648  0  0  -0.381965  -0.347635  0  3.52718  0
O  O44  1  0.45939320  0.77238159  0.61370540  1  0  -0.444609  0  1.80937  0  0  -0.428584  0  2.027921  0  0  -0.440497  0  2.022632  0  0  -0.206053  -0.420419  0  2.03139  0
O  O45  1  0.54076878  0.72765280  0.11369633  1  0  -0.446233  0  1.809546  0  0  -0.428482  0  2.028291  0  0  -0.440463  0  2.023166  0  0  -0.205773  -0.420309  0  2.03175  0
O  O46  1  0.54068313  0.22769602  0.38635645  1  0  -0.445925  0  1.810314  0  0  -0.428291  0  2.028669  0  0  -0.440214  0  2.023424  0  0  -0.20587  -0.420125  0  2.032133  0
O  O47  1  0.45927967  0.27236088  0.88632114  1  0  -0.444469  0  1.809464  0  0  -0.428424  0  2.028183  0  0  -0.440315  0  2.022865  0  0  -0.205976  -0.420259  0  2.031658  0
O  O48  1  0.76181705  0.58412432  0.57555588  1  0  -0.704823  0  1.953382  0  0  -0.666921  0  2.200576  0  0  -0.688615  0  2.192587  0  0  -0.447169  -0.651735  0  2.205667  0
O  O49  1  0.23813256  0.91596436  0.07558546  1  0  -0.705158  0  1.952567  0  0  -0.667399  0  2.199744  0  0  -0.68907  0  2.191748  0  0  -0.44687  -0.652223  0  2.204849  0
O  O50  1  0.23809545  0.41590325  0.42442660  1  0  -0.705196  0  1.95259  0  0  -0.667323  0  2.199888  0  0  -0.689004  0  2.191886  0  0  -0.447163  -0.652135  0  2.204974  0
O  O51  1  0.76190757  0.08405106  0.92442007  1  0  -0.705315  0  1.952665  0  0  -0.6674  0  2.199913  0  0  -0.689092  0  2.191928  0  0  -0.447268  -0.652223  0  2.205022  0
O  O52  1  0.48865464  0.85396664  0.78220196  1  0  -0.430792  0  1.850962  0  0  -0.41243  0  2.071271  0  0  -0.425366  0  2.06784  0  0  -0.187334  -0.403496  0  2.073554  0
O  O53  1  0.51158650  0.64608294  0.28221645  1  0  -0.432636  0  1.850676  0  0  -0.412226  0  2.070779  0  0  -0.425152  0  2.067346  0  0  -0.187009  -0.403283  0  2.073045  0
O  O54  1  0.51153040  0.14605328  0.21788209  1  0  -0.431891  0  1.850402  0  0  -0.411896  0  2.070368  0  0  -0.424815  0  2.066941  0  0  -0.186706  -0.402969  0  2.072654  0
O  O55  1  0.48841079  0.35395609  0.71783175  1  0  -0.430464  0  1.851007  0  0  -0.412121  0  2.071412  0  0  -0.425034  0  2.067958  0  0  -0.187116  -0.403194  0  2.073697  0
