# generated using pymatgen
data_CdH18C20(N6O)2
_symmetry_space_group_name_H-M   'P 1'
_cell_length_a   7.50284355
_cell_length_b   8.22528566
_cell_length_c   9.67526609
_cell_angle_alpha   67.74854873
_cell_angle_beta   78.96182092
_cell_angle_gamma   64.28661764
_symmetry_Int_Tables_number   1
_chemical_formula_structural   CdH18C20(N6O)2
_chemical_formula_sum   'Cd1 H18 C20 N12 O2'
_cell_volume   497.63759000
_cell_formula_units_Z   1
loop_
 _symmetry_equiv_pos_site_id
 _symmetry_equiv_pos_as_xyz
  1  'x, y, z'
loop_
 _atom_site_type_symbol
 _atom_site_label
 _atom_site_symmetry_multiplicity
 _atom_site_fract_x
 _atom_site_fract_y
 _atom_site_fract_z
 _atom_site_occupancy
 _atom_site_hle17_bader_spin_density
 _atom_site_hle17_ddec_charge
 _atom_site_hle17_ddec_spin_density
 _atom_site_hle17_ddec_sum_bond_order
 _atom_site_hle17_magmom
 _atom_site_hse06_10hf_bader_spin_density
 _atom_site_hse06_10hf_ddec_charge
 _atom_site_hse06_10hf_ddec_spin_density
 _atom_site_hse06_10hf_ddec_sum_bond_order
 _atom_site_hse06_10hf_magmom
 _atom_site_hse06_bader_spin_density
 _atom_site_hse06_ddec_charge
 _atom_site_hse06_ddec_spin_density
 _atom_site_hse06_ddec_sum_bond_order
 _atom_site_hse06_magmom
 _atom_site_pbe_bader_spin_density
 _atom_site_pbe_cm5_charge
 _atom_site_pbe_ddec_charge
 _atom_site_pbe_ddec_spin_density
 _atom_site_pbe_ddec_sum_bond_order
 _atom_site_pbe_magmom
Cd  Cd0  1  0.00000107  0.99999803  0.99999831  1  0  1.110336  0  1.648865  0  0  0.90787  0  2.089744  0  0  0.959844  0  2.044758  0  0  0.790077  0.870399  0  2.121898  0
H  H1  1  0.88313646  0.38607134  0.02828440  1  0  0.392215  0  0.919585  0  0  0.3517  0  1.005001  0  0  0.362334  0  0.989649  0  0  0.281738  0.344235  0  1.015745  0
H  H2  1  0.11686560  0.61392789  0.97171571  1  0  0.392217  0  0.919554  0  0  0.351699  0  1.005003  0  0  0.362332  0  0.989649  0  0  0.281736  0.344236  0  1.015743  0
H  H3  1  0.11394957  0.30675021  0.04037954  1  0  0.387352  0  0.927075  0  0  0.350926  0  1.003767  0  0  0.361086  0  0.989143  0  0  0.280973  0.343762  0  1.014116  0
H  H4  1  0.88605237  0.69324613  0.95962049  1  0  0.387389  0  0.927034  0  0  0.350964  0  1.003717  0  0  0.361125  0  0.98909  0  0  0.280967  0.3438  0  1.014066  0
H  H5  1  0.32427719  0.00557374  0.17065426  1  0  0.098395  0  0.963939  0  0  0.110261  0  1.026759  0  0  0.112386  0  1.026328  0  0  0.103087  0.10873  0  1.027464  0
H  H6  1  0.67572098  0.99442832  0.82934447  1  0  0.0984  0  0.963917  0  0  0.110255  0  1.026758  0  0  0.112378  0  1.026328  0  0  0.103098  0.108725  0  1.027462  0
H  H7  1  0.37288173  0.99737356  0.42019897  1  0  0.086736  0  0.96637  0  0  0.10052  0  1.024993  0  0  0.102341  0  1.025116  0  0  0.102523  0.099642  0  1.024637  0
H  H8  1  0.62711309  0.00262990  0.57980289  1  0  0.086694  0  0.966432  0  0  0.100481  0  1.02504  0  0  0.10231  0  1.025153  0  0  0.10253  0.099605  0  1.024691  0
H  H9  1  0.61639259  0.70896259  0.59033483  1  0  0.098776  0  1.004631  0  0  0.101805  0  1.081945  0  0  0.105191  0  1.079381  0  0  0.104176  0.098007  0  1.086087  0
H  H10  1  0.38360482  0.29103802  0.40966551  1  0  0.098761  0  1.004692  0  0  0.101794  0  1.082005  0  0  0.105179  0  1.079444  0  0  0.104167  0.098003  0  1.086139  0
H  H11  1  0.76954632  0.43235089  0.25789485  1  0  0.112413  0  0.970367  0  0  0.119899  0  1.039799  0  0  0.123543  0  1.036886  0  0  0.108547  0.117256  0  1.042202  0
H  H12  1  0.23045575  0.56764834  0.74210527  1  0  0.112411  0  0.97036  0  0  0.119899  0  1.039793  0  0  0.123543  0  1.036881  0  0  0.108548  0.117259  0  1.042198  0
H  H13  1  0.75876456  0.44425103  0.74195963  1  0  0.086649  0  1.012021  0  0  0.084001  0  1.095766  0  0  0.087772  0  1.090778  0  0  0.127783  0.08077  0  1.100404  0
H  H14  1  0.24123334  0.55574526  0.25803995  1  0  0.086656  0  1.012025  0  0  0.084007  0  1.095771  0  0  0.08778  0  1.090781  0  0  0.127785  0.080776  0  1.100407  0
H  H15  1  0.18170145  0.94746660  0.65693867  1  0  0.096891  0  1.001503  0  0  0.09679  0  1.079618  0  0  0.099982  0  1.077183  0  0  0.112721  0.09499  0  1.080472  0
H  H16  1  0.81830474  0.05253266  0.34305465  1  0  0.096929  0  1.001608  0  0  0.096845  0  1.079694  0  0  0.100036  0  1.07726  0  0  0.112735  0.095046  0  1.080543  0
H  H17  1  0.01023083  0.21738631  0.38801962  1  0  0.120502  0  0.957367  0  0  0.131942  0  1.015649  0  0  0.134591  0  1.014083  0  0  0.12426  0.129097  0  1.018359  0
H  H18  1  0.98977211  0.78261726  0.61198001  1  0  0.120533  0  0.957322  0  0  0.131967  0  1.015605  0  0  0.134611  0  1.01406  0  0  0.124249  0.129123  0  1.018314  0
C  C19  1  0.43304561  0.87911111  0.24446476  1  0  -0.085119  0  3.715361  0  0  -0.115629  0  3.969641  0  0  -0.117245  0  3.990549  0  0  -0.089548  -0.114374  0  3.95573  0
C  C20  1  0.56694700  0.12088800  0.75553674  1  0  -0.085143  0  3.715417  0  0  -0.115648  0  3.969677  0  0  -0.117274  0  3.99058  0  0  -0.089599  -0.114387  0  3.955777  0
C  C21  1  0.45964163  0.87334360  0.38489114  1  0  -0.03634  0  3.750218  0  0  -0.049298  0  4.001828  0  0  -0.050141  0  4.022729  0  0  -0.087134  -0.048722  0  3.986783  0
C  C22  1  0.54035576  0.12665701  0.61511023  1  0  -0.036269  0  3.75021  0  0  -0.049224  0  4.001818  0  0  -0.050069  0  4.022718  0  0  -0.087114  -0.048653  0  3.986779  0
C  C23  1  0.59833478  0.71181807  0.48030783  1  0  -0.145025  0  3.716196  0  0  -0.168182  0  3.970371  0  0  -0.171484  0  3.990232  0  0  -0.0916  -0.165868  0  3.958193  0
C  C24  1  0.40166414  0.28818544  0.51969033  1  0  -0.145093  0  3.716279  0  0  -0.168257  0  3.970462  0  0  -0.17156  0  3.990322  0  0  -0.091622  -0.165946  0  3.958279  0
C  C25  1  0.71174830  0.55317576  0.43409874  1  0  0.19201  0  3.76677  0  0  0.18602  0  4.012921  0  0  0.191906  0  4.034855  0  0  0.09582  0.182382  0  3.997309  0
C  C26  1  0.28825388  0.44682635  0.56590250  1  0  0.192123  0  3.766808  0  0  0.186132  0  4.012947  0  0  0.192019  0  4.034879  0  0  0.095854  0.182492  0  3.99734  0
C  C27  1  0.68731876  0.55694519  0.29338674  1  0  -0.170268  0  3.66939  0  0  -0.201911  0  3.92108  0  0  -0.205281  0  3.939651  0  0  -0.088797  -0.199485  0  3.908278  0
C  C28  1  0.31268121  0.44305257  0.70661414  1  0  -0.170246  0  3.669429  0  0  -0.201894  0  3.921098  0  0  -0.205274  0  3.939659  0  0  -0.088778  -0.199465  0  3.908309  0
C  C29  1  0.54779046  0.72091141  0.19792125  1  0  0.013811  0  3.815758  0  0  0.035402  0  4.053272  0  0  0.033817  0  4.075414  0  0  -0.006258  0.03601  0  4.038678  0
C  C30  1  0.45221489  0.27908642  0.80208091  1  0  0.013824  0  3.815789  0  0  0.035446  0  4.053269  0  0  0.033894  0  4.075366  0  0  -0.006222  0.036032  0  4.03871  0
C  C31  1  0.52337835  0.72230344  0.05131478  1  0  0.281712  0  3.81276  0  0  0.248525  0  4.083023  0  0  0.260143  0  4.100299  0  0  0.214806  0.240804  0  4.071235  0
C  C32  1  0.47662296  0.27769435  0.94868694  1  0  0.281672  0  3.812726  0  0  0.248452  0  4.083004  0  0  0.260061  0  4.100275  0  0  0.214784  0.240738  0  4.071221  0
C  C33  1  0.85253846  0.34419289  0.68396722  1  0  0.171807  0  3.641053  0  0  0.112575  0  3.90902  0  0  0.126877  0  3.921329  0  0  0.137347  0.10361  0  3.900447  0
C  C34  1  0.14746436  0.65580779  0.31603129  1  0  0.17184  0  3.640921  0  0  0.112606  0  3.908885  0  0  0.126906  0  3.921197  0  0  0.137378  0.103644  0  3.900312  0
C  C35  1  0.06616018  0.09024592  0.63302446  1  0  0.006362  0  3.767131  0  0  -0.02757  0  4.037111  0  0  -0.02525  0  4.057397  0  0  -0.005206  -0.029241  0  4.023  0
C  C36  1  0.93383334  0.90975752  0.36697345  1  0  0.006303  0  3.767208  0  0  -0.02765  0  4.037175  0  0  -0.025329  0  4.05746  0  0  -0.005225  -0.029318  0  4.023065  0
C  C37  1  0.98302716  0.22269387  0.50054970  1  0  -0.071808  0  3.660138  0  0  -0.110553  0  3.9181  0  0  -0.110132  0  3.937661  0  0  -0.00352  -0.110266  0  3.905359  0
C  C38  1  0.01697234  0.77730821  0.49945090  1  0  -0.071853  0  3.660079  0  0  -0.110591  0  3.918045  0  0  -0.110178  0  3.93761  0  0  -0.003515  -0.110307  0  3.905305  0
N  N39  1  0.67306504  0.62622877  0.97267349  1  0  -0.373763  0  3.090675  0  0  -0.311939  0  3.34654  0  0  -0.326909  0  3.359397  0  0  -0.225264  -0.301551  0  3.33771  0
N  N40  1  0.32693567  0.37377044  0.02732682  1  0  -0.373662  0  3.090692  0  0  -0.311821  0  3.346565  0  0  -0.32679  0  3.359425  0  0  -0.225206  -0.301434  0  3.337734  0
N  N41  1  0.59289931  0.66094168  0.84537044  1  0  -0.091051  0  3.020922  0  0  -0.076188  0  3.313239  0  0  -0.07742  0  3.325132  0  0  -0.097317  -0.075099  0  3.306322  0
N  N42  1  0.40710128  0.33905465  0.15462979  1  0  -0.091152  0  3.02097  0  0  -0.076304  0  3.313321  0  0  -0.077538  0  3.325217  0  0  -0.097398  -0.075216  0  3.306406  0
N  N43  1  0.40431582  0.77149264  0.84663331  1  0  -0.072673  0  2.988718  0  0  -0.059514  0  3.282844  0  0  -0.059241  0  3.297051  0  0  -0.092779  -0.059023  0  3.272531  0
N  N44  1  0.59568626  0.22850658  0.15336577  1  0  -0.072613  0  2.988659  0  0  -0.059454  0  3.282791  0  0  -0.059181  0  3.297  0  0  -0.092734  -0.058963  0  3.272476  0
N  N45  1  0.35528012  0.81471073  0.97422892  1  0  -0.356981  0  3.071111  0  0  -0.296755  0  3.358554  0  0  -0.315554  0  3.375181  0  0  -0.232575  -0.283585  0  3.347016  0
N  N46  1  0.64472134  0.18528993  0.02577082  1  0  -0.357003  0  3.071092  0  0  -0.296784  0  3.358579  0  0  -0.315582  0  3.375208  0  0  -0.232601  -0.283614  0  3.347039  0
N  N47  1  0.98374072  0.16753608  0.74623144  1  0  -0.385869  0  3.239726  0  0  -0.305564  0  3.515366  0  0  -0.327602  0  3.534139  0  0  -0.353413  -0.290205  0  3.50222  0
N  N48  1  0.01625867  0.83246311  0.25376700  1  0  -0.385822  0  3.239663  0  0  -0.305525  0  3.515332  0  0  -0.327554  0  3.534087  0  0  -0.353422  -0.290168  0  3.502177  0
N  N49  1  0.84659668  0.38410326  0.53383121  1  0  -0.089144  0  3.579807  0  0  0.001047  0  3.78754  0  0  -0.014199  0  3.81373  0  0  -0.221699  0.011175  0  3.768962  0
N  N50  1  0.15340148  0.61589880  0.46616855  1  0  -0.089259  0  3.57972  0  0  0.000937  0  3.787461  0  0  -0.014308  0  3.813651  0  0  -0.221736  0.011063  0  3.768884  0
O  O51  1  0.00320233  0.26523627  0.05893603  1  0  -0.82276  0  1.896283  0  0  -0.762237  0  2.109991  0  0  -0.78143  0  2.076177  0  0  -0.593711  -0.74824  0  2.134725  0
O  O52  1  0.99680035  0.73476152  0.94106342  1  0  -0.822805  0  1.89621  0  0  -0.762277  0  2.109923  0  0  -0.781461  0  2.076102  0  0  -0.593694  -0.748281  0  2.134658  0
