# generated using pymatgen
data_LiH8C8ClO4
_symmetry_space_group_name_H-M   'P 1'
_cell_length_a   4.96324506
_cell_length_b   7.42501364
_cell_length_c   14.13278953
_cell_angle_alpha   84.88214039
_cell_angle_beta   80.65154333
_cell_angle_gamma   70.42984558
_symmetry_Int_Tables_number   1
_chemical_formula_structural   LiH8C8ClO4
_chemical_formula_sum   'Li2 H16 C16 Cl2 O8'
_cell_volume   483.88008713
_cell_formula_units_Z   2
loop_
 _symmetry_equiv_pos_site_id
 _symmetry_equiv_pos_as_xyz
  1  'x, y, z'
loop_
 _atom_site_type_symbol
 _atom_site_label
 _atom_site_symmetry_multiplicity
 _atom_site_fract_x
 _atom_site_fract_y
 _atom_site_fract_z
 _atom_site_occupancy
 _atom_site_hle17_bader_spin_density
 _atom_site_hle17_ddec_charge
 _atom_site_hle17_ddec_spin_density
 _atom_site_hle17_ddec_sum_bond_order
 _atom_site_hle17_magmom
 _atom_site_hse06_10hf_bader_spin_density
 _atom_site_hse06_10hf_ddec_charge
 _atom_site_hse06_10hf_ddec_spin_density
 _atom_site_hse06_10hf_ddec_sum_bond_order
 _atom_site_hse06_10hf_magmom
 _atom_site_hse06_bader_spin_density
 _atom_site_hse06_ddec_charge
 _atom_site_hse06_ddec_spin_density
 _atom_site_hse06_ddec_sum_bond_order
 _atom_site_hse06_magmom
 _atom_site_pbe_bader_spin_density
 _atom_site_pbe_cm5_charge
 _atom_site_pbe_ddec_charge
 _atom_site_pbe_ddec_spin_density
 _atom_site_pbe_ddec_sum_bond_order
 _atom_site_pbe_magmom
Li  Li0  1  0.64910278  0.00814765  0.43837704  1  0  0.860123  0  0.389223  0  0  0.822163  0  0.491316  0  0  0.831397  0  0.474676  0  0  0.505283  0.815211  0  0.503549  0
Li  Li1  1  0.10775489  0.95800822  0.55995304  1  0  0.856964  0  0.394158  0  0  0.817078  0  0.499801  0  0  0.826763  0  0.482502  0  0  0.507986  0.809875  0  0.512416  0
H  H2  1  0.33710742  0.56245148  0.05678956  1  0  0.104558  0  0.966066  0  0  0.112937  0  1.031798  0  0  0.114767  0  1.03239  0  0  0.099042  0.111644  0  1.031436  0
H  H3  1  0.94500921  0.44489814  0.94639062  1  0  0.103275  0  0.959986  0  0  0.11304  0  1.023946  0  0  0.115011  0  1.024189  0  0  0.098738  0.111617  0  1.023831  0
H  H4  1  0.50880950  0.21656175  0.01992545  1  0  0.089812  0  0.970372  0  0  0.097546  0  1.036228  0  0  0.100074  0  1.035915  0  0  0.09267  0.095755  0  1.036513  0
H  H5  1  0.74768820  0.79001757  0.98564759  1  0  0.087158  0  0.973275  0  0  0.094938  0  1.039911  0  0  0.097499  0  1.039622  0  0  0.090657  0.09309  0  1.0402  0
H  H6  1  0.91090271  0.98836258  0.10112603  1  0  0.084233  0  0.972969  0  0  0.089428  0  1.044501  0  0  0.09233  0  1.04279  0  0  0.092154  0.087312  0  1.045869  0
H  H7  1  0.01133709  0.01269969  0.90828039  1  0  0.082745  0  0.97635  0  0  0.087735  0  1.048337  0  0  0.090732  0  1.046486  0  0  0.090598  0.085651  0  1.049568  0
H  H8  1  0.11999362  0.10222410  0.21958700  1  0  0.099711  0  0.992397  0  0  0.110018  0  1.056267  0  0  0.11269  0  1.055135  0  0  0.100223  0.108084  0  1.057279  0
H  H9  1  0.45472308  0.89214165  0.79368761  1  0  0.101113  0  0.983858  0  0  0.11298  0  1.044349  0  0  0.115602  0  1.043358  0  0  0.099781  0.11102  0  1.045431  0
H  H10  1  0.24185826  0.42689304  0.36652110  1  0  0.118618  0  0.895305  0  0  0.133055  0  0.947975  0  0  0.135646  0  0.94526  0  0  0.131537  0.13112  0  0.950148  0
H  H11  1  0.04208850  0.55338898  0.65115667  1  0  0.120028  0  0.901645  0  0  0.131014  0  0.959731  0  0  0.133923  0  0.956712  0  0  0.12782  0.128913  0  0.962047  0
H  H12  1  0.35741140  0.25715750  0.27568040  1  0  0.092139  0  0.948163  0  0  0.099702  0  1.019607  0  0  0.100385  0  1.020389  0  0  0.113495  0.099219  0  1.019165  0
H  H13  1  0.88912803  0.73948666  0.73318371  1  0  0.091195  0  0.945366  0  0  0.100023  0  1.015015  0  0  0.100688  0  1.015762  0  0  0.113869  0.099595  0  1.01459  0
H  H14  1  0.88699224  0.72690500  0.30983442  1  0  0.422618  0  0.878372  0  0  0.385662  0  0.952513  0  0  0.395536  0  0.937696  0  0  0.296682  0.378691  0  0.962964  0
H  H15  1  0.84249518  0.27988900  0.67284628  1  0  0.421878  0  0.875392  0  0  0.386931  0  0.945926  0  0  0.396343  0  0.931876  0  0  0.29808  0.380304  0  0.955799  0
H  H16  1  0.11022570  0.81177504  0.33821195  1  0  0.419599  0  0.849852  0  0  0.394872  0  0.916336  0  0  0.403087  0  0.90408  0  0  0.313451  0.389048  0  0.925045  0
H  H17  1  0.79782118  0.27869270  0.56673930  1  0  0.426841  0  0.841311  0  0  0.405955  0  0.899298  0  0  0.414682  0  0.886337  0  0  0.320905  0.399757  0  0.908528  0
C  C18  1  0.85239961  0.39707564  0.20625620  1  0  0.221365  0  3.805462  0  0  0.204639  0  4.067351  0  0  0.214992  0  4.083789  0  0  0.082555  0.197522  0  4.056194  0
C  C19  1  0.45717392  0.60059530  0.80542441  1  0  0.228829  0  3.808817  0  0  0.211117  0  4.07231  0  0  0.22196  0  4.08836  0  0  0.084599  0.20362  0  4.061533  0
C  C20  1  0.63198845  0.52410737  0.15840886  1  0  0.020488  0  3.769745  0  0  0.027292  0  4.040595  0  0  0.026839  0  4.059947  0  0  -0.001021  0.027357  0  4.027717  0
C  C21  1  0.30859064  0.47717687  0.84996624  1  0  0.023736  0  3.770365  0  0  0.031089  0  4.04231  0  0  0.030536  0  4.061389  0  0  -0.000218  0.031219  0  4.029653  0
C  C22  1  0.50882114  0.46035950  0.09205454  1  0  -0.108503  0  3.773211  0  0  -0.13236  0  4.02739  0  0  -0.132219  0  4.047489  0  0  -0.099393  -0.132351  0  4.013795  0
C  C23  1  0.05629661  0.54422144  0.91441110  1  0  -0.110646  0  3.778854  0  0  -0.135193  0  4.033796  0  0  -0.134728  0  4.053323  0  0  -0.101336  -0.135323  0  4.020511  0
C  C24  1  0.60706819  0.26663198  0.07121912  1  0  -0.092436  0  3.786948  0  0  -0.107469  0  4.044181  0  0  -0.111248  0  4.065697  0  0  -0.106378  -0.105001  0  4.029717  0
C  C25  1  0.94713854  0.73745284  0.93613786  1  0  -0.098794  0  3.803204  0  0  -0.114385  0  4.062849  0  0  -0.118068  0  4.08394  0  0  -0.110793  -0.111949  0  4.048561  0
C  C26  1  0.83003526  0.13981964  0.11659050  1  0  -0.055052  0  3.795528  0  0  -0.072496  0  4.052802  0  0  -0.071336  0  4.071813  0  0  -0.097437  -0.073127  0  4.039928  0
C  C27  1  0.09373774  0.86125334  0.89289257  1  0  -0.063891  0  3.811067  0  0  -0.081732  0  4.070006  0  0  -0.080457  0  4.088806  0  0  -0.100947  -0.082421  0  4.057194  0
C  C28  1  0.95089909  0.20409573  0.18366497  1  0  -0.180546  0  3.771246  0  0  -0.201144  0  4.025539  0  0  -0.206553  0  4.046594  0  0  -0.104131  -0.197584  0  4.011448  0
C  C29  1  0.34573199  0.79366993  0.82813775  1  0  -0.181978  0  3.771639  0  0  -0.201709  0  4.024916  0  0  -0.207023  0  4.045536  0  0  -0.10451  -0.198227  0  4.011283  0
C  C30  1  0.16891270  0.33857840  0.32480704  1  0  -0.075558  0  3.588376  0  0  -0.134915  0  3.849441  0  0  -0.131148  0  3.849698  0  0  -0.057244  -0.137649  0  3.849252  0
C  C31  1  0.83695676  0.64764787  0.68701083  1  0  -0.080362  0  3.587735  0  0  -0.139769  0  3.850623  0  0  -0.136471  0  3.851508  0  0  -0.06079  -0.142271  0  3.850155  0
C  C32  1  0.05316812  0.20230120  0.39449366  1  0  0.692288  0  3.899586  0  0  0.650012  0  4.19912  0  0  0.680929  0  4.191718  0  0  0.219695  0.629093  0  4.203477  0
C  C33  1  0.65855975  0.77049664  0.61142668  1  0  0.715944  0  3.892937  0  0  0.673516  0  4.193368  0  0  0.705144  0  4.183698  0  0  0.224857  0.652128  0  4.199246  0
Cl  Cl34  1  0.51370201  0.76493725  0.18317666  1  0  -0.066697  0  1.428018  0  0  -0.034644  0  1.669526  0  0  -0.037631  0  1.661507  0  0  0.047986  -0.032458  0  1.675319  0
Cl  Cl35  1  0.44028533  0.23831956  0.82158182  1  0  -0.070172  0  1.394449  0  0  -0.044498  0  1.626138  0  0  -0.046729  0  1.618493  0  0  0.033988  -0.042899  0  1.631674  0
O  O36  1  0.90440743  0.83305251  0.34221972  1  0  -0.883969  0  1.823989  0  0  -0.846453  0  2.001487  0  0  -0.860932  0  1.972567  0  0  -0.637154  -0.836174  0  2.021735  0
O  O37  1  0.93594097  0.22009649  0.61175771  1  0  -0.876543  0  1.781314  0  0  -0.835198  0  1.937906  0  0  -0.850086  0  1.9091  0  0  -0.625534  -0.824676  0  1.958059  0
O  O38  1  0.95668876  0.47088755  0.27199457  1  0  -0.279283  0  2.4253  0  0  -0.204037  0  2.656131  0  0  -0.222073  0  2.658189  0  0  -0.175577  -0.191267  0  2.654288  0
O  O39  1  0.70235336  0.52214131  0.74354592  1  0  -0.281166  0  2.435917  0  0  -0.206958  0  2.669499  0  0  -0.225702  0  2.673037  0  0  -0.175803  -0.193695  0  2.666723  0
O  O40  1  0.78439206  0.23742730  0.41602495  1  0  -0.688116  0  1.905777  0  0  -0.643382  0  2.125504  0  0  -0.665044  0  2.114598  0  0  -0.36172  -0.62823  0  2.13262  0
O  O41  1  0.41733254  0.75502781  0.60542893  1  0  -0.699275  0  1.919434  0  0  -0.656633  0  2.141902  0  0  -0.677987  0  2.130473  0  0  -0.387439  -0.641736  0  2.149356  0
O  O42  1  0.24630511  0.05981507  0.42766368  1  0  -0.778681  0  1.922174  0  0  -0.730722  0  2.156672  0  0  -0.752413  0  2.142364  0  0  -0.426452  -0.715362  0  2.166038  0
O  O43  1  0.77307801  0.88309960  0.55976097  1  0  -0.813592  0  1.981031  0  0  -0.769045  0  2.220975  0  0  -0.789706  0  2.203764  0  0  -0.452775  -0.754443  0  2.232428  0
