# generated using pymatgen
data_KH4C3SO6
_symmetry_space_group_name_H-M   'P 1'
_cell_length_a   5.53957870
_cell_length_b   7.16565928
_cell_length_c   9.11989803
_cell_angle_alpha   92.00531515
_cell_angle_beta   107.53762415
_cell_angle_gamma   105.90927609
_symmetry_Int_Tables_number   1
_chemical_formula_structural   KH4C3SO6
_chemical_formula_sum   'K2 H8 C6 S2 O12'
_cell_volume   329.22290372
_cell_formula_units_Z   2
loop_
 _symmetry_equiv_pos_site_id
 _symmetry_equiv_pos_as_xyz
  1  'x, y, z'
loop_
 _atom_site_type_symbol
 _atom_site_label
 _atom_site_symmetry_multiplicity
 _atom_site_fract_x
 _atom_site_fract_y
 _atom_site_fract_z
 _atom_site_occupancy
 _atom_site_hle17_bader_spin_density
 _atom_site_hle17_ddec_charge
 _atom_site_hle17_ddec_spin_density
 _atom_site_hle17_ddec_sum_bond_order
 _atom_site_hle17_magmom
 _atom_site_hse06_10hf_bader_spin_density
 _atom_site_hse06_10hf_ddec_charge
 _atom_site_hse06_10hf_ddec_spin_density
 _atom_site_hse06_10hf_ddec_sum_bond_order
 _atom_site_hse06_10hf_magmom
 _atom_site_hse06_bader_spin_density
 _atom_site_hse06_ddec_charge
 _atom_site_hse06_ddec_spin_density
 _atom_site_hse06_ddec_sum_bond_order
 _atom_site_hse06_magmom
 _atom_site_pbe_bader_spin_density
 _atom_site_pbe_cm5_charge
 _atom_site_pbe_ddec_charge
 _atom_site_pbe_ddec_spin_density
 _atom_site_pbe_ddec_sum_bond_order
 _atom_site_pbe_magmom
K  K0  1  0.32680893  0.71812508  0.03750879  1  0  0.94561  0  0.468208  0  0  0.901862  0  0.653087  0  0  0.915187  0  0.631522  0  0  0.834744  0.891886  0  0.668558  0
K  K1  1  0.67318052  0.28187599  0.96250192  1  0  0.945583  0  0.468233  0  0  0.901831  0  0.653064  0  0  0.91515  0  0.631493  0  0  0.834717  0.891842  0  0.668545  0
H  H2  1  0.88689884  0.89785798  0.25978707  1  0  0.428837  0  0.872527  0  0  0.399164  0  0.93363  0  0  0.409784  0  0.918044  0  0  0.298492  0.391598  0  0.944768  0
H  H3  1  0.11310653  0.10213598  0.74020436  1  0  0.428805  0  0.872564  0  0  0.399168  0  0.933618  0  0  0.409787  0  0.918032  0  0  0.298521  0.391606  0  0.944749  0
H  H4  1  0.98021233  0.63179024  0.28693218  1  0  0.395469  0  0.89358  0  0  0.368463  0  0.967037  0  0  0.380332  0  0.954018  0  0  0.305304  0.3601  0  0.976124  0
H  H5  1  0.01982184  0.36820370  0.71310939  1  0  0.395965  0  0.892889  0  0  0.36865  0  0.966838  0  0  0.380524  0  0.953799  0  0  0.305338  0.36029  0  0.975921  0
H  H6  1  0.64366449  0.13722739  0.36196885  1  0  0.396177  0  0.891591  0  0  0.372064  0  0.960556  0  0  0.382586  0  0.948809  0  0  0.310839  0.364691  0  0.968679  0
H  H7  1  0.35633335  0.86274755  0.63801953  1  0  0.396138  0  0.891672  0  0  0.371977  0  0.960726  0  0  0.382499  0  0.94897  0  0  0.310829  0.364607  0  0.96885  0
H  H8  1  0.85761841  0.79468399  0.40556441  1  0  0.419701  0  0.83886  0  0  0.396324  0  0.905915  0  0  0.403657  0  0.898099  0  0  0.312315  0.39063  0  0.912374  0
H  H9  1  0.14240087  0.20531148  0.59443614  1  0  0.419722  0  0.839021  0  0  0.396399  0  0.9059  0  0  0.403729  0  0.898084  0  0  0.312354  0.390707  0  0.912354  0
C  C10  1  0.27469753  0.51659983  0.38186631  1  0  0.235733  0  3.824234  0  0  0.209537  0  4.106626  0  0  0.219484  0  4.120457  0  0  0.062874  0.202578  0  4.097538  0
C  C11  1  0.72528197  0.48341001  0.61812534  1  0  0.235487  0  3.824862  0  0  0.209266  0  4.107168  0  0  0.219237  0  4.121006  0  0  0.062719  0.202329  0  4.098104  0
C  C12  1  0.39297906  0.36996655  0.36357146  1  0  -0.341134  0  3.724771  0  0  -0.329659  0  3.994137  0  0  -0.336099  0  4.008923  0  0  -0.04732  -0.325619  0  3.985097  0
C  C13  1  0.60699344  0.63002577  0.63640961  1  0  -0.341191  0  3.725432  0  0  -0.329509  0  3.99444  0  0  -0.33602  0  4.009326  0  0  -0.047305  -0.325565  0  3.985522  0
C  C14  1  0.61851101  0.35252686  0.47994052  1  0  0.216369  0  3.825207  0  0  0.192897  0  4.10391  0  0  0.202004  0  4.118357  0  0  0.064904  0.186665  0  4.094266  0
C  C15  1  0.38147568  0.64747718  0.52005334  1  0  0.216165  0  3.825621  0  0  0.192729  0  4.104179  0  0  0.201855  0  4.118641  0  0  0.06485  0.186528  0  4.094556  0
S  S16  1  0.24920215  0.20916829  0.18633322  1  0  1.357021  0  5.628869  0  0  1.261036  0  6.149641  0  0  1.308995  0  6.122797  0  0  0.489217  1.227735  0  6.167541  0
S  S17  1  0.75083164  0.79084479  0.81366720  1  0  1.357095  0  5.629635  0  0  1.261149  0  6.150326  0  0  1.309113  0  6.123489  0  0  0.489296  1.227878  0  6.168247  0
O  O18  1  0.06644547  0.53184526  0.26213480  1  0  -0.560514  0  2.176153  0  0  -0.514449  0  2.408311  0  0  -0.532302  0  2.39795  0  0  -0.401405  -0.501526  0  2.414972  0
O  O19  1  0.93350519  0.46812069  0.73783494  1  0  -0.560704  0  2.175974  0  0  -0.514431  0  2.408377  0  0  -0.532279  0  2.398003  0  0  -0.401279  -0.501508  0  2.415028  0
O  O20  1  0.73917826  0.21313827  0.46804176  1  0  -0.519899  0  2.130319  0  0  -0.472975  0  2.346898  0  0  -0.489474  0  2.336367  0  0  -0.360653  -0.461051  0  2.353882  0
O  O21  1  0.26079882  0.78685543  0.53196869  1  0  -0.519869  0  2.130348  0  0  -0.472959  0  2.347006  0  0  -0.489451  0  2.336462  0  0  -0.360724  -0.461037  0  2.353986  0
O  O22  1  0.25150758  0.32833046  0.05889776  1  0  -0.738265  0  1.986729  0  0  -0.695062  0  2.249255  0  0  -0.715604  0  2.235299  0  0  -0.472014  -0.680666  0  2.258857  0
O  O23  1  0.74851251  0.67171029  0.94109886  1  0  -0.738318  0  1.987119  0  0  -0.695151  0  2.249724  0  0  -0.715688  0  2.235771  0  0  -0.471895  -0.680753  0  2.259323  0
O  O24  1  0.41908491  0.07935735  0.19487576  1  0  -0.719373  0  2.010975  0  0  -0.668562  0  2.263265  0  0  -0.688152  0  2.246642  0  0  -0.411655  -0.654546  0  2.274097  0
O  O25  1  0.58097054  0.92067185  0.80514551  1  0  -0.719557  0  2.010828  0  0  -0.668681  0  2.26303  0  0  -0.688264  0  2.246421  0  0  -0.411657  -0.654646  0  2.273814  0
O  O26  1  0.97738624  0.10078341  0.17859866  1  0  -0.693122  0  2.011831  0  0  -0.642941  0  2.266644  0  0  -0.663345  0  2.25064  0  0  -0.377065  -0.628317  0  2.277216  0
O  O27  1  0.02258081  0.89920875  0.82141432  1  0  -0.692787  0  2.012496  0  0  -0.642861  0  2.267514  0  0  -0.663315  0  2.25165  0  0  -0.37714  -0.628241  0  2.278079  0
O  O28  1  0.79794549  0.77308740  0.29250993  1  0  -0.822497  0  1.857515  0  0  -0.777626  0  2.03369  0  0  -0.796951  0  2.011247  0  0  -0.608601  -0.764078  0  2.050291  0
O  O29  1  0.20205245  0.22690213  0.70748002  1  0  -0.822648  0  1.85772  0  0  -0.777652  0  2.033865  0  0  -0.796982  0  2.011448  0  0  -0.608603  -0.764115  0  2.050459  0
