# generated using pymatgen
data_SnH12C6(SN)2
_symmetry_space_group_name_H-M   'P 1'
_cell_length_a   9.56709006
_cell_length_b   10.24078633
_cell_length_c   11.85560002
_cell_angle_alpha   107.29016605
_cell_angle_beta   96.30839619
_cell_angle_gamma   100.53298068
_symmetry_Int_Tables_number   1
_chemical_formula_structural   SnH12C6(SN)2
_chemical_formula_sum   'Sn4 H48 C24 S8 N8'
_cell_volume   1073.55828229
_cell_formula_units_Z   4
loop_
 _symmetry_equiv_pos_site_id
 _symmetry_equiv_pos_as_xyz
  1  'x, y, z'
loop_
 _atom_site_type_symbol
 _atom_site_label
 _atom_site_symmetry_multiplicity
 _atom_site_fract_x
 _atom_site_fract_y
 _atom_site_fract_z
 _atom_site_occupancy
 _atom_site_pbe_bader_spin_density
 _atom_site_pbe_cm5_charge
 _atom_site_pbe_ddec_charge
 _atom_site_pbe_ddec_spin_density
 _atom_site_pbe_ddec_sum_bond_order
 _atom_site_pbe_magmom
Sn  Sn0  1  0.30646334  0.23686098  0.66850520  1  0  0.4494  1.02318  0  3.439799  0
Sn  Sn1  1  0.69353271  0.76313261  0.33149355  1  0  0.449419  1.023192  0  3.43984  0
Sn  Sn2  1  0.19118170  0.27212888  0.17039293  1  0  0.453843  1.031873  0  3.415651  0
Sn  Sn3  1  0.80881786  0.72787521  0.82960891  1  0  0.453863  1.031899  0  3.41558  0
H  H4  1  0.67340984  0.19431883  0.26256793  1  0  0.081848  0.128371  0  1.068103  0
H  H5  1  0.32659245  0.80567900  0.73742827  1  0  0.081852  0.128381  0  1.068117  0
H  H6  1  0.50832800  0.06804653  0.23195470  1  0  0.088116  0.136975  0  1.052894  0
H  H7  1  0.49167114  0.93195125  0.76804543  1  0  0.088094  0.136938  0  1.052962  0
H  H8  1  0.51345285  0.24806970  0.30279155  1  0  0.099209  0.148161  0  1.019728  0
H  H9  1  0.48654758  0.75192917  0.69720645  1  0  0.099231  0.148173  0  1.019778  0
H  H10  1  0.41226557  0.09678383  0.47553462  1  0  0.080725  0.166321  0  1.036797  0
H  H11  1  0.58773314  0.90320764  0.52446465  1  0  0.080737  0.166289  0  1.036747  0
H  H12  1  0.50297120  0.27851614  0.52577508  1  0  0.075322  0.15796  0  1.06502  0
H  H13  1  0.49702671  0.72147639  0.47422355  1  0  0.07531  0.157936  0  1.065046  0
H  H14  1  0.32389145  0.22272070  0.43854070  1  0  0.085058  0.169418  0  1.081338  0
H  H15  1  0.67610677  0.77726868  0.56145713  1  0  0.085046  0.169354  0  1.081321  0
H  H16  1  0.42737030  0.51060196  0.78622732  1  0  0.080797  0.167901  0  1.069591  0
H  H17  1  0.57262358  0.48939595  0.21376227  1  0  0.080758  0.16787  0  1.069633  0
H  H18  1  0.33163680  0.43843599  0.88230598  1  0  0.084272  0.173613  0  1.052823  0
H  H19  1  0.66835879  0.56156925  0.11768738  1  0  0.084314  0.173717  0  1.05273  0
H  H20  1  0.23551001  0.48874189  0.76829832  1  0  0.07053  0.154242  0  1.096562  0
H  H21  1  0.76448523  0.51125289  0.23168887  1  0  0.070506  0.154231  0  1.096568  0
H  H22  1  0.23036781  0.96781918  0.66032586  1  0  0.075521  0.15224  0  1.088306  0
H  H23  1  0.76963942  0.03218158  0.33969010  1  0  0.075558  0.152241  0  1.088202  0
H  H24  1  0.06933679  0.02286171  0.62403267  1  0  0.082335  0.166772  0  1.044621  0
H  H25  1  0.93066402  0.97712958  0.37598192  1  0  0.08235  0.166806  0  1.044563  0
H  H26  1  0.15637363  0.07107133  0.77785124  1  0  0.084985  0.172663  0  1.049451  0
H  H27  1  0.84363872  0.92893785  0.22216571  1  0  0.084951  0.172688  0  1.049349  0
H  H28  1  0.81895745  0.29003235  0.71832337  1  0  0.087418  0.140371  0  1.042033  0
H  H29  1  0.18103359  0.70996238  0.28166765  1  0  0.087425  0.140338  0  1.042113  0
H  H30  1  0.99782820  0.38833659  0.78308781  1  0  0.100362  0.15322  0  1.004153  0
H  H31  1  0.00215293  0.61166971  0.21690373  1  0  0.100425  0.153336  0  1.004021  0
H  H32  1  0.95944626  0.20164071  0.73289172  1  0  0.105549  0.161705  0  0.992156  0
H  H33  1  0.04055347  0.79836862  0.26711152  1  0  0.105564  0.161747  0  0.992089  0
H  H34  1  0.35108781  0.53666996  0.27990781  1  0  0.077329  0.154621  0  1.085512  0
H  H35  1  0.64891175  0.46333407  0.72009907  1  0  0.077362  0.154664  0  1.085507  0
H  H36  1  0.43608487  0.42176430  0.33666488  1  0  0.083882  0.167439  0  1.052126  0
H  H37  1  0.56391444  0.57823874  0.66333582  1  0  0.08388  0.167467  0  1.052104  0
H  H38  1  0.27822337  0.46668978  0.38942148  1  0  0.073922  0.15077  0  1.10908  0
H  H39  1  0.72177997  0.53330797  0.61058153  1  0  0.07392  0.150786  0  1.109128  0
H  H40  1  0.06419349  0.99550463  0.10109008  1  0  0.083766  0.165487  0  1.051263  0
H  H41  1  0.93582643  0.00449213  0.89890906  1  0  0.083754  0.165453  0  1.051269  0
H  H42  1  0.11751696  0.06220693  0.26105065  1  0  0.084803  0.171954  0  1.061752  0
H  H43  1  0.88249076  0.93779610  0.73895162  1  0  0.084806  0.171962  0  1.061777  0
H  H44  1  0.24866795  0.01882176  0.16714787  1  0  0.07351  0.15381  0  1.094516  0
H  H45  1  0.75135348  0.98119485  0.83286509  1  0  0.073511  0.153826  0  1.094427  0
H  H46  1  0.99908287  0.24606879  0.97316236  1  0  0.078361  0.161068  0  1.060885  0
H  H47  1  0.00092033  0.75393742  0.02683782  1  0  0.078356  0.161081  0  1.060892  0
H  H48  1  0.17940132  0.30721091  0.95165411  1  0  0.085131  0.166531  0  1.095045  0
H  H49  1  0.82060083  0.69279528  0.04834851  1  0  0.085138  0.166536  0  1.095053  0
H  H50  1  0.08939606  0.42635491  0.04438481  1  0  0.081933  0.167183  0  1.03694  0
H  H51  1  0.91060560  0.57364916  0.95561805  1  0  0.081948  0.16721  0  1.036888  0
C  C52  1  0.51939112  0.20691243  0.91403010  1  0  0.112692  0.136667  0  4.150281  0
C  C53  1  0.48060795  0.79308960  0.08596777  1  0  0.112702  0.136775  0  4.150242  0
C  C54  1  0.52545524  0.19405780  0.11572167  1  0  0.127405  0.205358  0  4.004262  0
C  C55  1  0.47454550  0.80593786  0.88427973  1  0  0.127502  0.205397  0  4.004437  0
C  C56  1  0.55636723  0.17559638  0.23474525  1  0  -0.239472  -0.441038  0  3.95128  0
C  C57  1  0.44363376  0.82440038  0.76525224  1  0  -0.239519  -0.441035  0  3.951238  0
C  C58  1  0.39784004  0.20487611  0.50676158  1  0  -0.342079  -0.708648  0  3.733866  0
C  C59  1  0.60215632  0.79511431  0.49323720  1  0  -0.342055  -0.708509  0  3.733803  0
C  C60  1  0.32630529  0.44444251  0.79132897  1  0  -0.340939  -0.716755  0  3.743266  0
C  C61  1  0.67369069  0.55555540  0.20866080  1  0  -0.34093  -0.716857  0  3.743226  0
C  C62  1  0.17301920  0.05256948  0.68506490  1  0  -0.340934  -0.721629  0  3.770185  0
C  C63  1  0.82698519  0.94742815  0.31494830  1  0  -0.340966  -0.721703  0  3.770023  0
C  C64  1  0.97721195  0.30672195  0.39246113  1  0  0.111202  0.12552  0  4.18124  0
C  C65  1  0.02278663  0.69327798  0.60753615  1  0  0.111231  0.12551  0  4.181165  0
C  C66  1  0.96499334  0.29359396  0.59311655  1  0  0.130837  0.208781  0  3.989636  0
C  C67  1  0.03500071  0.70640912  0.40688032  1  0  0.130858  0.208871  0  3.98986  0
C  C68  1  0.93306137  0.29320214  0.71301830  1  0  -0.234711  -0.446812  0  3.946808  0
C  C69  1  0.06693034  0.70679993  0.28697473  1  0  -0.234814  -0.446993  0  3.946725  0
C  C70  1  0.33247374  0.44559676  0.31157556  1  0  -0.339986  -0.720209  0  3.772373  0
C  C71  1  0.66752483  0.55440314  0.68842424  1  0  -0.340018  -0.720319  0  3.772413  0
C  C72  1  0.15132852  0.06035579  0.17547848  1  0  -0.335419  -0.715662  0  3.755886  0
C  C73  1  0.84868600  0.93964931  0.82452661  1  0  -0.335419  -0.715662  0  3.755895  0
C  C74  1  0.10402953  0.31828168  0.01501902  1  0  -0.338883  -0.712842  0  3.743646  0
C  C75  1  0.89597343  0.68172344  0.98498423  1  0  -0.338902  -0.712885  0  3.743566  0
S  S76  1  0.64510081  0.17591828  0.01646053  1  0  0.113199  0.089649  0  2.775276  0
S  S77  1  0.35489135  0.82407217  0.98353537  1  0  0.113173  0.089579  0  2.77527  0
S  S78  1  0.55323374  0.20197296  0.77378647  1  0  -0.144221  -0.36272  0  2.360761  0
S  S79  1  0.44676256  0.79802171  0.22621005  1  0  -0.144212  -0.362723  0  2.360721  0
S  S80  1  0.84940411  0.32676198  0.48815716  1  0  0.120019  0.0916  0  2.775165  0
S  S81  1  0.15059254  0.67324323  0.51183881  1  0  0.119992  0.091594  0  2.775349  0
S  S82  1  0.94693172  0.32084921  0.25209277  1  0  -0.142501  -0.365264  0  2.429718  0
S  S83  1  0.05306864  0.67915386  0.74790633  1  0  -0.142507  -0.365272  0  2.429662  0
N  N84  1  0.40168797  0.23059699  0.95818550  1  0  -0.215077  -0.213209  0  3.295451  0
N  N85  1  0.59830752  0.76939871  0.04181207  1  0  -0.215056  -0.213261  0  3.29536  0
N  N86  1  0.40658943  0.22326727  0.07171732  1  0  -0.196558  -0.191968  0  3.433755  0
N  N87  1  0.59340722  0.77673790  0.92828117  1  0  -0.196632  -0.191956  0  3.433935  0
N  N88  1  0.09394496  0.27891281  0.44263811  1  0  -0.217335  -0.221192  0  3.337748  0
N  N89  1  0.90605028  0.72108188  0.55735664  1  0  -0.217354  -0.221146  0  3.337634  0
N  N90  1  0.08545587  0.27162239  0.55463596  1  0  -0.195173  -0.183475  0  3.445389  0
N  N91  1  0.91453702  0.72837123  0.44535916  1  0  -0.195145  -0.183521  0  3.445467  0
