# generated using pymatgen
data_HgH14C18N4(ClO2)2
_symmetry_space_group_name_H-M   'P 1'
_cell_length_a   8.10882023
_cell_length_b   10.52994634
_cell_length_c   12.04036859
_cell_angle_alpha   90.00017005
_cell_angle_beta   103.01190298
_cell_angle_gamma   89.99993285
_symmetry_Int_Tables_number   1
_chemical_formula_structural   HgH14C18N4(ClO2)2
_chemical_formula_sum   'Hg2 H28 C36 N8 Cl4 O8'
_cell_volume   1001.67470280
_cell_formula_units_Z   2
loop_
 _symmetry_equiv_pos_site_id
 _symmetry_equiv_pos_as_xyz
  1  'x, y, z'
loop_
 _atom_site_type_symbol
 _atom_site_label
 _atom_site_symmetry_multiplicity
 _atom_site_fract_x
 _atom_site_fract_y
 _atom_site_fract_z
 _atom_site_occupancy
 _atom_site_hle17_bader_spin_density
 _atom_site_hle17_ddec_charge
 _atom_site_hle17_ddec_spin_density
 _atom_site_hle17_ddec_sum_bond_order
 _atom_site_hle17_magmom
 _atom_site_hse06_10hf_bader_spin_density
 _atom_site_hse06_10hf_ddec_charge
 _atom_site_hse06_10hf_ddec_spin_density
 _atom_site_hse06_10hf_ddec_sum_bond_order
 _atom_site_hse06_10hf_magmom
 _atom_site_hse06_bader_spin_density
 _atom_site_hse06_ddec_charge
 _atom_site_hse06_ddec_spin_density
 _atom_site_hse06_ddec_sum_bond_order
 _atom_site_hse06_magmom
 _atom_site_pbe_bader_spin_density
 _atom_site_pbe_cm5_charge
 _atom_site_pbe_ddec_charge
 _atom_site_pbe_ddec_spin_density
 _atom_site_pbe_ddec_sum_bond_order
 _atom_site_pbe_magmom
Hg  Hg0  1  0.75000159  0.64173355  0.75000008  1  0  0.768694  0  2.130947  0  0  0.596311  0  2.647111  0  0  0.647034  0  2.611255  0  0  0.525638  0.561598  0  2.670895  0
Hg  Hg1  1  0.24999668  0.35826805  0.24999769  1  0  0.768696  0  2.130846  0  0  0.596307  0  2.647005  0  0  0.647031  0  2.611146  0  0  0.525625  0.561597  0  2.670769  0
H  H2  1  0.22168023  0.38701859  0.89555800  1  0  0.111997  0  0.965355  0  0  0.118674  0  1.03132  0  0  0.122094  0  1.030127  0  0  0.099182  0.116337  0  1.032078  0
H  H3  1  0.27831874  0.38701712  0.60443932  1  0  0.112  0  0.965375  0  0  0.118678  0  1.031335  0  0  0.122106  0  1.030124  0  0  0.099182  0.116337  0  1.0321  0
H  H4  1  0.77831677  0.61298586  0.10444040  1  0  0.111995  0  0.965363  0  0  0.118681  0  1.031326  0  0  0.122105  0  1.030122  0  0  0.099187  0.11634  0  1.032089  0
H  H5  1  0.72168079  0.61298543  0.39556113  1  0  0.111991  0  0.965384  0  0  0.118667  0  1.031343  0  0  0.122092  0  1.03014  0  0  0.099178  0.116328  0  1.032104  0
H  H6  1  0.39288314  0.20369960  0.98947090  1  0  0.109086  0  0.946611  0  0  0.116488  0  1.010408  0  0  0.119633  0  1.007566  0  0  0.108483  0.114136  0  1.012519  0
H  H7  1  0.10711723  0.20369701  0.51052865  1  0  0.109071  0  0.946734  0  0  0.116477  0  1.010516  0  0  0.119624  0  1.007667  0  0  0.108479  0.114124  0  1.012627  0
H  H8  1  0.60711260  0.79630295  0.01052898  1  0  0.109109  0  0.946604  0  0  0.116511  0  1.010398  0  0  0.11966  0  1.007547  0  0  0.108485  0.114159  0  1.012513  0
H  H9  1  0.89288357  0.79630364  0.48947365  1  0  0.109103  0  0.946613  0  0  0.116493  0  1.010419  0  0  0.119645  0  1.00756  0  0  0.108491  0.114142  0  1.012538  0
H  H10  1  0.69902358  0.18826347  0.97801531  1  0  0.113421  0  0.934723  0  0  0.122658  0  0.993627  0  0  0.125803  0  0.992859  0  0  0.108531  0.120265  0  0.994675  0
H  H11  1  0.80097485  0.18826265  0.52198378  1  0  0.113398  0  0.934725  0  0  0.122633  0  0.993637  0  0  0.125778  0  0.99287  0  0  0.108512  0.12024  0  0.994681  0
H  H12  1  0.30097089  0.81173718  0.02198604  1  0  0.113407  0  0.934683  0  0  0.122638  0  0.993598  0  0  0.125783  0  0.99283  0  0  0.108522  0.120244  0  0.994642  0
H  H13  1  0.19902595  0.81173895  0.47801769  1  0  0.113399  0  0.934756  0  0  0.122637  0  0.993655  0  0  0.125782  0  0.992887  0  0  0.108521  0.120243  0  0.994699  0
H  H14  1  0.81888033  0.35968007  0.87553294  1  0  0.078524  0  0.953481  0  0  0.08574  0  1.019911  0  0  0.087947  0  1.018288  0  0  0.104539  0.084035  0  1.021249  0
H  H15  1  0.68111925  0.35968065  0.62446760  1  0  0.078549  0  0.953473  0  0  0.085769  0  1.019892  0  0  0.087976  0  1.018269  0  0  0.104563  0.084057  0  1.02124  0
H  H16  1  0.18112047  0.64031868  0.12447186  1  0  0.078562  0  0.953511  0  0  0.085798  0  1.019897  0  0  0.088004  0  1.018275  0  0  0.104583  0.084094  0  1.021234  0
H  H17  1  0.31888029  0.64031905  0.37553534  1  0  0.07849  0  0.953463  0  0  0.085701  0  1.019913  0  0  0.087906  0  1.018294  0  0  0.104513  0.084013  0  1.021232  0
H  H18  1  0.43183841  0.12637464  0.57024689  1  0  0.108645  0  0.957733  0  0  0.125407  0  1.019076  0  0  0.126718  0  1.017687  0  0  0.096921  0.124285  0  1.020339  0
H  H19  1  0.06816581  0.12637446  0.92975720  1  0  0.108785  0  0.957538  0  0  0.125431  0  1.019012  0  0  0.126738  0  1.017628  0  0  0.096949  0.12431  0  1.020271  0
H  H20  1  0.56816745  0.87362981  0.42975286  1  0  0.108628  0  0.957825  0  0  0.125447  0  1.019094  0  0  0.126726  0  1.017735  0  0  0.09693  0.124324  0  1.020361  0
H  H21  1  0.93183119  0.87362714  0.07024536  1  0  0.108746  0  0.957559  0  0  0.125416  0  1.019005  0  0  0.126724  0  1.017619  0  0  0.096953  0.124292  0  1.020274  0
H  H22  1  0.61833751  0.06443898  0.66639433  1  0  0.100631  0  0.940094  0  0  0.116532  0  1.006682  0  0  0.117176  0  1.005848  0  0  0.104801  0.115837  0  1.007428  0
H  H23  1  0.88166481  0.06444010  0.83360918  1  0  0.100664  0  0.940058  0  0  0.11654  0  1.00665  0  0  0.117183  0  1.005816  0  0  0.104808  0.115852  0  1.007397  0
H  H24  1  0.38166202  0.93555882  0.33360613  1  0  0.100635  0  0.940106  0  0  0.116511  0  1.006722  0  0  0.117155  0  1.005884  0  0  0.104792  0.115816  0  1.007467  0
H  H25  1  0.11833346  0.93555770  0.16639108  1  0  0.100686  0  0.940037  0  0  0.116556  0  1.00665  0  0  0.117199  0  1.005816  0  0  0.104811  0.115861  0  1.007395  0
H  H26  1  0.47759196  0.16827822  0.71917530  1  0  0.086083  0  0.955905  0  0  0.102136  0  1.023289  0  0  0.10149  0  1.025255  0  0  0.09549  0.102609  0  1.021659  0
H  H27  1  0.02241097  0.16828043  0.78082952  1  0  0.086097  0  0.95592  0  0  0.102183  0  1.023252  0  0  0.101537  0  1.025216  0  0  0.095494  0.102658  0  1.021617  0
H  H28  1  0.52240885  0.83171863  0.28082534  1  0  0.086148  0  0.95584  0  0  0.102179  0  1.02326  0  0  0.101535  0  1.02522  0  0  0.095505  0.102653  0  1.021627  0
H  H29  1  0.97758983  0.83171832  0.21917112  1  0  0.086045  0  0.955955  0  0  0.102133  0  1.02329  0  0  0.101487  0  1.025255  0  0  0.095481  0.102604  0  1.021658  0
C  C30  1  0.33921646  0.79899952  0.76691229  1  0  0.064707  0  3.726521  0  0  0.053565  0  3.990448  0  0  0.054916  0  4.004905  0  0  0.132304  0.052338  0  3.980589  0
C  C31  1  0.16078476  0.79900050  0.73308644  1  0  0.064786  0  3.726416  0  0  0.053646  0  3.990356  0  0  0.054996  0  4.004813  0  0  0.132311  0.052411  0  3.980509  0
C  C32  1  0.66078308  0.20100018  0.23308318  1  0  0.064593  0  3.726446  0  0  0.053696  0  3.990199  0  0  0.055047  0  4.004654  0  0  0.132333  0.052446  0  3.980378  0
C  C33  1  0.83921731  0.20099825  0.26691523  1  0  0.064632  0  3.726519  0  0  0.053559  0  3.990399  0  0  0.054911  0  4.004857  0  0  0.132322  0.052335  0  3.980542  0
C  C34  1  0.33580184  0.58009340  0.78052917  1  0  0.128776  0  3.698878  0  0  0.119391  0  3.948633  0  0  0.124581  0  3.964551  0  0  0.139189  0.115279  0  3.938383  0
C  C35  1  0.16419826  0.58009432  0.71946550  1  0  0.129082  0  3.698702  0  0  0.119694  0  3.948476  0  0  0.124878  0  3.964385  0  0  0.139263  0.115573  0  3.938233  0
C  C36  1  0.66420022  0.41990630  0.21946585  1  0  0.128956  0  3.698794  0  0  0.119551  0  3.948574  0  0  0.124736  0  3.964479  0  0  0.139247  0.11544  0  3.93833  0
C  C37  1  0.83580127  0.41990538  0.28053578  1  0  0.129049  0  3.698641  0  0  0.119661  0  3.948425  0  0  0.124853  0  3.964321  0  0  0.139253  0.115545  0  3.938184  0
C  C38  1  0.42955063  0.46596941  0.83190210  1  0  0.179152  0  3.77345  0  0  0.177507  0  4.015501  0  0  0.183036  0  4.036961  0  0  0.117724  0.173755  0  4.001218  0
C  C39  1  0.07044828  0.46597024  0.66809542  1  0  0.179026  0  3.773475  0  0  0.177346  0  4.015603  0  0  0.18288  0  4.037059  0  0  0.117749  0.173599  0  4.001314  0
C  C40  1  0.57044890  0.53402839  0.16809586  1  0  0.17903  0  3.773486  0  0  0.177432  0  4.015508  0  0  0.182966  0  4.036961  0  0  0.117771  0.173671  0  4.001235  0
C  C41  1  0.92955252  0.53403041  0.33190523  1  0  0.178996  0  3.773463  0  0  0.17734  0  4.015542  0  0  0.182873  0  4.036998  0  0  0.117723  0.173588  0  4.001258  0
C  C42  1  0.35249831  0.37530811  0.88862820  1  0  -0.143172  0  3.693448  0  0  -0.163247  0  3.941731  0  0  -0.170072  0  3.963502  0  0  -0.08286  -0.158885  0  3.927015  0
C  C43  1  0.14750067  0.37530963  0.61136909  1  0  -0.143134  0  3.693422  0  0  -0.163213  0  3.941744  0  0  -0.170031  0  3.963503  0  0  -0.082847  -0.158847  0  3.927031  0
C  C44  1  0.64750122  0.62469064  0.11137142  1  0  -0.14312  0  3.693496  0  0  -0.16324  0  3.941809  0  0  -0.170067  0  3.963583  0  0  -0.082886  -0.158877  0  3.9271  0
C  C45  1  0.85249887  0.62469007  0.38863136  1  0  -0.143118  0  3.693436  0  0  -0.1632  0  3.94173  0  0  -0.170019  0  3.963489  0  0  -0.082853  -0.158833  0  3.92702  0
C  C46  1  0.44853508  0.27343109  0.94181760  1  0  0.008779  0  3.692327  0  0  -0.010714  0  3.945228  0  0  -0.007332  0  3.962625  0  0  -0.064441  -0.012597  0  3.933428  0
C  C47  1  0.05146524  0.27342872  0.55818213  1  0  0.008772  0  3.692428  0  0  -0.010713  0  3.945318  0  0  -0.007329  0  3.962721  0  0  -0.064432  -0.012598  0  3.933514  0
C  C48  1  0.55146572  0.72657051  0.05818554  1  0  0.008759  0  3.692385  0  0  -0.010723  0  3.94529  0  0  -0.007345  0  3.962696  0  0  -0.064416  -0.0126  0  3.933488  0
C  C49  1  0.94853303  0.72657193  0.44181730  1  0  0.008714  0  3.692358  0  0  -0.010757  0  3.945246  0  0  -0.007374  0  3.962651  0  0  -0.064442  -0.012644  0  3.93345  0
C  C50  1  0.61847447  0.26538633  0.93675175  1  0  -0.10558  0  3.701646  0  0  -0.12103  0  3.956716  0  0  -0.127116  0  3.977382  0  0  -0.08074  -0.117525  0  3.943322  0
C  C51  1  0.88152518  0.26538558  0.56324856  1  0  -0.105549  0  3.70172  0  0  -0.121005  0  3.956791  0  0  -0.127094  0  3.977459  0  0  -0.080741  -0.1175  0  3.943386  0
C  C52  1  0.38152380  0.73461432  0.06324851  1  0  -0.105535  0  3.701723  0  0  -0.120979  0  3.956782  0  0  -0.127065  0  3.977449  0  0  -0.080743  -0.117481  0  3.943384  0
C  C53  1  0.11847436  0.73461602  0.43675522  1  0  -0.105525  0  3.701699  0  0  -0.120962  0  3.956754  0  0  -0.127051  0  3.977421  0  0  -0.080742  -0.11746  0  3.943357  0
C  C54  1  0.68578111  0.36032876  0.87927526  1  0  0.120471  0  3.726567  0  0  0.090875  0  3.983844  0  0  0.097199  0  4.002418  0  0  0.041779  0.086873  0  3.971027  0
C  C55  1  0.81421720  0.36032921  0.62072259  1  0  0.120467  0  3.726583  0  0  0.090875  0  3.983859  0  0  0.097197  0  4.002436  0  0  0.041798  0.086879  0  3.971041  0
C  C56  1  0.31421843  0.63967094  0.12072602  1  0  0.120361  0  3.726711  0  0  0.09077  0  3.983955  0  0  0.097094  0  4.002529  0  0  0.041732  0.086771  0  3.971132  0
C  C57  1  0.18578233  0.63967144  0.37927952  1  0  0.120492  0  3.726523  0  0  0.090867  0  3.983863  0  0  0.09719  0  4.002441  0  0  0.041811  0.086856  0  3.971031  0
C  C58  1  0.44804607  0.91443311  0.76761101  1  0  0.564357  0  3.819897  0  0  0.509899  0  4.127188  0  0  0.542508  0  4.117538  0  0  0.237845  0.487724  0  4.133229  0
C  C59  1  0.05195507  0.91443418  0.73238967  1  0  0.564218  0  3.819928  0  0  0.50973  0  4.127266  0  0  0.542337  0  4.117619  0  0  0.237767  0.487555  0  4.133313  0
C  C60  1  0.55195220  0.08556374  0.23237845  1  0  0.56456  0  3.819489  0  0  0.50971  0  4.127284  0  0  0.542318  0  4.117643  0  0  0.23776  0.487529  0  4.133333  0
C  C61  1  0.94804954  0.08556267  0.26761653  1  0  0.564346  0  3.819836  0  0  0.509652  0  4.127459  0  0  0.542248  0  4.117827  0  0  0.237772  0.487475  0  4.1335  0
C  C62  1  0.48602074  0.09380005  0.65698230  1  0  -0.072288  0  3.571214  0  0  -0.168415  0  3.828118  0  0  -0.160675  0  3.831046  0  0  -0.143128  -0.173366  0  3.825839  0
C  C63  1  0.01398351  0.09379962  0.84302171  1  0  -0.072515  0  3.571201  0  0  -0.168558  0  3.828144  0  0  -0.160822  0  3.831079  0  0  -0.143196  -0.173521  0  3.825882  0
C  C64  1  0.51397879  0.90619870  0.34301732  1  0  -0.072402  0  3.57113  0  0  -0.168539  0  3.828015  0  0  -0.160771  0  3.830972  0  0  -0.143165  -0.173491  0  3.82574  0
C  C65  1  0.98601603  0.90619913  0.15698040  1  0  -0.072423  0  3.57117  0  0  -0.168486  0  3.828096  0  0  -0.160751  0  3.831029  0  0  -0.143155  -0.173434  0  3.825822  0
N  N66  1  0.42014487  0.68998189  0.79602763  1  0  -0.268775  0  3.180416  0  0  -0.231213  0  3.443792  0  0  -0.243191  0  3.461837  0  0  -0.271901  -0.221948  0  3.431045  0
N  N67  1  0.07985642  0.68998188  0.70396834  1  0  -0.268847  0  3.180325  0  0  -0.231289  0  3.44371  0  0  -0.243263  0  3.461752  0  0  -0.27193  -0.222023  0  3.430973  0
N  N68  1  0.57985720  0.31001781  0.20396490  1  0  -0.268836  0  3.180433  0  0  -0.23133  0  3.443763  0  0  -0.243303  0  3.4618  0  0  -0.271946  -0.222063  0  3.431026  0
N  N69  1  0.92014185  0.31001687  0.29603358  1  0  -0.268847  0  3.180389  0  0  -0.231328  0  3.44379  0  0  -0.243301  0  3.461827  0  0  -0.271954  -0.222066  0  3.431048  0
N  N70  1  0.59400527  0.45816872  0.82762793  1  0  -0.328054  0  3.197254  0  0  -0.267438  0  3.458057  0  0  -0.285453  0  3.477649  0  0  -0.304825  -0.254933  0  3.444402  0
N  N71  1  0.90599298  0.45817211  0.67236851  1  0  -0.328061  0  3.197289  0  0  -0.267443  0  3.458114  0  0  -0.285456  0  3.477704  0  0  -0.304891  -0.254938  0  3.444457  0
N  N72  1  0.40599554  0.54183003  0.17237188  1  0  -0.328001  0  3.197218  0  0  -0.267411  0  3.45802  0  0  -0.285428  0  3.477611  0  0  -0.304859  -0.254902  0  3.444363  0
N  N73  1  0.09400783  0.54182854  0.32763297  1  0  -0.327992  0  3.197251  0  0  -0.267356  0  3.458061  0  0  -0.285373  0  3.477654  0  0  -0.304833  -0.254853  0  3.444413  0
Cl  Cl74  1  0.93257069  0.68352887  0.93261977  1  0  -0.475611  0  0.998447  0  0  -0.418997  0  1.278576  0  0  -0.436774  0  1.261272  0  0  -0.269772  -0.406675  0  1.290482  0
Cl  Cl75  1  0.56744005  0.68353601  0.56737914  1  0  -0.475619  0  0.998498  0  0  -0.418998  0  1.278583  0  0  -0.436777  0  1.261273  0  0  -0.269773  -0.406685  0  1.29051  0
Cl  Cl76  1  0.06743644  0.31647463  0.06737602  1  0  -0.475615  0  0.998443  0  0  -0.418983  0  1.278546  0  0  -0.436758  0  1.261243  0  0  -0.269762  -0.406667  0  1.290444  0
Cl  Cl77  1  0.43256328  0.31646939  0.43262022  1  0  -0.475622  0  0.998428  0  0  -0.418995  0  1.278511  0  0  -0.436777  0  1.261207  0  0  -0.269783  -0.406686  0  1.290424  0
O  O78  1  0.57747612  0.93678752  0.83906007  1  0  -0.488947  0  1.922202  0  0  -0.452707  0  2.132376  0  0  -0.471303  0  2.124882  0  0  -0.265002  -0.439808  0  2.137368  0
O  O79  1  0.92251926  0.93678516  0.66094548  1  0  -0.488892  0  1.922234  0  0  -0.452624  0  2.132385  0  0  -0.471222  0  2.124897  0  0  -0.264959  -0.439718  0  2.137373  0
O  O80  1  0.42252341  0.06320933  0.16093290  1  0  -0.488912  0  1.922205  0  0  -0.452497  0  2.13251  0  0  -0.471088  0  2.125011  0  0  -0.264858  -0.439596  0  2.137498  0
O  O81  1  0.07748281  0.06321264  0.33906034  1  0  -0.488858  0  1.922329  0  0  -0.452537  0  2.13261  0  0  -0.471132  0  2.125129  0  0  -0.264936  -0.439637  0  2.137596  0
O  O82  1  0.38448592  0.98549697  0.67479822  1  0  -0.27663  0  2.295885  0  0  -0.203359  0  2.535311  0  0  -0.224799  0  2.533667  0  0  -0.166954  -0.188607  0  2.535651  0
O  O83  1  0.11551896  0.98549830  0.82520404  1  0  -0.276561  0  2.296002  0  0  -0.203238  0  2.535373  0  0  -0.224672  0  2.53372  0  0  -0.166905  -0.188497  0  2.535722  0
O  O84  1  0.61551361  0.01450462  0.32519807  1  0  -0.276702  0  2.295589  0  0  -0.203324  0  2.535135  0  0  -0.224775  0  2.533489  0  0  -0.167004  -0.188569  0  2.535473  0
O  O85  1  0.88448184  0.01450140  0.17479910  1  0  -0.276625  0  2.295849  0  0  -0.203246  0  2.535291  0  0  -0.224677  0  2.533644  0  0  -0.166963  -0.188502  0  2.535635  0
