# generated using pymatgen
data_BaH12C14(NO5)2
_symmetry_space_group_name_H-M   'P 1'
_cell_length_a   7.16311656
_cell_length_b   10.46788775
_cell_length_c   11.14075251
_cell_angle_alpha   89.92767436
_cell_angle_beta   85.02722830
_cell_angle_gamma   82.55082227
_symmetry_Int_Tables_number   1
_chemical_formula_structural   BaH12C14(NO5)2
_chemical_formula_sum   'Ba2 H24 C28 N4 O20'
_cell_volume   825.15359642
_cell_formula_units_Z   2
loop_
 _symmetry_equiv_pos_site_id
 _symmetry_equiv_pos_as_xyz
  1  'x, y, z'
loop_
 _atom_site_type_symbol
 _atom_site_label
 _atom_site_symmetry_multiplicity
 _atom_site_fract_x
 _atom_site_fract_y
 _atom_site_fract_z
 _atom_site_occupancy
 _atom_site_hle17_bader_spin_density
 _atom_site_hle17_ddec_charge
 _atom_site_hle17_ddec_spin_density
 _atom_site_hle17_ddec_sum_bond_order
 _atom_site_hle17_magmom
 _atom_site_hse06_10hf_bader_spin_density
 _atom_site_hse06_10hf_ddec_charge
 _atom_site_hse06_10hf_ddec_spin_density
 _atom_site_hse06_10hf_ddec_sum_bond_order
 _atom_site_hse06_10hf_magmom
 _atom_site_hse06_bader_spin_density
 _atom_site_hse06_ddec_charge
 _atom_site_hse06_ddec_spin_density
 _atom_site_hse06_ddec_sum_bond_order
 _atom_site_hse06_magmom
 _atom_site_pbe_bader_spin_density
 _atom_site_pbe_cm5_charge
 _atom_site_pbe_ddec_charge
 _atom_site_pbe_ddec_spin_density
 _atom_site_pbe_ddec_sum_bond_order
 _atom_site_pbe_magmom
Ba  Ba0  1  0.26522135  0.95417619  0.75287235  1  0  1.633725  0  1.101715  0  0  1.466024  0  1.500383  0  0  1.507826  0  1.454276  0  0  0.928621  1.435575  0  1.532744  0
Ba  Ba1  1  0.73477407  0.04582328  0.24713142  1  0  1.633694  0  1.101737  0  0  1.466011  0  1.500399  0  0  1.507819  0  1.454292  0  0  0.928608  1.435554  0  1.532758  0
H  H2  1  0.30920939  0.02573248  0.44433509  1  0  0.407703  0  0.895761  0  0  0.375614  0  0.972701  0  0  0.389695  0  0.953135  0  0  0.312227  0.36572  0  0.983438  0
H  H3  1  0.69078590  0.97426696  0.55566241  1  0  0.407651  0  0.895805  0  0  0.375557  0  0.972782  0  0  0.389641  0  0.953212  0  0  0.312223  0.365669  0  0.983494  0
H  H4  1  0.16676539  0.05952258  0.05203486  1  0  0.402123  0  0.903846  0  0  0.369379  0  0.983318  0  0  0.38344  0  0.963839  0  0  0.310598  0.359585  0  0.993252  0
H  H5  1  0.83323878  0.94047500  0.94796657  1  0  0.402087  0  0.903862  0  0  0.369371  0  0.983285  0  0  0.38343  0  0.963844  0  0  0.310597  0.359577  0  0.99322  0
H  H6  1  0.00850708  0.72565554  0.69047835  1  0  0.416798  0  0.88536  0  0  0.388989  0  0.944323  0  0  0.398548  0  0.930336  0  0  0.295366  0.382263  0  0.954154  0
H  H7  1  0.99149586  0.27434781  0.30952043  1  0  0.416848  0  0.885299  0  0  0.389036  0  0.944274  0  0  0.398597  0  0.930282  0  0  0.295398  0.382309  0  0.954106  0
H  H8  1  0.97985298  0.72263764  0.83169313  1  0  0.414908  0  0.885811  0  0  0.383715  0  0.950638  0  0  0.394509  0  0.934747  0  0  0.290811  0.376057  0  0.961914  0
H  H9  1  0.02015434  0.27736477  0.16830447  1  0  0.414939  0  0.885748  0  0  0.383723  0  0.950617  0  0  0.394519  0  0.934723  0  0  0.290778  0.376064  0  0.961894  0
H  H10  1  0.64597711  0.74675134  0.82522817  1  0  0.416504  0  0.882394  0  0  0.388788  0  0.941255  0  0  0.398503  0  0.926858  0  0  0.296745  0.381977  0  0.951325  0
H  H11  1  0.35401607  0.25325196  0.17477303  1  0  0.416523  0  0.882385  0  0  0.388814  0  0.941228  0  0  0.398529  0  0.926831  0  0  0.296763  0.382004  0  0.951295  0
H  H12  1  0.67808430  0.75823623  0.68414446  1  0  0.416521  0  0.88608  0  0  0.384067  0  0.953022  0  0  0.395406  0  0.936255  0  0  0.290245  0.376018  0  0.964912  0
H  H13  1  0.32190747  0.24176706  0.31585593  1  0  0.416483  0  0.886114  0  0  0.38404  0  0.95304  0  0  0.395379  0  0.936273  0  0  0.290275  0.375989  0  0.964932  0
H  H14  1  0.97474192  0.46896888  0.58251681  1  0  0.110779  0  0.968827  0  0  0.116907  0  1.036458  0  0  0.121023  0  1.033389  0  0  0.107704  0.113911  0  1.038829  0
H  H15  1  0.02524579  0.53104117  0.41748918  1  0  0.110803  0  0.968739  0  0  0.116906  0  1.036409  0  0  0.121024  0  1.033336  0  0  0.107694  0.113913  0  1.038781  0
H  H16  1  0.79162548  0.54697843  0.77546087  1  0  0.105577  0  0.961948  0  0  0.115133  0  1.021193  0  0  0.118452  0  1.018765  0  0  0.112853  0.112701  0  1.023107  0
H  H17  1  0.20837646  0.45301726  0.22454969  1  0  0.105613  0  0.96185  0  0  0.115134  0  1.021151  0  0  0.11846  0  1.018707  0  0  0.112857  0.112692  0  1.023091  0
H  H18  1  0.71456786  0.38490574  0.93265269  1  0  0.117698  0  0.936539  0  0  0.126289  0  0.998252  0  0  0.13019  0  0.995692  0  0  0.115768  0.123435  0  1.000197  0
H  H19  1  0.28544159  0.61509382  0.06735198  1  0  0.11766  0  0.936498  0  0  0.126256  0  0.998224  0  0  0.13016  0  0.995664  0  0  0.115781  0.123407  0  1.000169  0
H  H20  1  0.23754154  0.50558486  0.89169147  1  0  0.119904  0  0.93587  0  0  0.128774  0  0.996004  0  0  0.132652  0  0.993532  0  0  0.116559  0.125827  0  0.998214  0
H  H21  1  0.76246333  0.49441559  0.10830450  1  0  0.119908  0  0.935835  0  0  0.128758  0  0.995997  0  0  0.132636  0  0.993525  0  0  0.116537  0.125811  0  0.998206  0
H  H22  1  0.37533949  0.58420153  0.69546407  1  0  0.117165  0  0.943079  0  0  0.124417  0  1.005  0  0  0.128433  0  1.001559  0  0  0.119437  0.121424  0  1.007699  0
H  H23  1  0.62466278  0.41579795  0.30453208  1  0  0.117169  0  0.943043  0  0  0.124415  0  1.004959  0  0  0.128432  0  1.001518  0  0  0.119453  0.121422  0  1.007658  0
H  H24  1  0.54613132  0.41706286  0.54402463  1  0  0.111086  0  0.954007  0  0  0.121091  0  1.013832  0  0  0.124451  0  1.012002  0  0  0.11334  0.1187  0  1.01509  0
H  H25  1  0.45386474  0.58293171  0.45596298  1  0  0.111128  0  0.954086  0  0  0.121154  0  1.013858  0  0  0.124513  0  1.012034  0  0  0.113353  0.118761  0  1.015119  0
C  C26  1  0.12120469  0.21551051  0.52617829  1  0  0.648132  0  3.876241  0  0  0.590203  0  4.181324  0  0  0.623867  0  4.172586  0  0  0.232505  0.567471  0  4.18651  0
C  C27  1  0.87879466  0.78448993  0.47382163  1  0  0.648026  0  3.876249  0  0  0.590048  0  4.181368  0  0  0.62371  0  4.172635  0  0  0.232475  0.567317  0  4.186555  0
C  C28  1  0.00260699  0.26958089  0.63798899  1  0  0.090997  0  3.754914  0  0  0.097865  0  4.004926  0  0  0.09689  0  4.024938  0  0  0.116373  0.098333  0  3.991431  0
C  C29  1  0.99738302  0.73042433  0.36201330  1  0  0.090973  0  3.755074  0  0  0.09795  0  4.004962  0  0  0.096978  0  4.024967  0  0  0.11639  0.098417  0  3.991466  0
C  C30  1  0.94114271  0.40137670  0.65267858  1  0  -0.093879  0  3.672794  0  0  -0.120891  0  3.924917  0  0  -0.124021  0  3.944563  0  0  -0.068737  -0.118755  0  3.911748  0
C  C31  1  0.05883821  0.59862459  0.34732073  1  0  -0.09393  0  3.672766  0  0  -0.120951  0  3.924871  0  0  -0.12408  0  3.944514  0  0  -0.068782  -0.118819  0  3.911705  0
C  C32  1  0.83925596  0.44506287  0.76022254  1  0  -0.002246  0  3.692787  0  0  -0.016567  0  3.944196  0  0  -0.016003  0  3.963166  0  0  -0.063118  -0.016894  0  3.931417  0
C  C33  1  0.16073565  0.55493465  0.23978149  1  0  -0.002257  0  3.692547  0  0  -0.016557  0  3.94398  0  0  -0.015991  0  3.962953  0  0  -0.063111  -0.016887  0  3.93119  0
C  C34  1  0.79644812  0.35611003  0.84799580  1  0  -0.091772  0  3.674218  0  0  -0.121508  0  3.929173  0  0  -0.124219  0  3.948937  0  0  -0.067553  -0.119426  0  3.915537  0
C  C35  1  0.20354405  0.64389134  0.15200547  1  0  -0.091583  0  3.674008  0  0  -0.121358  0  3.928967  0  0  -0.124071  0  3.948733  0  0  -0.067486  -0.119295  0  3.915361  0
C  C36  1  0.85898455  0.22589231  0.82413106  1  0  0.085193  0  3.777831  0  0  0.091298  0  4.027611  0  0  0.090029  0  4.047049  0  0  0.117329  0.091991  0  4.014395  0
C  C37  1  0.14101521  0.77410621  0.17586975  1  0  0.084994  0  3.77801  0  0  0.091175  0  4.027741  0  0  0.089905  0  4.047176  0  0  0.117269  0.091869  0  4.014518  0
C  C38  1  0.81155315  0.12616595  0.91443348  1  0  0.65109  0  3.801308  0  0  0.597557  0  4.102609  0  0  0.631564  0  4.092126  0  0  0.249418  0.574434  0  4.109198  0
C  C39  1  0.18844905  0.87382778  0.08557080  1  0  0.651088  0  3.801278  0  0  0.597524  0  4.102591  0  0  0.631533  0  4.092105  0  0  0.249354  0.574401  0  4.109178  0
C  C40  1  0.24237440  0.24986922  0.95917341  1  0  0.649006  0  3.877713  0  0  0.593153  0  4.18055  0  0  0.626704  0  4.172032  0  0  0.231725  0.570551  0  4.185467  0
C  C41  1  0.75762794  0.75013027  0.04082633  1  0  0.648905  0  3.878025  0  0  0.593084  0  4.180778  0  0  0.626635  0  4.172259  0  0  0.231655  0.570492  0  4.18568  0
C  C42  1  0.32360373  0.30529535  0.84373374  1  0  0.09136  0  3.749154  0  0  0.097304  0  4.000208  0  0  0.096074  0  4.020387  0  0  0.118657  0.097708  0  3.986871  0
C  C43  1  0.67639439  0.69470411  0.15626537  1  0  0.091344  0  3.749438  0  0  0.097323  0  4.000418  0  0  0.096095  0  4.020595  0  0  0.118634  0.097723  0  3.987074  0
C  C44  1  0.30984538  0.43811308  0.82340680  1  0  -0.08537  0  3.657095  0  0  -0.110132  0  3.905356  0  0  -0.112412  0  3.924395  0  0  -0.062192  -0.108658  0  3.893042  0
C  C45  1  0.69015915  0.56188931  0.17659188  1  0  -0.085446  0  3.657062  0  0  -0.110214  0  3.905289  0  0  -0.112495  0  3.92433  0  0  -0.062199  -0.108737  0  3.89297  0
C  C46  1  0.38593521  0.48123698  0.71349218  1  0  -0.008204  0  3.679431  0  0  -0.023429  0  3.931318  0  0  -0.023116  0  3.948918  0  0  -0.058621  -0.023506  0  3.919608  0
C  C47  1  0.61406966  0.51876347  0.28650380  1  0  -0.008024  0  3.679275  0  0  -0.023218  0  3.931093  0  0  -0.022904  0  3.948693  0  0  -0.058558  -0.023293  0  3.919377  0
C  C48  1  0.47830653  0.39029933  0.62980588  1  0  -0.092658  0  3.684747  0  0  -0.117481  0  3.93202  0  0  -0.120025  0  3.952233  0  0  -0.066267  -0.115659  0  3.918342  0
C  C49  1  0.52169686  0.60970109  0.37018570  1  0  -0.092919  0  3.684962  0  0  -0.117767  0  3.932195  0  0  -0.120316  0  3.952404  0  0  -0.066362  -0.115944  0  3.918515  0
C  C50  1  0.48801022  0.25979911  0.65845125  1  0  0.077957  0  3.790284  0  0  0.084899  0  4.038138  0  0  0.082979  0  4.058793  0  0  0.114013  0.085979  0  4.024297  0
C  C51  1  0.51199439  0.74020229  0.34154115  1  0  0.078199  0  3.7904  0  0  0.085186  0  4.038175  0  0  0.083273  0  4.058854  0  0  0.114187  0.086261  0  4.024315  0
C  C52  1  0.59270551  0.15902297  0.57315763  1  0  0.645933  0  3.806769  0  0  0.590289  0  4.112324  0  0  0.624037  0  4.103032  0  0  0.244809  0.567363  0  4.118158  0
C  C53  1  0.40729977  0.84097556  0.42683923  1  0  0.645763  0  3.806719  0  0  0.590074  0  4.112345  0  0  0.623784  0  4.103097  0  0  0.244751  0.567173  0  4.118139  0
N  N54  1  0.96392668  0.18357218  0.72297487  1  0  -0.354312  0  3.171698  0  0  -0.323965  0  3.429368  0  0  -0.333135  0  3.447029  0  0  -0.328996  -0.317508  0  3.417407  0
N  N55  1  0.03607028  0.81642633  0.27702612  1  0  -0.354149  0  3.17168  0  0  -0.323879  0  3.429329  0  0  -0.333047  0  3.446984  0  0  -0.328919  -0.31742  0  3.417364  0
N  N56  1  0.40844522  0.21782192  0.76190263  1  0  -0.355231  0  3.182495  0  0  -0.323859  0  3.439318  0  0  -0.333401  0  3.458659  0  0  -0.326089  -0.317137  0  3.426459  0
N  N57  1  0.59155258  0.78217848  0.23809021  1  0  -0.355319  0  3.182864  0  0  -0.323986  0  3.439645  0  0  -0.333527  0  3.458982  0  0  -0.32618  -0.31726  0  3.426782  0
O  O58  1  0.20158838  0.09977705  0.53574895  1  0  -0.654674  0  2.113171  0  0  -0.5932  0  2.3501  0  0  -0.620068  0  2.338995  0  0  -0.325576  -0.574502  0  2.356308  0
O  O59  1  0.79841963  0.90022923  0.46425217  1  0  -0.654583  0  2.113049  0  0  -0.593113  0  2.350007  0  0  -0.619987  0  2.338909  0  0  -0.325604  -0.574417  0  2.356208  0
O  O60  1  0.13616421  0.28566687  0.43447466  1  0  -0.62631  0  1.980013  0  0  -0.563491  0  2.196087  0  0  -0.587915  0  2.185793  0  0  -0.299685  -0.546491  0  2.202677  0
O  O61  1  0.86383409  0.71433939  0.56553158  1  0  -0.626308  0  1.980018  0  0  -0.563478  0  2.196106  0  0  -0.587899  0  2.185813  0  0  -0.299682  -0.546482  0  2.202698  0
O  O62  1  0.87520132  0.00675675  0.87954983  1  0  -0.585028  0  2.14338  0  0  -0.531015  0  2.377772  0  0  -0.554771  0  2.358943  0  0  -0.324051  -0.514547  0  2.387886  0
O  O63  1  0.12480285  0.99324083  0.12045160  1  0  -0.585115  0  2.143359  0  0  -0.531079  0  2.377775  0  0  -0.554834  0  2.358917  0  0  -0.324072  -0.514609  0  2.38789  0
O  O64  1  0.72106911  0.15691342  0.01235762  1  0  -0.586249  0  1.915028  0  0  -0.532569  0  2.132873  0  0  -0.554941  0  2.124172  0  0  -0.310611  -0.517122  0  2.138508  0
O  O65  1  0.27893634  0.84308515  0.98764731  1  0  -0.586177  0  1.914994  0  0  -0.532473  0  2.132816  0  0  -0.554848  0  2.124121  0  0  -0.310546  -0.517026  0  2.138452  0
O  O66  1  0.22068746  0.13043977  0.95273588  1  0  -0.665068  0  2.132997  0  0  -0.603002  0  2.370958  0  0  -0.630703  0  2.360763  0  0  -0.333698  -0.583727  0  2.376246  0
O  O67  1  0.77931410  0.86955683  0.04726572  1  0  -0.665  0  2.133133  0  0  -0.602947  0  2.371027  0  0  -0.630647  0  2.360842  0  0  -0.333678  -0.583675  0  2.37631  0
O  O68  1  0.20250498  0.32084083  0.05159213  1  0  -0.62404  0  1.963381  0  0  -0.566107  0  2.179165  0  0  -0.590088  0  2.169073  0  0  -0.30355  -0.549427  0  2.185579  0
O  O69  1  0.79749108  0.67915577  0.94841431  1  0  -0.623986  0  1.96348  0  0  -0.566098  0  2.179259  0  0  -0.590077  0  2.169169  0  0  -0.303502  -0.54942  0  2.185662  0
O  O70  1  0.60401869  0.04120979  0.61697192  1  0  -0.583323  0  2.14605  0  0  -0.530203  0  2.38367  0  0  -0.554391  0  2.365885  0  0  -0.325591  -0.513427  0  2.393473  0
O  O71  1  0.39598831  0.95879456  0.38302928  1  0  -0.583357  0  2.145835  0  0  -0.530209  0  2.383414  0  0  -0.554414  0  2.365716  0  0  -0.325589  -0.513438  0  2.393223  0
O  O72  1  0.66204151  0.18750505  0.47236125  1  0  -0.584553  0  1.921453  0  0  -0.5303  0  2.143926  0  0  -0.552982  0  2.136176  0  0  -0.307304  -0.514659  0  2.148836  0
O  O73  1  0.33796849  0.81249060  0.52763174  1  0  -0.584531  0  1.921671  0  0  -0.530213  0  2.144087  0  0  -0.552878  0  2.136359  0  0  -0.307314  -0.514583  0  2.148982  0
O  O74  1  0.07147180  0.73957023  0.76374497  1  0  -0.865717  0  1.78922  0  0  -0.808786  0  1.954971  0  0  -0.828578  0  1.92513  0  0  -0.628506  -0.794432  0  1.97575  0
O  O75  1  0.92852759  0.26043022  0.23625675  1  0  -0.865822  0  1.789049  0  0  -0.808899  0  1.954828  0  0  -0.828693  0  1.924983  0  0  -0.628519  -0.794543  0  1.975608  0
O  O76  1  0.58024467  0.77201302  0.75325149  1  0  -0.871409  0  1.790177  0  0  -0.815176  0  1.957941  0  0  -0.834425  0  1.926345  0  0  -0.634913  -0.801062  0  1.979875  0
O  O77  1  0.41974711  0.22799028  0.24674980  1  0  -0.871408  0  1.790165  0  0  -0.815175  0  1.957898  0  0  -0.834425  0  1.926302  0  0  -0.634973  -0.801061  0  1.979834  0
