# generated using pymatgen
data_Zn4H27C36Cl3O13
_symmetry_space_group_name_H-M   'P 1'
_cell_length_a   18.45704846
_cell_length_b   18.43800474
_cell_length_c   18.42766564
_cell_angle_alpha   60.67032884
_cell_angle_beta   60.05864245
_cell_angle_gamma   60.03206576
_symmetry_Int_Tables_number   1
_chemical_formula_structural   Zn4H27C36Cl3O13
_chemical_formula_sum   'Zn8 H54 C72 Cl6 O26'
_cell_volume   4459.47594949
_cell_formula_units_Z   2
loop_
 _symmetry_equiv_pos_site_id
 _symmetry_equiv_pos_as_xyz
  1  'x, y, z'
loop_
 _atom_site_type_symbol
 _atom_site_label
 _atom_site_symmetry_multiplicity
 _atom_site_fract_x
 _atom_site_fract_y
 _atom_site_fract_z
 _atom_site_occupancy
 _atom_site_pbe_bader_charge
 _atom_site_pbe_bader_spin_density
 _atom_site_pbe_cm5_charge
 _atom_site_pbe_ddec_charge
 _atom_site_pbe_ddec_spin_density
 _atom_site_pbe_ddec_sum_bond_order
 _atom_site_pbe_magmom
Zn  Zn0  1  0.96183968  0.45392209  0.13027729  1  1.301009  0  0.67155  0.958786  0  2.391193  0
Zn  Zn1  1  0.54724085  0.04103231  0.54387914  1  1.323976  0  0.670838  0.964776  0  2.368408  0
Zn  Zn2  1  0.13499664  0.45414827  0.95691515  1  1.313918  0  0.670188  0.96444  0  2.358476  0
Zn  Zn3  1  0.95612329  0.45561529  0.95961769  1  1.324535  0  0.670759  0.955248  0  2.374245  0
Zn  Zn4  1  0.37294646  0.03795419  0.54106897  1  1.303797  0  0.671715  0.956723  0  2.375701  0
Zn  Zn5  1  0.54591340  0.86833495  0.54541776  1  1.318856  0  0.671638  0.956942  0  2.384725  0
Zn  Zn6  1  0.96152999  0.62708134  0.95694914  1  1.305386  0  0.670525  0.955472  0  2.393293  0
Zn  Zn7  1  0.54698301  0.04342509  0.37014565  1  1.309304  0  0.670663  0.957994  0  2.376553  0
H  H8  1  0.84628711  0.25174528  0.31551238  1  0.082208  0  0.108341  0.114645  0  0.997815  0
H  H9  1  0.41098809  0.20301306  0.69776542  1  0.111013  0  0.106469  0.113951  0  0.997269  0
H  H10  1  0.73513110  0.45542741  0.01619733  1  0.021935  0  0.090739  0.095223  0  0.996106  0
H  H11  1  0.65386556  0.43068612  0.01643288  1  0.015056  0  0.089473  0.086157  0  0.975591  0
H  H12  1  0.22848525  0.93720048  0.38154343  1  0.02965  0  0.081945  0.104744  0  1.02204  0
H  H13  1  0.20318704  0.83834225  0.43888883  1  -0.002697  0  0.085937  0.111661  0  0.999449  0
H  H14  1  0.12681122  0.93767756  0.39297143  1  0.01139  0  0.08538  0.111752  0  1.015157  0
H  H15  1  0.07751947  0.89995149  0.55836744  1  0.000546  0  0.087818  0.077892  0  0.98411  0
H  H16  1  0.09593064  0.00154105  0.50315373  1  0.002222  0  0.083012  0.073595  0  1.008049  0
H  H17  1  0.24528060  0.93023375  0.51810124  1  0.013708  0  0.090441  0.092322  0  0.985962  0
H  H18  1  0.23727939  0.82476391  0.55969865  1  0.013413  0  0.088115  0.080699  0  0.980686  0
H  H19  1  0.31628040  0.29824895  0.79401092  1  0.087158  0  0.106184  0.113275  0  0.995016  0
H  H20  1  0.12591667  0.14843591  0.75334448  1  0.047956  0  0.100059  0.112162  0  0.976604  0
H  H21  1  0.02918671  0.24654008  0.84971739  1  0.059104  0  0.098456  0.110072  0  0.978766  0
H  H22  1  0.12352901  0.24362949  0.65733738  1  0.072921  0  0.099439  0.113648  0  0.979708  0
H  H23  1  0.02789911  0.34164153  0.75366784  1  0.077881  0  0.091451  0.111782  0  1.003799  0
H  H24  1  0.40616018  0.69186765  0.76061208  1  0.103804  0  0.106796  0.109303  0  1.013961  0
H  H25  1  0.79833912  0.58603507  0.31751533  1  0.086393  0  0.10819  0.116325  0  0.992527  0
H  H26  1  0.70231816  0.68196836  0.41324972  1  0.120586  0  0.10687  0.1158  0  0.995926  0
H  H27  1  0.75424157  0.96493469  0.13156589  1  0.0716  0  0.0956  0.111533  0  0.988532  0
H  H28  1  0.85144688  0.86774788  0.03382775  1  0.064236  0  0.098673  0.11255  0  0.98107  0
H  H29  1  0.65794447  0.96731563  0.12899477  1  0.062543  0  0.097615  0.108597  0  0.980148  0
H  H30  1  0.75496776  0.86971723  0.03199182  1  0.045576  0  0.098022  0.109051  0  0.978662  0
H  H31  1  0.75148357  0.15686266  0.41030996  1  0.085608  0  0.110124  0.117439  0  0.988223  0
H  H32  1  0.31181054  0.59693076  0.85841674  1  0.115735  0  0.108496  0.114205  0  0.990733  0
H  H33  1  0.61239436  0.28703515  0.16163548  1  0.103384  0  0.105567  0.09133  0  0.966021  0
H  H34  1  0.07947177  0.81138288  0.69378857  1  0.099299  0  0.106428  0.091907  0  0.966087  0
H  H35  1  0.79408354  0.30090732  0.02931520  1  0.091687  0  0.102219  0.09425  0  0.966458  0
H  H36  1  0.12982203  0.96476477  0.65408805  1  0.080241  0  0.096526  0.089532  0  0.986816  0
H  H37  1  0.31098579  0.36042464  0.10130813  1  0.118187  0  0.111546  0.116149  0  0.984282  0
H  H38  1  0.72067837  0.91041295  0.69127241  1  0.079216  0  0.112371  0.119546  0  0.985994  0
H  H39  1  0.40499061  0.26453584  0.19708322  1  0.081495  0  0.110878  0.116861  0  0.990042  0
H  H40  1  0.18972665  0.08229412  0.40576019  1  0.102247  0  0.106154  0.097043  0  0.993655  0
H  H41  1  0.81665459  0.81463543  0.78525951  1  0.09956  0  0.111331  0.118339  0  0.992702  0
H  H42  1  0.13879316  0.02289304  0.24304311  1  -0.012393  0  0.083893  0.106379  0  1.020627  0
H  H43  1  0.12950102  0.12154975  0.15162180  1  0.042622  0  0.086334  0.113803  0  0.997511  0
H  H44  1  0.23524446  0.03899284  0.15109686  1  0.049924  0  0.088563  0.115687  0  0.998304  0
H  H45  1  0.21711228  0.16438115  0.18413212  1  0.03366  0  0.087007  0.077958  0  0.991033  0
H  H46  1  0.22822518  0.06682806  0.27443039  1  0.016635  0  0.084071  0.066964  0  1.006947  0
H  H47  1  0.06067942  0.11614156  0.34880609  1  0.042003  0  0.093701  0.101758  0  0.979842  0
H  H48  1  0.05071530  0.21245768  0.25607677  1  0.042553  0  0.092991  0.108273  0  0.986917  0
H  H49  1  0.72821202  0.54421395  0.86717645  1  0.113058  0  0.104852  0.093991  0  0.998424  0
H  H50  1  0.42308409  0.70241115  0.86898776  1  0.010642  0  0.084251  0.112311  0  1.021713  0
H  H51  1  0.46675685  0.59166672  0.93290472  1  0.016897  0  0.082945  0.106142  0  1.004836  0
H  H52  1  0.42921959  0.68022986  0.97120695  1  0.031872  0  0.087552  0.113081  0  1.005419  0
H  H53  1  0.59387168  0.62751386  0.91101332  1  0.031789  0  0.083986  0.064868  0  1.022717  0
H  H54  1  0.55183557  0.73550615  0.84416905  1  0.001013  0  0.088131  0.080677  0  0.976597  0
H  H55  1  0.57335382  0.67948983  0.73423325  1  0.032356  0  0.093863  0.112725  0  0.991312  0
H  H56  1  0.61011097  0.56863717  0.80104656  1  0.033913  0  0.092797  0.10202  0  0.970511  0
H  H57  1  0.61034861  0.59411747  0.05816794  1  0.042957  0  0.084135  0.109874  0  1.003981  0
H  H58  1  0.52612791  0.56578116  0.06810422  1  0.008625  0  0.083169  0.107911  0  1.025146  0
H  H59  1  0.52079324  0.58017253  0.15924799  1  0.016598  0  0.087574  0.113897  0  1.001044  0
H  H60  1  0.57367837  0.41875683  0.17970627  1  -0.00104  0  0.085685  0.071371  0  0.984728  0
H  H61  1  0.65457140  0.44683504  0.17451106  1  0.006635  0  0.087278  0.077855  0  0.983643  0
C  C62  1  0.86412786  0.63677176  0.86401610  1  1.552565  0  0.227071  0.603853  0  4.179955  0
C  C63  1  0.19849729  0.69243753  0.81750351  1  -0.025875  0  -0.006787  -0.048977  0  3.958273  0
C  C64  1  0.36029386  0.13650903  0.63548420  1  1.578461  0  0.228593  0.612035  0  4.170976  0
C  C65  1  0.14364338  0.63398861  0.87023145  1  1.549014  0  0.227334  0.605878  0  4.17986  0
C  C66  1  0.64957203  0.12896599  0.36519035  1  1.543037  0  0.227527  0.606809  0  4.176876  0
C  C67  1  0.87088381  0.35382425  0.14229699  1  1.518993  0  0.227384  0.60336  0  4.18371  0
C  C68  1  0.36677611  0.85659540  0.64209730  1  1.580768  0  0.227352  0.604394  0  4.17601  0
C  C69  1  0.76946264  0.28472524  0.16589590  1  -0.095868  0  0.002762  0.04247  0  3.871142  0
C  C70  1  0.70942063  0.18260753  0.30761279  1  0.00035  0  -0.00621  -0.05025  0  3.952947  0
C  C71  1  0.22219164  0.82994720  0.70471688  1  -0.064227  0  0.003265  0.041681  0  3.863674  0
C  C72  1  0.81677512  0.29461564  0.19848819  1  0.012722  0  -0.01074  -0.072492  0  3.967797  0
C  C73  1  0.30871473  0.80141232  0.70257282  1  -0.001499  0  -0.010577  -0.066677  0  3.956305  0
C  C74  1  0.80999229  0.24586346  0.28781729  1  0.074312  0  -0.075241  -0.084283  0  3.94858  0
C  C75  1  0.33876529  0.71648059  0.76079330  1  -0.025888  0  -0.077302  -0.09119  0  3.967014  0
C  C76  1  0.09457782  0.16359817  0.29545284  1  0.004706  0  -0.167238  -0.225069  0  3.930667  0
C  C77  1  0.18333409  0.11651990  0.23623211  1  -0.038598  0  -0.167828  -0.085722  0  3.960876  0
C  C78  1  0.17109528  0.07242485  0.19323166  1  -0.064007  0  -0.242656  -0.350378  0  3.972613  0
C  C79  1  0.60794176  0.63608135  0.78282823  1  0.032586  0  -0.168707  -0.228726  0  3.942334  0
C  C80  1  0.55690304  0.66665048  0.86433891  1  -0.013971  0  -0.168065  -0.08463  0  3.962382  0
C  C81  1  0.46395267  0.65986296  0.91195063  1  -0.054993  0  -0.244679  -0.352771  0  3.974503  0
C  C82  1  0.71862476  0.22936274  0.21853258  1  0.041594  0  -0.008336  0.006006  0  3.902693  0
C  C83  1  0.68758379  0.41933358  0.05835677  1  -0.01285  0  -0.162397  -0.172054  0  3.93425  0
C  C84  1  0.61967568  0.45652836  0.13470355  1  0.025672  0  -0.167841  -0.091754  0  3.973776  0
C  C85  1  0.56627770  0.55444584  0.10341554  1  -0.067661  0  -0.244719  -0.354457  0  3.979191  0
C  C86  1  0.19780297  0.89403566  0.55827343  1  -0.002965  0  -0.162164  -0.16731  0  3.938917  0
C  C87  1  0.12992154  0.93002573  0.51392595  1  0.037514  0  -0.168593  -0.09896  0  3.972844  0
C  C88  1  0.17407074  0.91011193  0.42706792  1  -0.048346  0  -0.244496  -0.353574  0  3.978662  0
C  C89  1  0.16855431  0.77747751  0.76179147  1  0.029408  0  -0.009307  0.006976  0  3.90768  0
C  C90  1  0.68450428  0.25560289  0.14655119  1  0.101997  0  -0.040301  0.029692  0  3.793221  0
C  C91  1  0.09596763  0.83967936  0.72154262  1  0.084337  0  -0.040205  0.032009  0  3.788386  0
C  C92  1  0.36829246  0.14122811  0.35921035  1  1.590636  0  0.226662  0.603407  0  4.182564  0
C  C93  1  0.74046376  0.32042687  0.08696479  1  0.019344  0  -0.076351  -0.059418  0  3.824021  0
C  C94  1  0.15900538  0.89679743  0.65258365  1  0.04802  0  -0.077255  -0.058221  0  3.815321  0
C  C95  1  0.17048246  0.25863427  0.27940404  1  0.051375  0  -0.002523  -0.002787  0  3.874349  0
C  C96  1  0.72162457  0.71196883  0.72860025  1  -0.005105  0  -0.000969  2.6e-05  0  3.869907  0
C  C97  1  0.20021184  0.31505885  0.19451248  1  -0.049888  0  -0.002207  -0.040867  0  3.940405  0
C  C98  1  0.69920933  0.80387318  0.69557227  1  0.099883  0  -0.005091  -0.047901  0  3.938208  0
C  C99  1  0.28550712  0.31694324  0.16707715  1  -0.046238  0  -0.072821  -0.088664  0  3.95044  0
C  C100  1  0.73571669  0.83907730  0.71695746  1  -0.004106  0  -0.07301  -0.086061  0  3.944815  0
C  C101  1  0.33844451  0.26294634  0.22084742  1  0.008016  0  -0.073783  -0.087165  0  3.948856  0
C  C102  1  0.78949598  0.78535692  0.76977742  1  -0.060809  0  -0.073838  -0.087269  0  3.94383  0
C  C103  1  0.30929997  0.20366475  0.30495285  1  -0.038117  0  -0.004919  -0.048861  0  3.942519  0
C  C104  1  0.80957175  0.69302562  0.80496095  1  0.055449  0  -0.005799  -0.051212  0  3.944771  0
C  C105  1  0.14615557  0.36678764  0.13510460  1  1.59645  0  0.229653  0.607435  0  4.175829  0
C  C106  1  0.64068716  0.86217992  0.64040670  1  1.533815  0  0.228825  0.603978  0  4.177611  0
C  C107  1  0.22340204  0.20445449  0.33265942  1  -0.023386  0  -0.004984  0.027209  0  3.906382  0
C  C108  1  0.75719391  0.19215173  0.34094321  1  -0.066694  0  -0.078391  -0.096011  0  3.958292  0
C  C109  1  0.77471131  0.65857494  0.78180054  1  -0.064348  0  -0.005236  0.026726  0  3.909028  0
C  C110  1  0.16168928  0.15228675  0.40051164  1  0.146125  0  -0.042652  -0.018699  0  3.799047  0
C  C111  1  0.76500074  0.57458778  0.79856150  1  0.093993  0  -0.044652  -0.018239  0  3.802244  0
C  C112  1  0.10149000  0.21265417  0.33782142  1  0.127579  0  0.032712  0.150494  0  3.763679  0
C  C113  1  0.70368691  0.63549694  0.73699160  1  0.14558  0  0.034057  0.156345  0  3.754623  0
C  C114  1  0.28567016  0.66320978  0.81608157  1  -0.036512  0  -0.079553  -0.096824  0  3.964653  0
C  C115  1  0.15605966  0.27406250  0.77767787  1  0.01428  0  -0.00085  0.066775  0  3.870398  0
C  C116  1  0.20944408  0.22017049  0.72369722  1  0.002391  0  -0.00113  0.065323  0  3.872825  0
C  C117  1  0.19220126  0.30378093  0.80445993  1  -0.046913  0  -0.015026  -0.083261  0  3.978622  0
C  C118  1  0.30192272  0.19326984  0.69327468  1  -0.076311  0  -0.014426  -0.081179  0  3.981137  0
C  C119  1  0.28586520  0.27633078  0.77422330  1  -0.037114  0  -0.084965  -0.099413  0  3.989564  0
C  C120  1  0.33892187  0.22296568  0.72034287  1  0.0374  0  -0.085668  -0.101818  0  3.991451  0
C  C121  1  0.13064948  0.21487894  0.72255795  1  -0.018399  0  -0.149487  -0.199952  0  3.874875  0
C  C122  1  0.07035593  0.27610384  0.78318900  1  -0.048229  0  -0.151021  -0.198141  0  3.872315  0
C  C123  1  0.77934251  0.78576098  0.15947969  1  -0.103442  0  -0.00219  0.06513  0  3.878085  0
C  C124  1  0.72530738  0.83966027  0.21326039  1  0.044429  0  -0.002271  0.065291  0  3.878093  0
C  C125  1  0.80658880  0.69381914  0.19480104  1  0.016281  0  -0.014834  -0.083338  0  3.986209  0
C  C126  1  0.69562191  0.80451810  0.30521544  1  -0.003243  0  -0.014311  -0.08177  0  3.985036  0
C  C127  1  0.77754373  0.65770689  0.28795112  1  0.045286  0  -0.082349  -0.096422  0  3.979628  0
C  C128  1  0.72374575  0.71140513  0.34153124  1  -0.119757  0  -0.082933  -0.098043  0  3.980897  0
C  C129  1  0.86328115  0.63602068  0.13827432  1  1.537319  0  0.227637  0.610154  0  4.175598  0
C  C130  1  0.63741507  0.86116412  0.36290426  1  1.562722  0  0.229056  0.611907  0  4.17079  0
C  C131  1  0.72368835  0.92442589  0.13554637  1  -0.062853  0  -0.151868  -0.200072  0  3.876748  0
C  C132  1  0.78461560  0.86343237  0.07462575  1  -0.001137  0  -0.150945  -0.200211  0  3.877549  0
C  C133  1  0.13673000  0.36121544  0.86160608  1  1.527099  0  0.228514  0.612911  0  4.168103  0
Cl  Cl134  1  0.99249492  0.27890517  0.38821336  1  -0.231204  0  -0.061726  -0.147501  0  1.399626  0
Cl  Cl135  1  0.86271335  0.48792285  0.76601379  1  -0.235293  0  -0.058836  -0.124093  0  1.452494  0
Cl  Cl136  1  0.11316181  0.15537736  0.51025965  1  -0.224432  0  -0.046224  -0.108599  0  1.450943  0
Cl  Cl137  1  0.75030126  0.61354646  0.63531671  1  -0.234036  0  -0.063135  -0.149869  0  1.39055  0
Cl  Cl138  1  0.71753531  0.17087716  0.10365591  1  -0.261082  0  -0.080362  -0.161534  0  1.319197  0
Cl  Cl139  1  0.99257613  0.89580383  0.79010031  1  -0.255396  0  -0.080508  -0.157409  0  1.303784  0
O  O140  1  0.00454751  0.49714367  0.00033796  1  -1.214784  0  -0.571999  -1.029087  0  2.534965  0
O  O141  1  0.32143906  0.11256980  0.61398494  1  -1.169044  0  -0.310356  -0.537557  0  2.325726  0
O  O142  1  0.05262157  0.38416892  0.88404681  1  -1.171904  0  -0.309775  -0.537868  0  2.339345  0
O  O143  1  0.89599087  0.67539004  0.87664107  1  -1.158341  0  -0.31031  -0.53759  0  2.341739  0
O  O144  1  0.45073154  0.13170579  0.32100901  1  -1.175567  0  -0.311764  -0.539384  0  2.323658  0
O  O145  1  0.18770428  0.38613001  0.05200918  1  -1.165531  0  -0.312228  -0.540985  0  2.311133  0
O  O146  1  0.61839873  0.94550876  0.61995437  1  -1.150505  0  -0.312293  -0.542253  0  2.324047  0
O  O147  1  0.50343241  0.99802209  0.50013568  1  -1.226046  0  -0.572697  -1.029781  0  2.534666  0
O  O148  1  0.87362589  0.55469998  0.89731159  1  -1.171283  0  -0.309366  -0.541714  0  2.362809  0
O  O149  1  0.33070770  0.10168538  0.43953571  1  -1.176299  0  -0.309932  -0.540693  0  2.368449  0
O  O150  1  0.06256952  0.38540457  0.17393100  1  -1.165475  0  -0.306971  -0.535004  0  2.379252  0
O  O151  1  0.61784107  0.82272618  0.61880748  1  -1.175344  0  -0.304548  -0.531468  0  2.381625  0
O  O152  1  0.88546993  0.67530687  0.05477776  1  -1.157147  0  -0.310582  -0.53869  0  2.339138  0
O  O153  1  0.61397314  0.94462646  0.32345543  1  -1.16614  0  -0.311656  -0.540505  0  2.335048  0
O  O154  1  0.17745750  0.38268518  0.88339347  1  -1.179076  0  -0.317802  -0.553164  0  2.336815  0
O  O155  1  0.44398471  0.11662947  0.61234071  1  -1.19321  0  -0.317688  -0.552043  0  2.347001  0
O  O156  1  0.06036691  0.67308584  0.88498837  1  -1.17148  0  -0.307943  -0.535259  0  2.368861  0
O  O157  1  0.62200316  0.11320751  0.32507521  1  -1.168089  0  -0.3077  -0.536266  0  2.370743  0
O  O158  1  0.88306871  0.38389008  0.05965607  1  -1.159678  0  -0.307061  -0.533217  0  2.340239  0
O  O159  1  0.32776088  0.93849025  0.60782838  1  -1.17469  0  -0.307933  -0.533608  0  2.336933  0
O  O160  1  0.18429654  0.55078587  0.89416692  1  -1.166577  0  -0.314061  -0.543549  0  2.321664  0
O  O161  1  0.63005476  0.10467712  0.44870506  1  -1.150512  0  -0.313682  -0.543999  0  2.319155  0
O  O162  1  0.90030350  0.36972523  0.18071388  1  -1.173025  0  -0.311373  -0.542385  0  2.348299  0
O  O163  1  0.88484411  0.55257357  0.17729792  1  -1.190468  0  -0.314806  -0.545134  0  2.3452  0
O  O164  1  0.44992010  0.81825863  0.62962457  1  -1.17467  0  -0.312758  -0.542544  0  2.331062  0
O  O165  1  0.61562623  0.82203235  0.44634139  1  -1.171789  0  -0.314953  -0.545692  0  2.351025  0
