# generated using pymatgen
data_Zn2H39C41N5O14
_symmetry_space_group_name_H-M   'P 1'
_cell_length_a   9.88444116
_cell_length_b   10.90061092
_cell_length_c   10.98993553
_cell_angle_alpha   100.13403400
_cell_angle_beta   96.16951028
_cell_angle_gamma   94.61599555
_symmetry_Int_Tables_number   1
_chemical_formula_structural   Zn2H39C41N5O14
_chemical_formula_sum   'Zn2 H39 C41 N5 O14'
_cell_volume   1152.91062244
_cell_formula_units_Z   1
loop_
 _symmetry_equiv_pos_site_id
 _symmetry_equiv_pos_as_xyz
  1  'x, y, z'
loop_
 _atom_site_type_symbol
 _atom_site_label
 _atom_site_symmetry_multiplicity
 _atom_site_fract_x
 _atom_site_fract_y
 _atom_site_fract_z
 _atom_site_occupancy
 _atom_site_pbe_bader_charge
 _atom_site_pbe_bader_spin_density
 _atom_site_pbe_cm5_charge
 _atom_site_pbe_ddec_charge
 _atom_site_pbe_ddec_spin_density
 _atom_site_pbe_ddec_sum_bond_order
 _atom_site_pbe_magmom
Zn  Zn0  1  0.34112997  0.49926242  0.49177569  1  1.322524  0  0.69553  0.891938  0  2.284697  0
Zn  Zn1  1  0.64619383  0.52900652  0.53748842  1  1.298229  0  0.674944  0.848786  0  2.270828  0
H  H2  1  0.69284728  0.58539595  0.93867068  1  0.098163  0  0.105269  0.114465  0  1.005166  0
H  H3  1  0.33547960  0.74812775  0.34346171  1  0.08337  0  0.108083  0.135459  0  1.032256  0
H  H4  1  0.68723145  0.57034728  0.16460591  1  0.081681  0  0.10652  0.116029  0  1.001273  0
H  H5  1  0.70040609  0.17761015  0.61933541  1  0.084807  0  0.09576  0.097675  0  1.043711  0
H  H6  1  0.79747870  0.68670063  0.72159831  1  0.130019  0  0.111315  0.130006  0  1.031419  0
H  H7  1  0.95331940  0.86557739  0.83596118  1  0.06317  0  0.10516  0.111348  0  1.017656  0
H  H8  1  0.14514160  0.94755029  0.97372837  1  0.065772  0  0.099201  0.09682  0  0.990509  0
H  H9  1  0.73109832  0.94994197  0.62089149  1  0.064515  0  0.099549  0.106274  0  1.013331  0
H  H10  1  0.09057468  0.04383907  0.86429202  1  0.043553  0  0.097184  0.093296  0  0.998616  0
H  H11  1  0.26390592  0.06408516  0.93568779  1  0.062794  0  0.107358  0.112703  0  1.000502  0
H  H12  1  0.18314286  0.19454558  0.35776160  1  0.104816  0  0.102303  0.113593  0  1.047733  0
H  H13  1  0.05144255  0.19283527  0.23080044  1  0.093942  0  0.099752  0.102433  0  1.031446  0
H  H14  1  0.00838924  0.19025738  0.38653720  1  0.068567  0  0.098941  0.088907  0  1.080955  0
H  H15  1  0.91389893  0.26742289  0.79894381  1  -0.004828  0  0.087365  0.071553  0  1.019333  0
H  H16  1  0.98525943  0.33928666  0.68312782  1  0.050221  0  0.092633  0.095626  0  1.010167  0
H  H17  1  0.81888552  0.37304015  0.72427531  1  0.103039  0  0.107507  0.124877  0  1.003419  0
H  H18  1  0.17637818  0.63638218  0.20689246  1  0.092374  0  0.099354  0.108328  0  1.014737  0
H  H19  1  0.22498475  0.77020443  0.14132987  1  0.056234  0  0.096592  0.095717  0  0.994736  0
H  H20  1  0.05638774  0.68860142  0.09748555  1  0.067157  0  0.103699  0.110324  0  1.000026  0
H  H21  1  0.92380634  0.29358861  0.98007354  1  0.388434  0  0.285359  0.220697  0  0.988921  0
H  H22  1  0.82535191  0.40499311  0.14417350  1  0.016614  0  0.095702  0.103234  0  1.031857  0
H  H23  1  0.90584553  0.51415050  0.06526062  1  0.022932  0  0.08651  0.084814  0  1.038456  0
H  H24  1  0.98897424  0.48367767  0.20779326  1  0.040332  0  0.095678  0.106809  0  1.02042  0
H  H25  1  0.98199632  0.06210308  0.51669776  1  0.456347  0  0.310174  0.245977  0  0.97557  0
H  H26  1  0.78520713  0.96024346  0.40867354  1  0.041116  0  0.097283  0.103251  0  1.037216  0
H  H27  1  0.86303463  0.81884566  0.38932075  1  0.072543  0  0.100802  0.121563  0  0.986461  0
H  H28  1  0.28125749  0.73546881  0.63150720  1  0.175739  0  0.11408  0.156463  0  1.027088  0
H  H29  1  0.87520339  0.91850102  0.27738811  1  0.048892  0  0.093983  0.09636  0  1.001297  0
H  H30  1  0.43896346  0.24002792  0.10105119  1  0.061645  0  0.096869  0.092859  0  1.019734  0
H  H31  1  0.33075782  0.12496627  0.15424487  1  0.071159  0  0.101801  0.103691  0  0.98605  0
H  H32  1  0.41760019  0.25537425  0.26357767  1  0.120309  0  0.101503  0.114967  0  1.022282  0
H  H33  1  0.31262025  0.13299762  0.73945621  1  0.066661  0  0.096807  0.09891  0  1.016878  0
H  H34  1  0.18077740  0.23445319  0.77058472  1  0.04387  0  0.090649  0.084592  0  1.047544  0
H  H35  1  0.32570721  0.28894600  0.70490763  1  0.088031  0  0.093978  0.106056  0  1.037101  0
H  H36  1  0.21081582  0.53477489  0.78269786  1  0.124282  0  0.103101  0.132867  0  1.060803  0
H  H37  1  0.73381727  0.31276444  0.47208424  1  0.483693  0  0.29835  0.251045  0  1.028082  0
H  H38  1  0.86138752  0.25425845  0.23709858  1  0.078345  0  0.107166  0.118464  0  1.052752  0
H  H39  1  0.68956397  0.28610992  0.25175501  1  0.058901  0  0.097244  0.110283  0  1.01902  0
H  H40  1  0.75051255  0.14668893  0.29351464  1  0.048167  0  0.102203  0.112822  0  0.985385  0
C  C41  1  0.54844340  0.75168393  0.51661699  1  1.548034  0  0.214174  0.597235  0  4.148781  0
C  C42  1  0.61533542  0.10519817  0.58731386  1  -0.09787  0  -0.10231  -0.114296  0  4.03487  0
C  C43  1  0.59750632  0.53870462  0.09631551  1  -0.065793  0  -0.093554  -0.113478  0  4.006734  0
C  C44  1  0.48230171  0.48328925  0.13469148  1  -0.013031  0  -0.016663  -0.060787  0  3.937942  0
C  C45  1  0.48751301  0.14285251  0.55093234  1  -0.027648  0  -0.031493  -0.093277  0  3.946682  0
C  C46  1  0.90208067  0.69847705  0.70014202  1  0.03994  0  -0.084878  -0.117338  0  3.971914  0
C  C47  1  0.99070030  0.79849170  0.76505680  1  -0.06679  0  -0.105387  -0.204598  0  4.014179  0
C  C48  1  0.48836131  0.54422612  0.75557150  1  1.568016  0  0.216758  0.596496  0  4.141719  0
C  C49  1  0.12781266  0.81234258  0.73982518  1  0.481231  0  0.086893  0.26704  0  4.06095  0
C  C50  1  0.17555669  0.72480022  0.65067797  1  0.025979  0  -0.102956  -0.279586  0  3.914614  0
C  C51  1  0.08626223  0.62190330  0.58580912  1  0.373772  0  0.104447  0.185287  0  4.021471  0
C  C52  1  0.94702149  0.60914810  0.60844079  1  0.428582  0  0.100053  0.150949  0  4.020003  0
C  C53  1  0.90334898  0.41882767  0.46379426  1  1.077206  0  0.233291  0.235517  0  4.041722  0
C  C54  1  0.48217787  0.27504641  0.53252232  1  1.520552  0  0.208314  0.575303  0  4.165053  0
C  C55  1  0.48153514  0.48580266  0.27253328  1  1.552533  0  0.212159  0.58057  0  4.178305  0
C  C56  1  0.04598455  0.43328982  0.44028837  1  1.207067  0  0.240005  0.301625  0  4.022392  0
C  C57  1  0.22103917  0.49588504  0.86696353  1  0.053842  0  -0.117453  -0.269082  0  4.010446  0
C  C58  1  0.30707787  0.83810392  0.38726874  1  0.04249  0  -0.124683  -0.294334  0  4.05453  0
C  C59  1  0.10590407  0.44936385  0.91094884  1  0.382795  0  0.06913  0.169189  0  4.101847  0
C  C60  1  0.17580203  0.86819057  0.36211379  1  0.466181  0  0.07881  0.183782  0  4.057869  0
C  C61  1  0.11300154  0.38490748  0.01254523  1  0.39938  0  0.059825  -0.001975  0  4.034009  0
C  C62  1  0.12966959  0.97194203  0.44132688  1  0.498618  0  0.09539  0.051131  0  4.065818  0
C  C63  1  0.24262598  0.37322361  0.07187393  1  0.517208  0  0.095862  0.159492  0  4.000607  0
C  C64  1  0.59814433  0.55499887  0.97214289  1  -0.01515  0  -0.086156  -0.092475  0  3.9978  0
C  C65  1  0.23145298  0.06223840  0.51312534  1  0.480889  0  0.061997  0.080081  0  4.044562  0
C  C66  1  0.36054201  0.44710748  0.04752363  1  0.04548  0  -0.015791  -0.066046  0  3.947817  0
C  C67  1  0.37256872  0.04812447  0.51264815  1  -0.002158  0  -0.016418  -0.041363  0  3.985219  0
C  C68  1  0.35207610  0.49329872  0.93204117  1  -0.078679  0  -0.001167  0.094455  0  3.960154  0
C  C69  1  0.40519268  0.92242817  0.47120219  1  -0.028117  0  -0.01177  0.077705  0  4.028654  0
C  C70  1  0.63533919  0.97867857  0.58165047  1  -0.02528  0  -0.108719  -0.138595  0  4.05281  0
C  C71  1  0.47849626  0.53514309  0.89003459  1  -0.023959  0  -0.01437  -0.077949  0  3.88514  0
C  C72  1  0.53278681  0.88733201  0.51884332  1  0.020396  0  -0.012408  -0.05892  0  3.92443  0
C  C73  1  0.17599184  0.99519065  0.89905523  1  0.389001  0  -0.134668  -0.173298  0  3.934945  0
C  C74  1  0.08289059  0.22369216  0.33071266  1  0.336083  0  -0.149293  -0.182213  0  3.83862  0
C  C75  1  0.92152245  0.35415416  0.75971254  1  0.38985  0  -0.142369  -0.167691  0  3.901843  0
C  C76  1  0.13954847  0.71867912  0.17373013  1  0.347828  0  -0.140347  -0.180231  0  3.902651  0
C  C77  1  0.92411290  0.44111189  0.12113629  1  0.269856  0  -0.156407  -0.231873  0  3.950475  0
C  C78  1  0.87448580  0.91681513  0.37703713  1  0.300485  0  -0.141716  -0.218002  0  3.968733  0
C  C79  1  0.36711347  0.22500991  0.16789376  1  0.305553  0  -0.139563  -0.178654  0  3.883724  0
C  C80  1  0.25597117  0.20632574  0.70748173  1  0.349575  0  -0.150852  -0.175556  0  3.878628  0
C  C81  1  0.77817975  0.24633849  0.29364558  1  0.268121  0  -0.138896  -0.217836  0  3.906956  0
N  N82  1  0.85860864  0.51037850  0.54277153  1  -1.244079  0  -0.321107  -0.331333  0  3.485426  0
N  N83  1  0.81652382  0.31175887  0.42216516  1  -1.192627  0  -0.440334  -0.296351  0  3.551963  0
N  N84  1  0.13177072  0.52921635  0.50173155  1  -1.220495  0  -0.313338  -0.331459  0  3.446566  0
N  N85  1  0.99093928  0.33697700  0.05521951  1  -1.050139  0  -0.476729  -0.32827  0  3.43552  0
N  N86  1  0.99544055  0.98735511  0.45153072  1  -1.216114  0  -0.434803  -0.24051  0  3.634099  0
O  O87  1  0.44125607  0.68304319  0.52614867  1  -1.19542  0  -0.309723  -0.566592  0  2.428195  0
O  O88  1  0.36707241  0.50357293  0.31314343  1  -1.14919  0  -0.307579  -0.538434  0  2.396988  0
O  O89  1  0.37266905  0.30881651  0.48209314  1  -1.165006  0  -0.301706  -0.531162  0  2.363333  0
O  O90  1  0.59544886  0.34743326  0.56214321  1  -1.198518  0  -0.323993  -0.578303  0  2.420766  0
O  O91  1  0.59283292  0.47576828  0.33843968  1  -1.17959  0  -0.314216  -0.560245  0  2.316295  0
O  O92  1  0.22037483  0.90932590  0.80111791  1  -1.073024  0  -0.186895  -0.158828  0  2.542393  0
O  O93  1  0.10140637  0.35946085  0.35321539  1  -1.094839  0  -0.159359  -0.14603  0  2.658166  0
O  O94  1  0.38007825  0.50891144  0.67924597  1  -1.174294  0  -0.309193  -0.545025  0  2.428611  0
O  O95  1  0.97720519  0.46096045  0.85220269  1  -1.079147  0  -0.211212  -0.191986  0  2.548385  0
O  O96  1  0.08292703  0.79979153  0.26866498  1  -1.076736  0  -0.188088  -0.152987  0  2.562496  0
O  O97  1  0.24812256  0.29013934  0.15036497  1  -1.076116  0  -0.174597  -0.132503  0  2.66463  0
O  O98  1  0.18004372  0.15919229  0.58667927  1  -1.074436  0  -0.20057  -0.175207  0  2.607312  0
O  O99  1  0.66634409  0.71230933  0.51220706  1  -1.150099  0  -0.311868  -0.534318  0  2.290375  0
O  O100  1  0.60463510  0.57832370  0.72533235  1  -1.170332  0  -0.314774  -0.548737  0  2.305414  0
