# generated using pymatgen
data_ZnH2C8(ClO2)2
_symmetry_space_group_name_H-M   'P 1'
_cell_length_a   7.17117568
_cell_length_b   7.50865996
_cell_length_c   16.96918809
_cell_angle_alpha   98.72194083
_cell_angle_beta   90.00043834
_cell_angle_gamma   89.99959460
_symmetry_Int_Tables_number   1
_chemical_formula_structural   ZnH2C8(ClO2)2
_chemical_formula_sum   'Zn4 H8 C32 Cl8 O16'
_cell_volume   903.15516292
_cell_formula_units_Z   4
loop_
 _symmetry_equiv_pos_site_id
 _symmetry_equiv_pos_as_xyz
  1  'x, y, z'
loop_
 _atom_site_type_symbol
 _atom_site_label
 _atom_site_symmetry_multiplicity
 _atom_site_fract_x
 _atom_site_fract_y
 _atom_site_fract_z
 _atom_site_occupancy
 _atom_site_hle17_bader_spin_density
 _atom_site_hle17_ddec_charge
 _atom_site_hle17_ddec_spin_density
 _atom_site_hle17_ddec_sum_bond_order
 _atom_site_hle17_magmom
 _atom_site_hse06_10hf_bader_spin_density
 _atom_site_hse06_10hf_ddec_charge
 _atom_site_hse06_10hf_ddec_spin_density
 _atom_site_hse06_10hf_ddec_sum_bond_order
 _atom_site_hse06_10hf_magmom
 _atom_site_hse06_bader_spin_density
 _atom_site_hse06_ddec_charge
 _atom_site_hse06_ddec_spin_density
 _atom_site_hse06_ddec_sum_bond_order
 _atom_site_hse06_magmom
 _atom_site_pbe_bader_spin_density
 _atom_site_pbe_cm5_charge
 _atom_site_pbe_ddec_charge
 _atom_site_pbe_ddec_spin_density
 _atom_site_pbe_ddec_sum_bond_order
 _atom_site_pbe_magmom
Zn  Zn0  1  0.72714419  0.35097200  0.43384824  1  0  1.230058  0  1.680306  0  0  1.062272  0  2.151456  0  0  1.111002  0  2.086347  0  0  0.720182  1.027823  0  2.196691  0
Zn  Zn1  1  0.22714305  0.14902170  0.56615453  1  0  1.230111  0  1.680223  0  0  1.062271  0  2.151383  0  0  1.111  0  2.086273  0  0  0.720213  1.027822  0  2.196623  0
Zn  Zn2  1  0.27285754  0.64901562  0.56615194  1  0  1.230119  0  1.680311  0  0  1.062299  0  2.151479  0  0  1.111029  0  2.086369  0  0  0.720208  1.027853  0  2.196723  0
Zn  Zn3  1  0.77285449  0.85097669  0.43384756  1  0  1.230095  0  1.680491  0  0  1.062257  0  2.151677  0  0  1.110984  0  2.086565  0  0  0.720173  1.027809  0  2.196912  0
H  H4  1  0.98700277  0.45440479  0.19111293  1  0  0.113269  0  0.961823  0  0  0.118587  0  1.031686  0  0  0.122414  0  1.029303  0  0  0.096481  0.115847  0  1.033447  0
H  H5  1  0.48700120  0.04559284  0.80888505  1  0  0.113227  0  0.961838  0  0  0.118532  0  1.031721  0  0  0.12236  0  1.029338  0  0  0.096475  0.115793  0  1.033481  0
H  H6  1  0.01300035  0.54560035  0.80888726  1  0  0.11323  0  0.961883  0  0  0.118558  0  1.03173  0  0  0.122381  0  1.029355  0  0  0.096509  0.11582  0  1.033493  0
H  H7  1  0.51299495  0.95440959  0.19111849  1  0  0.113264  0  0.961789  0  0  0.118571  0  1.031671  0  0  0.122398  0  1.029288  0  0  0.096505  0.115831  0  1.033431  0
H  H8  1  0.64169867  0.54012199  0.28347792  1  0  0.116936  0  0.953422  0  0  0.125961  0  1.015837  0  0  0.129248  0  1.013509  0  0  0.108329  0.123541  0  1.017649  0
H  H9  1  0.14170351  0.95987917  0.71652000  1  0  0.116877  0  0.953388  0  0  0.125881  0  1.015857  0  0  0.129169  0  1.013528  0  0  0.108299  0.123462  0  1.017669  0
H  H10  1  0.35830305  0.45987643  0.71651770  1  0  0.116877  0  0.953438  0  0  0.12589  0  1.01589  0  0  0.129177  0  1.013563  0  0  0.108315  0.123469  0  1.017703  0
H  H11  1  0.85829543  0.04012868  0.28347979  1  0  0.11689  0  0.953323  0  0  0.125911  0  1.01578  0  0  0.129198  0  1.013451  0  0  0.108311  0.12349  0  1.017594  0
C  C12  1  0.16844169  0.52501547  0.29297053  1  0  -0.017558  0  3.6741  0  0  -0.008613  0  3.914027  0  0  -0.010285  0  3.933464  0  0  0.001166  -0.007455  0  3.901037  0
C  C13  1  0.66844824  0.97497610  0.70702859  1  0  -0.017599  0  3.67393  0  0  -0.008692  0  3.913883  0  0  -0.010358  0  3.933325  0  0  0.001076  -0.007551  0  3.900891  0
C  C14  1  0.83156003  0.47497889  0.70703070  1  0  -0.017546  0  3.67408  0  0  -0.008633  0  3.91402  0  0  -0.010305  0  3.933458  0  0  0.001114  -0.007478  0  3.901022  0
C  C15  1  0.33155488  0.02501961  0.29297332  1  0  -0.017585  0  3.674051  0  0  -0.008604  0  3.91397  0  0  -0.010271  0  3.933409  0  0  0.001176  -0.007457  0  3.900969  0
C  C16  1  0.35422868  0.54643237  0.31917982  1  0  -0.073265  0  3.71699  0  0  -0.064164  0  3.961964  0  0  -0.072504  0  3.983139  0  0  -0.014377  -0.0589  0  3.948078  0
C  C17  1  0.85423352  0.95356353  0.68081724  1  0  -0.073257  0  3.716951  0  0  -0.064134  0  3.961882  0  0  -0.072478  0  3.983068  0  0  -0.014364  -0.058824  0  3.947942  0
C  C18  1  0.64577026  0.45356335  0.68081855  1  0  -0.073236  0  3.716989  0  0  -0.064149  0  3.961901  0  0  -0.072487  0  3.983075  0  0  -0.01435  -0.058865  0  3.947993  0
C  C19  1  0.14576124  0.04643353  0.31918240  1  0  -0.073196  0  3.71687  0  0  -0.064085  0  3.961789  0  0  -0.072424  0  3.982968  0  0  -0.01438  -0.058776  0  3.947848  0
C  C20  1  0.49839989  0.51918715  0.26321159  1  0  -0.083542  0  3.704036  0  0  -0.119129  0  3.960314  0  0  -0.117061  0  3.977302  0  0  -0.081802  -0.120344  0  3.948997  0
C  C21  1  0.99839717  0.98081601  0.73678526  1  0  -0.08335  0  3.704162  0  0  -0.118939  0  3.960461  0  0  -0.116872  0  3.977457  0  0  -0.081729  -0.12017  0  3.949133  0
C  C22  1  0.50160044  0.48081936  0.73678457  1  0  -0.08337  0  3.704103  0  0  -0.118994  0  3.960413  0  0  -0.116929  0  3.977406  0  0  -0.08177  -0.120218  0  3.94909  0
C  C23  1  0.00159898  0.01918779  0.26321308  1  0  -0.083318  0  3.703893  0  0  -0.118984  0  3.960272  0  0  -0.116913  0  3.977259  0  0  -0.081725  -0.120217  0  3.948947  0
C  C24  1  0.46112374  0.46633247  0.18270086  1  0  0.070338  0  3.788076  0  0  0.076516  0  4.057544  0  0  0.076783  0  4.078523  0  0  0.005591  0.07606  0  4.04348  0
C  C25  1  0.96112441  0.03366667  0.81729538  1  0  0.070413  0  3.788089  0  0  0.076566  0  4.057566  0  0  0.076832  0  4.078545  0  0  0.005656  0.076112  0  4.043506  0
C  C26  1  0.53888216  0.53367134  0.81729689  1  0  0.070242  0  3.788043  0  0  0.07646  0  4.057457  0  0  0.076724  0  4.078435  0  0  0.005617  0.076009  0  4.043394  0
C  C27  1  0.03887591  0.96633849  0.18270187  1  0  0.070304  0  3.788099  0  0  0.07649  0  4.057539  0  0  0.076753  0  4.078516  0  0  0.005616  0.076035  0  4.04348  0
C  C28  1  0.27522103  0.44038665  0.15685668  1  0  0.101372  0  3.789728  0  0  0.105305  0  4.059424  0  0  0.109308  0  4.08076  0  0  0.013186  0.102532  0  4.045118  0
C  C29  1  0.77522198  0.05960950  0.84314169  1  0  0.101214  0  3.789896  0  0  0.1052  0  4.059535  0  0  0.109208  0  4.080864  0  0  0.013141  0.102417  0  4.045243  0
C  C30  1  0.72478069  0.55961716  0.84314224  1  0  0.101387  0  3.789722  0  0  0.105359  0  4.059334  0  0  0.109375  0  4.080651  0  0  0.013159  0.102574  0  4.045045  0
C  C31  1  0.22477556  0.94038890  0.15686040  1  0  0.101275  0  3.789911  0  0  0.105291  0  4.059491  0  0  0.109301  0  4.080819  0  0  0.013134  0.102513  0  4.045193  0
C  C32  1  0.13035117  0.47260824  0.21216844  1  0  -0.132821  0  3.703029  0  0  -0.162985  0  3.955544  0  0  -0.167294  0  3.976005  0  0  -0.092636  -0.160169  0  3.941915  0
C  C33  1  0.63035275  0.02738739  0.78783002  1  0  -0.132727  0  3.703017  0  0  -0.162882  0  3.955514  0  0  -0.167193  0  3.975976  0  0  -0.092602  -0.160063  0  3.941891  0
C  C34  1  0.86965195  0.52739555  0.78783225  1  0  -0.132777  0  3.703106  0  0  -0.162968  0  3.955638  0  0  -0.167282  0  3.976098  0  0  -0.092626  -0.160155  0  3.94202  0
C  C35  1  0.36964479  0.97261505  0.21217294  1  0  -0.132843  0  3.70315  0  0  -0.163015  0  3.955623  0  0  -0.16733  0  3.976084  0  0  -0.092661  -0.160198  0  3.941998  0
C  C36  1  0.40076976  0.59433134  0.40523614  1  0  0.715779  0  3.8174  0  0  0.656574  0  4.112116  0  0  0.694422  0  4.10061  0  0  0.230028  0.630646  0  4.119395  0
C  C37  1  0.90077061  0.90566160  0.59476088  1  0  0.715488  0  3.817753  0  0  0.656286  0  4.112401  0  0  0.694137  0  4.1009  0  0  0.229859  0.630344  0  4.119675  0
C  C38  1  0.59924172  0.40566438  0.59476164  1  0  0.715372  0  3.817985  0  0  0.656321  0  4.112468  0  0  0.694169  0  4.100962  0  0  0.229835  0.630387  0  4.119747  0
C  C39  1  0.09922832  0.09433681  0.40523768  1  0  0.715296  0  3.817908  0  0  0.656183  0  4.112451  0  0  0.694024  0  4.100958  0  0  0.229808  0.63024  0  4.119726  0
C  C40  1  0.00453591  0.55378688  0.34884446  1  0  0.729168  0  3.840668  0  0  0.671792  0  4.138205  0  0  0.709042  0  4.125714  0  0  0.239456  0.64619  0  4.146124  0
C  C41  1  0.50453608  0.94620562  0.65115654  1  0  0.729087  0  3.84076  0  0  0.6718  0  4.138156  0  0  0.709034  0  4.125685  0  0  0.239511  0.646197  0  4.146077  0
C  C42  1  0.99546303  0.44620747  0.65115795  1  0  0.729164  0  3.840868  0  0  0.671852  0  4.138281  0  0  0.709104  0  4.125782  0  0  0.239533  0.64625  0  4.146204  0
C  C43  1  0.49546006  0.05378873  0.34884645  1  0  0.729272  0  3.840624  0  0  0.671846  0  4.138216  0  0  0.70909  0  4.125732  0  0  0.239544  0.646241  0  4.14614  0
Cl  Cl44  1  0.22214683  0.36815636  0.05867740  1  0  -0.071072  0  1.452159  0  0  -0.06706  0  1.700861  0  0  -0.069929  0  1.695708  0  0  -0.00095  -0.06487  0  1.7044  0
Cl  Cl45  1  0.72215041  0.13184819  0.94131784  1  0  -0.07099  0  1.452229  0  0  -0.066991  0  1.700909  0  0  -0.069863  0  1.695755  0  0  -0.000909  -0.064798  0  1.704452  0
Cl  Cl46  1  0.77784652  0.63185149  0.94132003  1  0  -0.071012  0  1.452151  0  0  -0.067022  0  1.700839  0  0  -0.069894  0  1.69568  0  0  -0.000915  -0.064827  0  1.704383  0
Cl  Cl47  1  0.27784713  0.86816504  0.05868173  1  0  -0.071006  0  1.452268  0  0  -0.067015  0  1.700918  0  0  -0.069887  0  1.695762  0  0  -0.000911  -0.064825  0  1.704459  0
Cl  Cl48  1  0.64299582  0.43073204  0.11589669  1  0  -0.070363  0  1.432689  0  0  -0.058879  0  1.67497  0  0  -0.06155  0  1.669103  0  0  0.00307  -0.056855  0  1.679037  0
Cl  Cl49  1  0.14299683  0.06926756  0.88410208  1  0  -0.070446  0  1.432556  0  0  -0.058952  0  1.674834  0  0  -0.061622  0  1.668965  0  0  0.003007  -0.056927  0  1.678903  0
Cl  Cl50  1  0.35700730  0.56927176  0.88410165  1  0  -0.070372  0  1.432572  0  0  -0.058898  0  1.674821  0  0  -0.061567  0  1.668954  0  0  0.00304  -0.056873  0  1.678888  0
Cl  Cl51  1  0.85700489  0.93074972  0.11589717  1  0  -0.070347  0  1.432637  0  0  -0.058859  0  1.674899  0  0  -0.061529  0  1.669032  0  0  0.00308  -0.056835  0  1.678966  0
O  O52  1  0.56837434  0.58177213  0.42959785  1  0  -0.712219  0  2.132321  0  0  -0.643004  0  2.429844  0  0  -0.669434  0  2.407412  0  0  -0.322887  -0.624502  0  2.44487  0
O  O53  1  0.06837267  0.91821866  0.57039971  1  0  -0.712115  0  2.132411  0  0  -0.642886  0  2.429901  0  0  -0.669318  0  2.407476  0  0  -0.322826  -0.624382  0  2.444928  0
O  O54  1  0.43163853  0.41822359  0.57039994  1  0  -0.712074  0  2.132402  0  0  -0.642849  0  2.429758  0  0  -0.669281  0  2.407329  0  0  -0.322833  -0.624347  0  2.444788  0
O  O55  1  0.93162069  0.08177974  0.42960002  1  0  -0.712095  0  2.132459  0  0  -0.642938  0  2.429979  0  0  -0.669369  0  2.407553  0  0  -0.322845  -0.624434  0  2.445006  0
O  O56  1  0.26475463  0.64757231  0.45162207  1  0  -0.622271  0  2.082757  0  0  -0.54393  0  2.356856  0  0  -0.574269  0  2.3403  0  0  -0.294878  -0.522915  0  2.367803  0
O  O57  1  0.76475504  0.85241602  0.54837537  1  0  -0.622127  0  2.082882  0  0  -0.543753  0  2.356953  0  0  -0.574095  0  2.340403  0  0  -0.29476  -0.522738  0  2.367901  0
O  O58  1  0.73525267  0.35242475  0.54837817  1  0  -0.622086  0  2.083101  0  0  -0.54385  0  2.357182  0  0  -0.574193  0  2.340632  0  0  -0.29477  -0.522834  0  2.368128  0
O  O59  1  0.23524529  0.14757969  0.45162536  1  0  -0.622072  0  2.082876  0  0  -0.543726  0  2.356895  0  0  -0.574062  0  2.340346  0  0  -0.294755  -0.522713  0  2.367845  0
O  O60  1  0.91987482  0.70309994  0.35113558  1  0  -0.653419  0  2.110716  0  0  -0.582075  0  2.390678  0  0  -0.612305  0  2.374745  0  0  -0.308334  -0.560815  0  2.401127  0
O  O61  1  0.41988244  0.79689557  0.64886403  1  0  -0.65334  0  2.110818  0  0  -0.58202  0  2.390726  0  0  -0.612244  0  2.374802  0  0  -0.308344  -0.56076  0  2.401176  0
O  O62  1  0.08011993  0.29690116  0.64886493  1  0  -0.653417  0  2.110878  0  0  -0.582083  0  2.390797  0  0  -0.612313  0  2.374859  0  0  -0.308357  -0.560823  0  2.401251  0
O  O63  1  0.58010674  0.20309338  0.35113919  1  0  -0.653288  0  2.110966  0  0  -0.581938  0  2.390914  0  0  -0.612165  0  2.374985  0  0  -0.308306  -0.560679  0  2.401364  0
O  O64  1  0.95764681  0.42239893  0.38338005  1  0  -0.640429  0  2.110002  0  0  -0.567196  0  2.385332  0  0  -0.597613  0  2.369699  0  0  -0.301632  -0.545842  0  2.395493  0
O  O65  1  0.45764711  0.07759752  0.61661717  1  0  -0.640451  0  2.109938  0  0  -0.567279  0  2.38528  0  0  -0.597691  0  2.369653  0  0  -0.301698  -0.545925  0  2.39545  0
O  O66  1  0.04235212  0.57759948  0.61661792  1  0  -0.640491  0  2.110005  0  0  -0.567284  0  2.385312  0  0  -0.597699  0  2.369677  0  0  -0.301697  -0.545929  0  2.395483  0
O  O67  1  0.54234903  0.92239143  0.38338782  1  0  -0.640633  0  2.1098  0  0  -0.567375  0  2.385181  0  0  -0.597789  0  2.369547  0  0  -0.301774  -0.546022  0  2.395354  0
