# generated using pymatgen
data_MgH16C16(N5O3)2
_symmetry_space_group_name_H-M   'P 1'
_cell_length_a   4.59020883
_cell_length_b   15.09241550
_cell_length_c   16.28359309
_cell_angle_alpha   118.28664558
_cell_angle_beta   98.10101688
_cell_angle_gamma   90.02140367
_symmetry_Int_Tables_number   1
_chemical_formula_structural   MgH16C16(N5O3)2
_chemical_formula_sum   'Mg2 H32 C32 N20 O12'
_cell_volume   980.54238409
_cell_formula_units_Z   2
loop_
 _symmetry_equiv_pos_site_id
 _symmetry_equiv_pos_as_xyz
  1  'x, y, z'
loop_
 _atom_site_type_symbol
 _atom_site_label
 _atom_site_symmetry_multiplicity
 _atom_site_fract_x
 _atom_site_fract_y
 _atom_site_fract_z
 _atom_site_occupancy
 _atom_site_hle17_bader_spin_density
 _atom_site_hle17_ddec_charge
 _atom_site_hle17_ddec_spin_density
 _atom_site_hle17_ddec_sum_bond_order
 _atom_site_hle17_magmom
 _atom_site_hse06_10hf_bader_spin_density
 _atom_site_hse06_10hf_ddec_charge
 _atom_site_hse06_10hf_ddec_spin_density
 _atom_site_hse06_10hf_ddec_sum_bond_order
 _atom_site_hse06_10hf_magmom
 _atom_site_hse06_bader_spin_density
 _atom_site_hse06_ddec_charge
 _atom_site_hse06_ddec_spin_density
 _atom_site_hse06_ddec_sum_bond_order
 _atom_site_hse06_magmom
 _atom_site_pbe_bader_spin_density
 _atom_site_pbe_cm5_charge
 _atom_site_pbe_ddec_charge
 _atom_site_pbe_ddec_spin_density
 _atom_site_pbe_ddec_sum_bond_order
 _atom_site_pbe_magmom
Mg  Mg0  1  0.50000042  0.50000125  0.00000067  1  0  1.510168  0  1.089753  0  0  1.406107  0  1.334148  0  0  1.428755  0  1.299701  0  0  0.797787  1.390078  0  1.35817  0
Mg  Mg1  1  0.50000080  0.99999998  0.00000001  1  0  1.509523  0  1.090956  0  0  1.40518  0  1.335838  0  0  1.428018  0  1.301052  0  0  0.79803  1.389165  0  1.359793  0
H  H2  1  0.82511905  0.37551798  0.89672400  1  0  0.427282  0  0.868814  0  0  0.392817  0  0.941799  0  0  0.403568  0  0.925828  0  0  0.300882  0.385232  0  0.953061  0
H  H3  1  0.92850574  0.12457005  0.10331792  1  0  0.427142  0  0.869069  0  0  0.392347  0  0.942563  0  0  0.403147  0  0.926537  0  0  0.300806  0.384748  0  0.953826  0
H  H4  1  0.17488201  0.62448389  0.10327669  1  0  0.427335  0  0.868733  0  0  0.392877  0  0.941714  0  0  0.403628  0  0.925745  0  0  0.300928  0.385293  0  0.952976  0
H  H5  1  0.07149278  0.87543029  0.89668140  1  0  0.427156  0  0.869064  0  0  0.392365  0  0.942541  0  0  0.403165  0  0.926515  0  0  0.30082  0.384767  0  0.953804  0
H  H6  1  0.50907134  0.33948803  0.82641236  1  0  0.403813  0  0.914732  0  0  0.358513  0  1.002338  0  0  0.370249  0  0.985438  0  0  0.285644  0.350304  0  1.014135  0
H  H7  1  0.68260950  0.16056285  0.17358919  1  0  0.404118  0  0.914224  0  0  0.358811  0  1.001829  0  0  0.370552  0  0.984914  0  0  0.285709  0.350599  0  1.013638  0
H  H8  1  0.49093159  0.66051234  0.17358837  1  0  0.403805  0  0.914738  0  0  0.358517  0  1.002328  0  0  0.370254  0  0.985427  0  0  0.285643  0.350309  0  1.014125  0
H  H9  1  0.31738903  0.83943750  0.82641075  1  0  0.404131  0  0.914207  0  0  0.35884  0  1.001784  0  0  0.370581  0  0.984871  0  0  0.285725  0.350629  0  1.013594  0
H  H10  1  0.72922307  0.45856663  0.47598976  1  0  0.111653  0  0.974127  0  0  0.116291  0  1.046467  0  0  0.119865  0  1.044515  0  0  0.107026  0.113733  0  1.047953  0
H  H11  1  0.25313587  0.04138985  0.52400197  1  0  0.110696  0  0.974184  0  0  0.115209  0  1.046628  0  0  0.118765  0  1.044656  0  0  0.106595  0.112666  0  1.048133  0
H  H12  1  0.27077480  0.54143072  0.52401009  1  0  0.111625  0  0.974137  0  0  0.116255  0  1.046498  0  0  0.119828  0  1.044547  0  0  0.107007  0.113695  0  1.047985  0
H  H13  1  0.74685808  0.95860973  0.47599684  1  0  0.110803  0  0.974235  0  0  0.115312  0  1.046667  0  0  0.11887  0  1.044693  0  0  0.106639  0.112768  0  1.048172  0
H  H14  1  0.38440204  0.37549895  0.52968800  1  0  0.098805  0  0.937754  0  0  0.107171  0  1.001344  0  0  0.110298  0  0.998642  0  0  0.108215  0.104885  0  1.003332  0
H  H15  1  0.85462621  0.12440167  0.47032509  1  0  0.099242  0  0.938051  0  0  0.10744  0  1.001745  0  0  0.110537  0  0.999111  0  0  0.108606  0.105162  0  1.003709  0
H  H16  1  0.61559412  0.62450065  0.47031214  1  0  0.098768  0  0.937686  0  0  0.107128  0  1.001301  0  0  0.110256  0  0.998598  0  0  0.108195  0.104842  0  1.003289  0
H  H17  1  0.14537484  0.87560018  0.52967436  1  0  0.099224  0  0.938057  0  0  0.10744  0  1.00174  0  0  0.11054  0  0.999103  0  0  0.10859  0.105162  0  1.003706  0
H  H18  1  0.15841509  0.19924878  0.41351081  1  0  0.100269  0  0.97285  0  0  0.107939  0  1.038469  0  0  0.110607  0  1.038325  0  0  0.103861  0.106009  0  1.038712  0
H  H19  1  0.74534858  0.30066746  0.58646569  1  0  0.099915  0  0.973756  0  0  0.107911  0  1.038873  0  0  0.110636  0  1.038607  0  0  0.104207  0.105947  0  1.039205  0
H  H20  1  0.84158327  0.80075081  0.58648818  1  0  0.100229  0  0.972935  0  0  0.107918  0  1.038519  0  0  0.110591  0  1.038372  0  0  0.103869  0.105989  0  1.03876  0
H  H21  1  0.25466127  0.69933440  0.41353473  1  0  0.099932  0  0.973724  0  0  0.107918  0  1.038852  0  0  0.110628  0  1.038602  0  0  0.1042  0.105953  0  1.039184  0
H  H22  1  0.27782960  0.11838653  0.24993092  1  0  0.085033  0  0.951711  0  0  0.08753  0  1.02325  0  0  0.090639  0  1.020509  0  0  0.115232  0.085213  0  1.025312  0
H  H23  1  0.02855841  0.38159826  0.75002016  1  0  0.085558  0  0.951134  0  0  0.087686  0  1.022888  0  0  0.09089  0  1.02004  0  0  0.11517  0.085326  0  1.024986  0
H  H24  1  0.72216656  0.88161306  0.75006860  1  0  0.085031  0  0.951649  0  0  0.087515  0  1.023214  0  0  0.090625  0  1.020471  0  0  0.115216  0.085199  0  1.025276  0
H  H25  1  0.97144656  0.61840135  0.24998033  1  0  0.085571  0  0.951149  0  0  0.087699  0  1.022894  0  0  0.0909  0  1.020053  0  0  0.115173  0.085338  0  1.02499  0
H  H26  1  0.28496655  0.30737050  0.09270741  1  0  0.144925  0  0.900975  0  0  0.15511  0  0.96017  0  0  0.158183  0  0.957916  0  0  0.132707  0.15291  0  0.961878  0
H  H27  1  0.19235847  0.19269032  0.90736867  1  0  0.145013  0  0.900539  0  0  0.15572  0  0.959389  0  0  0.158785  0  0.95707  0  0  0.13298  0.153525  0  0.961115  0
H  H28  1  0.71502994  0.69263060  0.90729277  1  0  0.144934  0  0.900927  0  0  0.155184  0  0.960054  0  0  0.158256  0  0.9578  0  0  0.132731  0.15298  0  0.961762  0
H  H29  1  0.80764005  0.80731002  0.09263065  1  0  0.14504  0  0.900529  0  0  0.155744  0  0.959377  0  0  0.158809  0  0.957058  0  0  0.132988  0.153549  0  0.961104  0
H  H30  1  0.44238205  0.43403824  0.15409909  1  0  0.14735  0  0.93322  0  0  0.152907  0  1.000484  0  0  0.156648  0  0.997584  0  0  0.13313  0.150167  0  1.002754  0
H  H31  1  0.28816567  0.06602258  0.84598758  1  0  0.146574  0  0.933419  0  0  0.152129  0  1.000942  0  0  0.155832  0  0.998041  0  0  0.133008  0.149467  0  1.003155  0
H  H32  1  0.55761411  0.56596137  0.84590105  1  0  0.147375  0  0.933217  0  0  0.152919  0  1.000492  0  0  0.15667  0  0.997582  0  0  0.133121  0.150189  0  1.002746  0
H  H33  1  0.71183472  0.93397627  0.15401179  1  0  0.146561  0  0.933397  0  0  0.152095  0  1.000945  0  0  0.155798  0  0.998046  0  0  0.133  0.149434  0  1.003155  0
C  C34  1  0.66844526  0.33380546  0.33390113  1  0  0.159289  0  3.804354  0  0  0.158188  0  4.04483  0  0  0.163044  0  4.066295  0  0  0.121048  0.155011  0  4.030215  0
C  C35  1  0.33477954  0.16616516  0.66608373  1  0  0.159278  0  3.804933  0  0  0.157829  0  4.04572  0  0  0.162786  0  4.067052  0  0  0.120458  0.154576  0  4.031196  0
C  C36  1  0.33155987  0.66619492  0.66610030  1  0  0.159247  0  3.804351  0  0  0.158157  0  4.044818  0  0  0.163017  0  4.066274  0  0  0.121063  0.154976  0  4.030206  0
C  C37  1  0.66521645  0.83383368  0.33391546  1  0  0.159252  0  3.805083  0  0  0.157873  0  4.04579  0  0  0.162832  0  4.067122  0  0  0.120428  0.154617  0  4.031269  0
C  C38  1  0.61908415  0.38435152  0.42759474  1  0  -0.133914  0  3.695004  0  0  -0.157285  0  3.945148  0  0  -0.163884  0  3.966664  0  0  -0.080331  -0.152943  0  3.930597  0
C  C39  1  0.19166286  0.11562051  0.57238851  1  0  -0.132708  0  3.693957  0  0  -0.155594  0  3.944162  0  0  -0.162189  0  3.965659  0  0  -0.079732  -0.151258  0  3.929632  0
C  C40  1  0.38090981  0.61564810  0.57240655  1  0  -0.133839  0  3.694914  0  0  -0.157201  0  3.94507  0  0  -0.1638  0  3.966587  0  0  -0.080289  -0.152863  0  3.930536  0
C  C41  1  0.80833347  0.88437984  0.42761135  1  0  -0.132833  0  3.69417  0  0  -0.155753  0  3.94439  0  0  -0.162349  0  3.965884  0  0  -0.079747  -0.151416  0  3.929863  0
C  C42  1  0.43148330  0.33673473  0.45744610  1  0  -0.012035  0  3.722957  0  0  -0.025427  0  3.96909  0  0  -0.023102  0  3.988218  0  0  -0.067381  -0.026645  0  3.955949  0
C  C43  1  0.97413066  0.16318713  0.54254939  1  0  -0.013494  0  3.723899  0  0  -0.026802  0  3.970094  0  0  -0.024492  0  3.989174  0  0  -0.068121  -0.028005  0  3.956971  0
C  C44  1  0.56852084  0.66326114  0.54255459  1  0  -0.011985  0  3.722722  0  0  -0.025402  0  3.968907  0  0  -0.023072  0  3.988024  0  0  -0.067379  -0.026619  0  3.955761  0
C  C45  1  0.02587022  0.83681397  0.45745035  1  0  -0.013478  0  3.723933  0  0  -0.026804  0  3.970123  0  0  -0.024495  0  3.989204  0  0  -0.068145  -0.028007  0  3.957  0
C  C46  1  0.30427680  0.23994663  0.39354560  1  0  -0.116033  0  3.724331  0  0  -0.131151  0  3.974634  0  0  -0.137633  0  3.997342  0  0  -0.084053  -0.12694  0  3.959312  0
C  C47  1  0.91110758  0.25998483  0.60643188  1  0  -0.114354  0  3.724864  0  0  -0.129769  0  3.974828  0  0  -0.136244  0  3.997566  0  0  -0.084048  -0.125576  0  3.959484  0
C  C48  1  0.69571936  0.76005297  0.60645392  1  0  -0.116031  0  3.724329  0  0  -0.131133  0  3.974598  0  0  -0.137618  0  3.997308  0  0  -0.084045  -0.12692  0  3.959271  0
C  C49  1  0.08889551  0.74001628  0.39356856  1  0  -0.114356  0  3.724834  0  0  -0.129762  0  3.974788  0  0  -0.136225  0  3.997538  0  0  -0.084033  -0.125568  0  3.959442  0
C  C50  1  0.37004213  0.19434063  0.30185348  1  0  0.138777  0  3.687849  0  0  0.108688  0  3.944302  0  0  0.114505  0  3.96097  0  0  0.051037  0.104931  0  3.933032  0
C  C51  1  0.06870741  0.30562818  0.69811126  1  0  0.137776  0  3.686857  0  0  0.108304  0  3.943102  0  0  0.114031  0  3.959777  0  0  0.051423  0.104603  0  3.931841  0
C  C52  1  0.62995369  0.80565746  0.69814538  1  0  0.13881  0  3.687754  0  0  0.108731  0  3.944222  0  0  0.114548  0  3.960893  0  0  0.051062  0.104973  0  3.932953  0
C  C53  1  0.93129314  0.69437141  0.30188782  1  0  0.13777  0  3.68686  0  0  0.108318  0  3.943096  0  0  0.114045  0  3.959768  0  0  0.051423  0.104619  0  3.931831  0
C  C54  1  0.85970731  0.38028774  0.29794329  1  0  0.212995  0  3.798268  0  0  0.193856  0  4.077529  0  0  0.199921  0  4.094121  0  0  0.21959  0.189707  0  4.066318  0
C  C55  1  0.56189017  0.11971820  0.70208462  1  0  0.211739  0  3.800058  0  0  0.193169  0  4.07893  0  0  0.199172  0  4.095527  0  0  0.219761  0.189071  0  4.067709  0
C  C56  1  0.14029731  0.61971035  0.70205592  1  0  0.213119  0  3.798247  0  0  0.194011  0  4.077462  0  0  0.200075  0  4.094057  0  0  0.219658  0.189864  0  4.066255  0
C  C57  1  0.43810802  0.88028063  0.29791404  1  0  0.211721  0  3.800195  0  0  0.193117  0  4.079071  0  0  0.199119  0  4.095669  0  0  0.219719  0.189021  0  4.067851  0
C  C58  1  0.23452658  0.38668858  0.12920433  1  0  -0.23349  0  3.590103  0  0  -0.291918  0  3.847546  0  0  -0.294548  0  3.851841  0  0  -0.045435  -0.290141  0  3.845008  0
C  C59  1  0.10529833  0.11336337  0.87087660  1  0  -0.232937  0  3.587855  0  0  -0.292116  0  3.845674  0  0  -0.294555  0  3.849656  0  0  -0.045931  -0.290467  0  3.843218  0
C  C60  1  0.76547212  0.61331254  0.87079718  1  0  -0.233635  0  3.590062  0  0  -0.292048  0  3.847487  0  0  -0.294685  0  3.851771  0  0  -0.045468  -0.290254  0  3.844914  0
C  C61  1  0.89470223  0.88663623  0.12912310  1  0  -0.232998  0  3.58782  0  0  -0.292146  0  3.84567  0  0  -0.294589  0  3.849654  0  0  -0.04594  -0.290496  0  3.84322  0
C  C62  1  0.04157467  0.41305698  0.06007847  1  0  0.73892  0  3.838146  0  0  0.685893  0  4.142145  0  0  0.71912  0  4.132895  0  0  0.234581  0.663343  0  4.147755  0
C  C63  1  0.98132536  0.08695564  0.93996951  1  0  0.737599  0  3.837994  0  0  0.685006  0  4.141514  0  0  0.718183  0  4.132259  0  0  0.233868  0.662469  0  4.147168  0
C  C64  1  0.95842875  0.58694565  0.93992326  1  0  0.738985  0  3.837994  0  0  0.685879  0  4.142124  0  0  0.719106  0  4.132874  0  0  0.234582  0.663322  0  4.147741  0
C  C65  1  0.01867300  0.91304396  0.06003072  1  0  0.737657  0  3.837796  0  0  0.685025  0  4.141382  0  0  0.718206  0  4.132127  0  0  0.233897  0.662489  0  4.147041  0
N  N66  1  0.92028665  0.33411578  0.20938042  1  0  -0.267043  0  2.808492  0  0  -0.258573  0  3.078789  0  0  -0.262751  0  3.089655  0  0  -0.181738  -0.255853  0  3.071723  0
N  N67  1  0.71101546  0.16590354  0.79065541  1  0  -0.26667  0  2.809587  0  0  -0.258432  0  3.079832  0  0  -0.26262  0  3.090761  0  0  -0.182226  -0.255705  0  3.072718  0
N  N68  1  0.07971169  0.66588377  0.79061610  1  0  -0.266986  0  2.808734  0  0  -0.258534  0  3.079044  0  0  -0.262714  0  3.089914  0  0  -0.181729  -0.255815  0  3.071985  0
N  N69  1  0.28898020  0.83409379  0.20934312  1  0  -0.266682  0  2.809593  0  0  -0.258424  0  3.079814  0  0  -0.262614  0  3.090747  0  0  -0.1822  -0.255697  0  3.072704  0
N  N70  1  0.10539834  0.40233436  0.21068636  1  0  0.254922  0  3.551652  0  0  0.299793  0  3.836319  0  0  0.297082  0  3.856866  0  0  -0.001562  0.301355  0  3.822614  0
N  N71  1  0.89468077  0.09769861  0.78937673  1  0  0.255269  0  3.549367  0  0  0.300272  0  3.834178  0  0  0.297498  0  3.854684  0  0  -0.001127  0.301867  0  3.8205  0
N  N72  1  0.89460476  0.59766675  0.78931409  1  0  0.254872  0  3.55182  0  0  0.299731  0  3.836503  0  0  0.297018  0  3.857052  0  0  -0.001562  0.301285  0  3.822803  0
N  N73  1  0.10531742  0.90230023  0.21062255  1  0  0.255392  0  3.549165  0  0  0.300401  0  3.833965  0  0  0.297626  0  3.854469  0  0  -0.001068  0.301993  0  3.820292  0
N  N74  1  0.15936553  0.48703635  0.29396366  1  0  -0.103933  0  2.840458  0  0  -0.100613  0  3.129627  0  0  -0.097301  0  3.138566  0  0  -0.067688  -0.102574  0  3.123535  0
N  N75  1  0.86532086  0.01300511  0.70609972  1  0  -0.104448  0  2.840908  0  0  -0.100948  0  3.129792  0  0  -0.097628  0  3.138744  0  0  -0.067946  -0.102921  0  3.123706  0
N  N76  1  0.84063521  0.51296402  0.70603822  1  0  -0.103843  0  2.840463  0  0  -0.100525  0  3.129638  0  0  -0.097212  0  3.138577  0  0  -0.067677  -0.102487  0  3.123551  0
N  N77  1  0.13467970  0.98699448  0.29389936  1  0  -0.104546  0  2.840883  0  0  -0.101046  0  3.129773  0  0  -0.097724  0  3.138722  0  0  -0.067987  -0.103017  0  3.123688  0
N  N78  1  0.00368487  0.47392731  0.34997776  1  0  -0.263543  0  2.950115  0  0  -0.245901  0  3.241375  0  0  -0.253252  0  3.252939  0  0  -0.192131  -0.240778  0  3.233448  0
N  N79  1  0.65369011  0.02608868  0.65006084  1  0  -0.262714  0  2.950756  0  0  -0.245391  0  3.241817  0  0  -0.252711  0  3.253347  0  0  -0.191651  -0.240287  0  3.233908  0
N  N80  1  0.99631095  0.52607078  0.65002110  1  0  -0.263668  0  2.950037  0  0  -0.246038  0  3.241294  0  0  -0.253389  0  3.252858  0  0  -0.192162  -0.240912  0  3.233368  0
N  N81  1  0.34630809  0.97391016  0.34993844  1  0  -0.262637  0  2.950755  0  0  -0.245306  0  3.241818  0  0  -0.252626  0  3.253349  0  0  -0.191612  -0.240202  0  3.23391  0
N  N82  1  0.54677402  0.24000319  0.27224267  1  0  -0.321032  0  3.135527  0  0  -0.265791  0  3.376644  0  0  -0.278779  0  3.391873  0  0  -0.298658  -0.256985  0  3.366273  0
N  N83  1  0.27494702  0.25997536  0.72772235  1  0  -0.320769  0  3.136308  0  0  -0.265786  0  3.377435  0  0  -0.278817  0  3.392683  0  0  -0.298837  -0.256954  0  3.367062  0
N  N84  1  0.45322264  0.75999869  0.72775908  1  0  -0.321047  0  3.135412  0  0  -0.265849  0  3.376574  0  0  -0.278838  0  3.391801  0  0  -0.298704  -0.257043  0  3.366209  0
N  N85  1  0.72505134  0.74002424  0.27227726  1  0  -0.320773  0  3.136353  0  0  -0.265844  0  3.377486  0  0  -0.278876  0  3.392734  0  0  -0.298828  -0.257014  0  3.367113  0
O  O86  1  0.15457216  0.39563146  0.98699675  1  0  -0.721525  0  1.975765  0  0  -0.659291  0  2.207742  0  0  -0.683569  0  2.194963  0  0  -0.341555  -0.642175  0  2.215972  0
O  O87  1  0.16744010  0.10432327  0.01303281  1  0  -0.720645  0  1.975651  0  0  -0.658384  0  2.207683  0  0  -0.682657  0  2.194874  0  0  -0.340587  -0.641283  0  2.215902  0
O  O88  1  0.84543567  0.60437117  0.01300577  1  0  -0.721534  0  1.975653  0  0  -0.659315  0  2.207708  0  0  -0.683595  0  2.194932  0  0  -0.341599  -0.642201  0  2.215944  0
O  O89  1  0.83255859  0.89567784  0.98696746  1  0  -0.720683  0  1.975609  0  0  -0.658423  0  2.207707  0  0  -0.682683  0  2.194869  0  0  -0.340604  -0.641321  0  2.215927  0
O  O90  1  0.79741909  0.44913054  0.07892744  1  0  -0.682936  0  1.996528  0  0  -0.6241  0  2.231107  0  0  -0.648092  0  2.221321  0  0  -0.32757  -0.607481  0  2.237387  0
O  O91  1  0.71820508  0.05091058  0.92110458  1  0  -0.681582  0  1.995931  0  0  -0.623284  0  2.230965  0  0  -0.647291  0  2.221204  0  0  -0.327386  -0.606689  0  2.237263  0
O  O92  1  0.20258196  0.55087131  0.92107263  1  0  -0.682974  0  1.996463  0  0  -0.624113  0  2.231092  0  0  -0.648108  0  2.221314  0  0  -0.327576  -0.607494  0  2.23738  0
O  O93  1  0.28179514  0.94908751  0.07889446  1  0  -0.681587  0  1.995802  0  0  -0.623296  0  2.230884  0  0  -0.647304  0  2.221118  0  0  -0.327413  -0.606702  0  2.237184  0
O  O94  1  0.63943595  0.39925808  0.87840422  1  0  -0.923834  0  1.92749  0  0  -0.867932  0  2.132384  0  0  -0.885446  0  2.098259  0  0  -0.623758  -0.855563  0  2.156073  0
O  O95  1  0.76101373  0.10083321  0.12161184  1  0  -0.924161  0  1.927421  0  0  -0.867657  0  2.132276  0  0  -0.88535  0  2.0982  0  0  -0.624001  -0.855203  0  2.155912  0
O  O96  1  0.36056494  0.60074303  0.12159613  1  0  -0.92389  0  1.92746  0  0  -0.867997  0  2.132341  0  0  -0.885509  0  2.098214  0  0  -0.623801  -0.855628  0  2.156029  0
O  O97  1  0.23898700  0.89916714  0.87838819  1  0  -0.924181  0  1.927403  0  0  -0.867677  0  2.132229  0  0  -0.885372  0  2.098154  0  0  -0.624014  -0.855221  0  2.155864  0
