# generated using pymatgen
data_CdH12C12(BrN)2
_symmetry_space_group_name_H-M   'P 1'
_cell_length_a   7.40615220
_cell_length_b   10.16800624
_cell_length_c   10.16798575
_cell_angle_alpha   62.35067622
_cell_angle_beta   76.20349450
_cell_angle_gamma   76.20320355
_symmetry_Int_Tables_number   1
_chemical_formula_structural   CdH12C12(BrN)2
_chemical_formula_sum   'Cd2 H24 C24 Br4 N4'
_cell_volume   651.38797931
_cell_formula_units_Z   2
loop_
 _symmetry_equiv_pos_site_id
 _symmetry_equiv_pos_as_xyz
  1  'x, y, z'
loop_
 _atom_site_type_symbol
 _atom_site_label
 _atom_site_symmetry_multiplicity
 _atom_site_fract_x
 _atom_site_fract_y
 _atom_site_fract_z
 _atom_site_occupancy
 _atom_site_pbe_bader_spin_density
 _atom_site_pbe_cm5_charge
 _atom_site_pbe_ddec_charge
 _atom_site_pbe_ddec_spin_density
 _atom_site_pbe_ddec_sum_bond_order
 _atom_site_pbe_magmom
Cd  Cd0  1  0.24999748  0.92766732  0.07233409  1  0  0.533901  0.658166  0  2.526198  0
Cd  Cd1  1  0.75000322  0.07233175  0.92766305  1  0  0.533894  0.658173  0  2.526293  0
H  H2  1  0.16119009  0.47848514  0.63400028  1  0  0.108696  0.126981  0  0.999594  0
H  H3  1  0.33878657  0.36600579  0.52152253  1  0  0.108738  0.127097  0  0.999464  0
H  H4  1  0.83881052  0.52152186  0.36599704  1  0  0.10872  0.127033  0  0.999498  0
H  H5  1  0.66121315  0.63399899  0.47847896  1  0  0.108698  0.127  0  0.99955  0
H  H6  1  0.93217175  0.00307358  0.31614525  1  0  0.099468  0.071869  0  1.058811  0
H  H7  1  0.56783252  0.68385798  0.99694148  1  0  0.099516  0.07196  0  1.058829  0
H  H8  1  0.06782327  0.99692664  0.68385732  1  0  0.099443  0.071816  0  1.05888  0
H  H9  1  0.43216585  0.31613882  0.00305718  1  0  0.099521  0.071999  0  1.058817  0
H  H10  1  0.01789414  0.56235192  0.86413334  1  0  0.089466  0.137646  0  1.023612  0
H  H11  1  0.48210305  0.13586762  0.43765620  1  0  0.089464  0.137608  0  1.023632  0
H  H12  1  0.98210521  0.43764717  0.13586602  1  0  0.089461  0.137653  0  1.023594  0
H  H13  1  0.51789798  0.86413041  0.56234728  1  0  0.089457  0.137621  0  1.02364  0
H  H14  1  0.83610098  0.50562225  0.82843967  1  0  0.086237  0.136397  0  1.035558  0
H  H15  1  0.66389545  0.17156094  0.49438602  1  0  0.086209  0.136307  0  1.035565  0
H  H16  1  0.16389974  0.49437683  0.17155845  1  0  0.086251  0.136413  0  1.035527  0
H  H17  1  0.33610677  0.82843823  0.50561769  1  0  0.08622  0.13636  0  1.035571  0
H  H18  1  0.80085238  0.68464349  0.83286325  1  0  0.084682  0.130834  0  1.03872  0
H  H19  1  0.69913638  0.16714808  0.31535822  1  0  0.084643  0.130791  0  1.038698  0
H  H20  1  0.19914831  0.31534885  0.16713907  1  0  0.08467  0.130785  0  1.03872  0
H  H21  1  0.30086376  0.83285443  0.68464328  1  0  0.084677  0.130895  0  1.038702  0
H  H22  1  0.80392896  0.89245749  0.59278380  1  0  0.102751  0.119123  0  1.021314  0
H  H23  1  0.69607710  0.40721839  0.10756087  1  0  0.102767  0.119116  0  1.021383  0
H  H24  1  0.19606904  0.10754161  0.40721776  1  0  0.102738  0.119092  0  1.021321  0
H  H25  1  0.30392260  0.59277967  0.89244579  1  0  0.102752  0.11912  0  1.021361  0
C  C26  1  0.17579694  0.66543262  0.41241299  1  0  0.117408  0.17244  0  3.992841  0
C  C27  1  0.32419076  0.58759365  0.33457302  1  0  0.117402  0.172497  0  3.99299  0
C  C28  1  0.82419965  0.33456645  0.58758786  1  0  0.117451  0.172435  0  3.992898  0
C  C29  1  0.67580631  0.41240991  0.66542462  1  0  0.117448  0.172519  0  3.993035  0
C  C30  1  0.10778907  0.59506533  0.56565121  1  0  -0.080635  -0.219262  0  3.885884  0
C  C31  1  0.39219875  0.43435276  0.40494568  1  0  -0.080689  -0.219437  0  3.885827  0
C  C32  1  0.89220759  0.40494050  0.43434739  1  0  -0.080687  -0.219322  0  3.885869  0
C  C33  1  0.60780002  0.56564976  0.59505706  1  0  -0.080647  -0.21929  0  3.885846  0
C  C34  1  0.97875942  0.88713653  0.39179567  1  0  0.043687  0.103236  0  3.979967  0
C  C35  1  0.52124578  0.60820352  0.11287557  1  0  0.043608  0.103077  0  3.980113  0
C  C36  1  0.02124363  0.11286482  0.60820094  1  0  0.043748  0.103349  0  3.979973  0
C  C37  1  0.47875821  0.39179338  0.88712593  1  0  0.043653  0.103063  0  3.980195  0
C  C38  1  0.97240875  0.67520478  0.63451514  1  0  0.014742  0.232742  0  3.943572  0
C  C39  1  0.52758085  0.36548586  0.32480492  1  0  0.014741  0.232642  0  3.943856  0
C  C40  1  0.02758534  0.32479990  0.36548350  1  0  0.014703  0.232658  0  3.943746  0
C  C41  1  0.47241724  0.63451331  0.67520152  1  0  0.014689  0.232608  0  3.943658  0
C  C42  1  0.90140384  0.60394423  0.79874150  1  0  -0.247761  -0.433723  0  3.926367  0
C  C43  1  0.59858873  0.20126231  0.39606574  1  0  -0.247723  -0.433542  0  3.926359  0
C  C44  1  0.09859574  0.39605373  0.20125835  1  0  -0.24776  -0.433703  0  3.92635  0
C  C45  1  0.40141213  0.79873688  0.60394017  1  0  -0.247752  -0.433721  0  3.926461  0
C  C46  1  0.90785438  0.82506050  0.54405801  1  0  -0.084142  -0.18597  0  3.902041  0
C  C47  1  0.59214351  0.45594054  0.17495539  1  0  -0.084138  -0.185835  0  3.902233  0
C  C48  1  0.09214500  0.17494532  0.45593715  1  0  -0.084126  -0.185887  0  3.902036  0
C  C49  1  0.40785523  0.54405525  0.82505155  1  0  -0.084114  -0.185822  0  3.902068  0
Br  Br50  1  0.49411122  0.99093282  0.81214227  1  0  -0.269921  -0.454773  0  1.333323  0
Br  Br51  1  0.00588240  0.18785444  0.00905902  1  0  -0.26991  -0.45475  0  1.33339  0
Br  Br52  1  0.50590278  0.00906178  0.18784964  1  0  -0.269905  -0.454755  0  1.333368  0
Br  Br53  1  0.99411514  0.81213890  0.99093554  1  0  -0.269916  -0.454772  0  1.333347  0
N  N54  1  0.10988049  0.81014315  0.32782915  1  0  -0.331623  -0.266612  0  3.518226  0
N  N55  1  0.39011826  0.67217378  0.18986597  1  0  -0.331581  -0.266616  0  3.518628  0
N  N56  1  0.89012259  0.18985822  0.67216941  1  0  -0.331638  -0.26667  0  3.518361  0
N  N57  1  0.60988364  0.32782645  0.81013237  1  0  -0.331651  -0.266656  0  3.518657  0
