# generated using pymatgen
data_CdH20C24S2(N3O4)2
_symmetry_space_group_name_H-M   'P 1'
_cell_length_a   7.56656040
_cell_length_b   9.58391578
_cell_length_c   19.35273860
_cell_angle_alpha   89.99956865
_cell_angle_beta   101.08175939
_cell_angle_gamma   89.99986683
_symmetry_Int_Tables_number   1
_chemical_formula_structural   CdH20C24S2(N3O4)2
_chemical_formula_sum   'Cd2 H40 C48 S4 N12 O16'
_cell_volume   1377.23984002
_cell_formula_units_Z   2
loop_
 _symmetry_equiv_pos_site_id
 _symmetry_equiv_pos_as_xyz
  1  'x, y, z'
loop_
 _atom_site_type_symbol
 _atom_site_label
 _atom_site_symmetry_multiplicity
 _atom_site_fract_x
 _atom_site_fract_y
 _atom_site_fract_z
 _atom_site_occupancy
 _atom_site_hle17_bader_spin_density
 _atom_site_hle17_ddec_charge
 _atom_site_hle17_ddec_spin_density
 _atom_site_hle17_ddec_sum_bond_order
 _atom_site_hle17_magmom
 _atom_site_hse06_10hf_bader_charge
 _atom_site_hse06_10hf_bader_spin_density
 _atom_site_hse06_10hf_ddec_charge
 _atom_site_hse06_10hf_ddec_spin_density
 _atom_site_hse06_10hf_ddec_sum_bond_order
 _atom_site_hse06_10hf_magmom
 _atom_site_hse06_bader_spin_density
 _atom_site_hse06_ddec_charge
 _atom_site_hse06_ddec_spin_density
 _atom_site_hse06_ddec_sum_bond_order
 _atom_site_hse06_magmom
 _atom_site_pbe_bader_spin_density
 _atom_site_pbe_cm5_charge
 _atom_site_pbe_ddec_charge
 _atom_site_pbe_ddec_spin_density
 _atom_site_pbe_ddec_sum_bond_order
 _atom_site_pbe_magmom
Cd  Cd0  1  0.49999920  0.49999804  0.49999895  1  0  1.107685  0  1.711988  0  1.288642  0  0.912106  0  2.160094  0  0  0.962144  0  2.115008  0  0  0.784253  0.87707  0  2.190423  0
Cd  Cd1  1  0.00000094  0.99999970  0.99999961  1  0  1.107708  0  1.711972  0  1.288666  0  0.912165  0  2.160047  0  0  0.962201  0  2.114963  0  0  0.784299  0.877133  0  2.190373  0
H  H2  1  0.01046537  0.72920270  0.31017931  1  0  0.117601  0  0.973183  0  0.145051  0  0.123676  0  1.037903  0  0  0.128085  0  1.034125  0  0  0.105805  0.120454  0  1.040789  0
H  H3  1  0.48953403  0.22920504  0.18981622  1  0  0.117521  0  0.973299  0  0.142193  0  0.123603  0  1.038001  0  0  0.12801  0  1.034228  0  0  0.105776  0.120384  0  1.040883  0
H  H4  1  0.98952899  0.27079442  0.68981932  1  0  0.117566  0  0.973266  0  0.144992  0  0.123646  0  1.037971  0  0  0.128056  0  1.034193  0  0  0.105771  0.120425  0  1.040858  0
H  H5  1  0.51046841  0.77080252  0.81018354  1  0  0.117564  0  0.973221  0  0.142217  0  0.123654  0  1.037919  0  0  0.128062  0  1.034146  0  0  0.105789  0.120433  0  1.040802  0
H  H6  1  0.93974461  0.83734957  0.19104296  1  0  0.096858  0  0.969743  0  0.103525  0  0.103142  0  1.036315  0  0  0.106184  0  1.03534  0  0  0.098518  0.10097  0  1.037072  0
H  H7  1  0.56025823  0.33734880  0.30895225  1  0  0.096882  0  0.969651  0  0.103505  0  0.103189  0  1.036204  0  0  0.106229  0  1.035226  0  0  0.098554  0.101015  0  1.036961  0
H  H8  1  0.06025110  0.16264756  0.80895630  1  0  0.096892  0  0.969627  0  0.103526  0  0.103166  0  1.036223  0  0  0.106209  0  1.035248  0  0  0.098539  0.100992  0  1.036983  0
H  H9  1  0.43974691  0.66265250  0.69104719  1  0  0.096918  0  0.969649  0  0.103467  0  0.103199  0  1.036236  0  0  0.106236  0  1.035257  0  0  0.098548  0.101026  0  1.036991  0
H  H10  1  0.62293071  0.85753417  0.12701473  1  0  0.089138  0  0.976835  0  0.10427  0  0.096679  0  1.043349  0  0  0.099269  0  1.042677  0  0  0.098865  0.094851  0  1.043827  0
H  H11  1  0.87706800  0.35752767  0.37298113  1  0  0.089071  0  0.976968  0  0.104444  0  0.096668  0  1.043424  0  0  0.099257  0  1.042753  0  0  0.098859  0.094838  0  1.0439  0
H  H12  1  0.37706635  0.14246714  0.87298462  1  0  0.089167  0  0.976829  0  0.104298  0  0.096685  0  1.04336  0  0  0.099274  0  1.042688  0  0  0.098874  0.094855  0  1.043836  0
H  H13  1  0.12293445  0.64247363  0.62701966  1  0  0.089071  0  0.97701  0  0.104468  0  0.096651  0  1.04349  0  0  0.099241  0  1.042819  0  0  0.098853  0.094821  0  1.043965  0
H  H14  1  0.36946251  0.78058630  0.18298606  1  0  0.111926  0  0.949424  0  0.084205  0  0.121639  0  1.009844  0  0  0.125067  0  1.007292  0  0  0.110155  0.119102  0  1.01182  0
H  H15  1  0.13053799  0.28057798  0.31701091  1  0  0.111991  0  0.949358  0  0.084209  0  0.12172  0  1.00976  0  0  0.12515  0  1.007208  0  0  0.11017  0.119184  0  1.011733  0
H  H16  1  0.63053724  0.21941813  0.81701349  1  0  0.111924  0  0.949454  0  0.084214  0  0.121644  0  1.009859  0  0  0.125071  0  1.007309  0  0  0.110157  0.119107  0  1.011832  0
H  H17  1  0.86946445  0.71942436  0.68298833  1  0  0.111943  0  0.949394  0  0.084238  0  0.121685  0  1.009778  0  0  0.12511  0  1.007232  0  0  0.11017  0.119155  0  1.011754  0
H  H18  1  0.83598448  0.29505315  0.52240803  1  0  0.09061  0  0.971368  0  0.167207  0  0.092197  0  1.049402  0  0  0.09553  0  1.045499  0  0  0.119132  0.089664  0  1.052466  0
H  H19  1  0.66401145  0.79505424  0.97759154  1  0  0.090686  0  0.97143  0  0.167164  0  0.09228  0  1.049423  0  0  0.095607  0  1.045529  0  0  0.119169  0.089747  0  1.052485  0
H  H20  1  0.16401527  0.70494502  0.47759153  1  0  0.09066  0  0.971429  0  0.167188  0  0.092259  0  1.049418  0  0  0.095589  0  1.045519  0  0  0.119155  0.089719  0  1.052497  0
H  H21  1  0.33598562  0.20494602  0.02240989  1  0  0.090658  0  0.971443  0  0.167199  0  0.092259  0  1.049435  0  0  0.095588  0  1.045538  0  0  0.11916  0.08972  0  1.05251  0
H  H22  1  0.31535210  0.22535435  0.41324751  1  0  0.084071  0  0.952504  0  0.12622  0  0.09157  0  1.018075  0  0  0.09401  0  1.015359  0  0  0.116725  0.089649  0  1.020298  0
H  H23  1  0.18464868  0.72535508  0.08675124  1  0  0.084073  0  0.952407  0  0.126233  0  0.091593  0  1.01796  0  0  0.094033  0  1.015246  0  0  0.11676  0.089691  0  1.020164  0
H  H24  1  0.68465303  0.77464174  0.58674935  1  0  0.084078  0  0.952482  0  0.126163  0  0.091588  0  1.018034  0  0  0.094029  0  1.015318  0  0  0.116772  0.089671  0  1.020256  0
H  H25  1  0.81535107  0.27464830  0.91324883  1  0  0.084078  0  0.95247  0  0.126245  0  0.091584  0  1.018038  0  0  0.094024  0  1.015321  0  0  0.116742  0.089662  0  1.020261  0
H  H26  1  0.71575169  0.89965764  0.41953843  1  0  0.110548  0  0.951547  0  0.126233  0  0.11532  0  1.021162  0  0  0.11794  0  1.018955  0  0  0.111857  0.11355  0  1.022465  0
H  H27  1  0.78424818  0.39966203  0.08046770  1  0  0.110547  0  0.951536  0  0.126236  0  0.115354  0  1.021126  0  0  0.117972  0  1.01893  0  0  0.111893  0.113594  0  1.022405  0
H  H28  1  0.28425077  0.10033322  0.58047011  1  0  0.110616  0  0.951422  0  0.126377  0  0.115377  0  1.021067  0  0  0.117995  0  1.018867  0  0  0.11189  0.113624  0  1.022331  0
H  H29  1  0.21575293  0.60034136  0.91953661  1  0  0.11053  0  0.951524  0  0.126221  0  0.115309  0  1.021139  0  0  0.117928  0  1.018931  0  0  0.111855  0.113541  0  1.022442  0
H  H30  1  0.39690185  0.98368758  0.37765446  1  0  0.126976  0  0.942915  0  0.126329  0  0.136627  0  0.997465  0  0  0.140291  0  0.99637  0  0  0.113576  0.133962  0  0.998401  0
H  H31  1  0.10310306  0.48368853  0.12234931  1  0  0.126929  0  0.942908  0  0.126278  0  0.136615  0  0.997421  0  0  0.140301  0  0.996301  0  0  0.113574  0.133953  0  0.998353  0
H  H32  1  0.60310599  0.01630537  0.62234931  1  0  0.126968  0  0.942884  0  0.126329  0  0.136613  0  0.997451  0  0  0.140317  0  0.99631  0  0  0.113571  0.13395  0  0.998389  0
H  H33  1  0.89690074  0.51631485  0.87765261  1  0  0.126923  0  0.942964  0  0.12604  0  0.136607  0  0.997482  0  0  0.140292  0  0.996362  0  0  0.113573  0.133946  0  0.998416  0
H  H34  1  0.15203847  0.42356722  0.49477209  1  0  0.408906  0  0.90418  0  0.666997  0  0.375509  0  0.972608  0  0  0.387252  0  0.955639  0  0  0.282576  0.367233  0  0.984546  0
H  H35  1  0.34795999  0.92356890  0.00522677  1  0  0.408873  0  0.904235  0  0.666984  0  0.375472  0  0.972673  0  0  0.387212  0  0.955706  0  0  0.282549  0.367197  0  0.98461  0
H  H36  1  0.84795859  0.57643199  0.50522674  1  0  0.408877  0  0.904224  0  0.666985  0  0.375487  0  0.972645  0  0  0.387225  0  0.95568  0  0  0.282559  0.367212  0  0.984582  0
H  H37  1  0.65204110  0.07643136  0.99477237  1  0  0.408849  0  0.904271  0  0.666743  0  0.37548  0  0.97266  0  0  0.387224  0  0.955689  0  0  0.282575  0.367206  0  0.984597  0
H  H38  1  0.10802745  0.50854872  0.42402172  1  0  0.427181  0  0.855543  0  0.652902  0  0.397826  0  0.925244  0  0  0.407946  0  0.910368  0  0  0.299508  0.390641  0  0.935808  0
H  H39  1  0.39197440  0.00854776  0.07597792  1  0  0.427171  0  0.855493  0  0.652909  0  0.397805  0  0.92526  0  0  0.407925  0  0.910384  0  0  0.2995  0.39062  0  0.935824  0
H  H40  1  0.89197364  0.49144945  0.57597691  1  0  0.427171  0  0.855495  0  0.652888  0  0.397817  0  0.925243  0  0  0.407937  0  0.910367  0  0  0.299503  0.39063  0  0.935811  0
H  H41  1  0.60802804  0.99145354  0.92402080  1  0  0.427165  0  0.855468  0  0.652916  0  0.39781  0  0.925248  0  0  0.407929  0  0.910374  0  0  0.299506  0.390625  0  0.935812  0
C  C42  1  0.55201508  0.70339152  0.27527482  1  0  -0.131355  0  3.767583  0  -0.171312  0  -0.111348  0  4.007521  0  0  -0.11622  0  4.029533  0  0  -0.013349  -0.107972  0  3.99257  0
C  C43  1  0.94798708  0.20339340  0.22472032  1  0  -0.131312  0  3.767407  0  -0.17155  0  -0.111277  0  4.007345  0  0  -0.116147  0  4.029356  0  0  -0.013398  -0.1079  0  3.992395  0
C  C44  1  0.44798063  0.29660561  0.72472288  1  0  -0.131294  0  3.76741  0  -0.171239  0  -0.111279  0  4.00736  0  0  -0.11615  0  4.029369  0  0  -0.013324  -0.107904  0  3.992416  0
C  C45  1  0.05201536  0.79661103  0.77527788  1  0  -0.131336  0  3.767397  0  -0.171395  0  -0.111331  0  4.00738  0  0  -0.116201  0  4.029389  0  0  -0.013382  -0.107956  0  3.992434  0
C  C46  1  0.72946314  0.68867788  0.31150285  1  0  -0.079525  0  3.819265  0  -0.045153  0  -0.064908  0  4.054759  0  0  -0.072436  0  4.079676  0  0  -0.016454  -0.059983  0  4.038112  0
C  C47  1  0.77053908  0.18868169  0.18849080  1  0  -0.079433  0  3.819044  0  -0.04443  0  -0.064858  0  4.054569  0  0  -0.072383  0  4.079479  0  0  -0.016457  -0.059937  0  4.03793  0
C  C48  1  0.27053122  0.31131924  0.68849475  1  0  -0.079508  0  3.81931  0  -0.044979  0  -0.064958  0  4.054848  0  0  -0.072481  0  4.079758  0  0  -0.016508  -0.060038  0  4.038215  0
C  C49  1  0.22946336  0.81132378  0.81150792  1  0  -0.079436  0  3.81922  0  -0.044358  0  -0.064827  0  4.0547  0  0  -0.072353  0  4.079613  0  0  -0.016405  -0.059902  0  4.038058  0
C  C50  1  0.73747281  0.62270535  0.38178243  1  0  0.568184  0  3.878593  0  1.369783  0  0.516894  0  4.175557  0  0  0.54862  0  4.174039  0  0  0.231322  0.495443  0  4.175928  0
C  C51  1  0.76252840  0.12270816  0.11821397  1  0  0.568136  0  3.878456  0  1.369743  0  0.516846  0  4.175429  0  0  0.548575  0  4.173909  0  0  0.231307  0.495395  0  4.175804  0
C  C52  1  0.26252425  0.37728969  0.61821641  1  0  0.568101  0  3.878641  0  1.369751  0  0.516882  0  4.175519  0  0  0.548607  0  4.174  0  0  0.231361  0.495429  0  4.175896  0
C  C53  1  0.23747269  0.87729523  0.88178516  1  0  0.56812  0  3.878775  0  1.369738  0  0.516854  0  4.175676  0  0  0.548579  0  4.174161  0  0  0.231364  0.495401  0  4.176048  0
C  C54  1  0.87163260  0.73708825  0.28184782  1  0  -0.043882  0  3.673484  0  -0.016433  0  -0.065723  0  3.915064  0  0  -0.064618  0  3.931981  0  0  -0.073049  -0.066752  0  3.904261  0
C  C55  1  0.62836804  0.23709187  0.21814657  1  0  -0.043892  0  3.673634  0  -0.014398  0  -0.065734  0  3.915221  0  0  -0.064628  0  3.932138  0  0  -0.073057  -0.066764  0  3.904414  0
C  C56  1  0.12836849  0.26290887  0.71815029  1  0  -0.043931  0  3.673693  0  -0.016695  0  -0.06575  0  3.915263  0  0  -0.064646  0  3.932181  0  0  -0.073056  -0.066779  0  3.904463  0
C  C57  1  0.37163305  0.76291673  0.78185154  1  0  -0.043931  0  3.673622  0  -0.014457  0  -0.065798  0  3.91522  0  0  -0.064693  0  3.932139  0  0  -0.073137  -0.066826  0  3.904413  0
C  C58  1  0.83060433  0.79737627  0.21480992  1  0  -0.056208  0  3.713043  0  -0.087066  0  -0.071702  0  3.965748  0  0  -0.073379  0  3.985951  0  0  -0.083644  -0.070777  0  3.952492  0
C  C59  1  0.66939736  0.29737462  0.28518535  1  0  -0.056114  0  3.713057  0  -0.086821  0  -0.071624  0  3.965741  0  0  -0.073296  0  3.98594  0  0  -0.083588  -0.070697  0  3.95248  0
C  C60  1  0.16939542  0.20262399  0.78518808  1  0  -0.056188  0  3.712919  0  -0.087033  0  -0.071673  0  3.965614  0  0  -0.073352  0  3.985819  0  0  -0.083637  -0.070745  0  3.952355  0
C  C61  1  0.33060373  0.70263190  0.71481327  1  0  -0.056219  0  3.713076  0  -0.086813  0  -0.071701  0  3.96577  0  0  -0.073371  0  3.985969  0  0  -0.083601  -0.070769  0  3.952501  0
C  C62  1  0.65208154  0.80995716  0.17899501  1  0  -0.050392  0  3.715559  0  0.000325  0  -0.06672  0  3.97022  0  0  -0.068365  0  3.991236  0  0  -0.08261  -0.065465  0  3.956028  0
C  C63  1  0.84792144  0.30995359  0.32100031  1  0  -0.050373  0  3.715512  0  0.000176  0  -0.066724  0  3.970153  0  0  -0.068368  0  3.991169  0  0  -0.082599  -0.065467  0  3.955956  0
C  C64  1  0.34791686  0.19004310  0.82100393  1  0  -0.050426  0  3.715535  0  0.00036  0  -0.066732  0  3.9702  0  0  -0.068377  0  3.991216  0  0  -0.082593  -0.065476  0  3.956003  0
C  C65  1  0.15208235  0.69005084  0.67899903  1  0  -0.05035  0  3.71569  0  0.000256  0  -0.066704  0  3.970354  0  0  -0.068347  0  3.991367  0  0  -0.082605  -0.065447  0  3.956161  0
C  C66  1  0.50842331  0.76450695  0.20932260  1  0  -0.04229  0  3.714296  0  0.000449  0  -0.065906  0  3.958696  0  0  -0.065176  0  3.976179  0  0  -0.075289  -0.066201  0  3.946795  0
C  C67  1  0.99157989  0.26450358  0.29067136  1  0  -0.042354  0  3.713989  0  0.000584  0  -0.06601  0  3.958427  0  0  -0.065289  0  3.97592  0  0  -0.07526  -0.066305  0  3.946521  0
C  C68  1  0.49157913  0.23549435  0.79067716  1  0  -0.04226  0  3.714221  0  0.000446  0  -0.06588  0  3.958616  0  0  -0.065149  0  3.976098  0  0  -0.075261  -0.066176  0  3.946717  0
C  C69  1  0.00842390  0.73549876  0.70932695  1  0  -0.042261  0  3.714087  0  0.000452  0  -0.06592  0  3.958555  0  0  -0.06519  0  3.976037  0  0  -0.075246  -0.066224  0  3.946663  0
C  C70  1  0.74006228  0.22578013  0.49005920  1  0  0.084424  0  3.662004  0  0.417964  0  0.044684  0  3.91492  0  0  0.050045  0  3.933653  0  0  0.059866  0.041246  0  3.902329  0
C  C71  1  0.75993304  0.72578189  0.00994051  1  0  0.084317  0  3.662028  0  0.418  0  0.044598  0  3.91493  0  0  0.049959  0  3.933665  0  0  0.059832  0.041162  0  3.902336  0
C  C72  1  0.25993612  0.77421700  0.50994025  1  0  0.084368  0  3.662033  0  0.417948  0  0.044628  0  3.914957  0  0  0.049988  0  3.933695  0  0  0.059821  0.041191  0  3.902356  0
C  C73  1  0.24006267  0.27422045  0.99006081  1  0  0.084304  0  3.662075  0  0.418017  0  0.044563  0  3.915018  0  0  0.049923  0  3.933755  0  0  0.05982  0.041129  0  3.902413  0
C  C74  1  0.45141195  0.18398270  0.42900691  1  0  0.137853  0  3.672693  0  0.414894  0  0.105692  0  3.926124  0  0  0.112179  0  3.945659  0  0  0.055954  0.101644  0  3.912804  0
C  C75  1  0.04858499  0.68398497  0.07099274  1  0  0.137919  0  3.672477  0  0.414287  0  0.10574  0  3.925957  0  0  0.112227  0  3.945497  0  0  0.055968  0.10168  0  3.912634  0
C  C76  1  0.54858914  0.81601338  0.57099275  1  0  0.138034  0  3.672496  0  0.414231  0  0.105876  0  3.925938  0  0  0.112361  0  3.945484  0  0  0.056035  0.101822  0  3.912625  0
C  C77  1  0.95141341  0.31601841  0.92900775  1  0  0.137958  0  3.672552  0  0.414918  0  0.105775  0  3.926017  0  0  0.112262  0  3.945558  0  0  0.05599  0.101728  0  3.912698  0
C  C78  1  0.67256737  0.00300530  0.43274063  1  0  -0.053857  0  3.65924  0  0.040911  0  -0.079723  0  3.90385  0  0  -0.076761  0  3.923571  0  0  -0.054141  -0.081333  0  3.890228  0
C  C79  1  0.82743176  0.50300920  0.06726330  1  0  -0.053894  0  3.659198  0  0.040926  0  -0.079801  0  3.903804  0  0  -0.076839  0  3.923529  0  0  -0.054198  -0.081406  0  3.890177  0
C  C80  1  0.32743509  0.99698557  0.56726429  1  0  -0.054034  0  3.659399  0  0.040828  0  -0.079923  0  3.904005  0  0  -0.07696  0  3.923737  0  0  -0.054265  -0.081524  0  3.890373  0
C  C81  1  0.17256935  0.49699419  0.93274049  1  0  -0.05374  0  3.659285  0  0.040888  0  -0.079616  0  3.90392  0  0  -0.076652  0  3.923647  0  0  -0.054105  -0.081227  0  3.8903  0
C  C82  1  0.79646666  0.09281889  0.47405715  1  0  0.106845  0  3.807882  0  0.479223  0  0.117628  0  4.055889  0  0  0.113118  0  4.081234  0  0  0.093486  0.120353  0  4.038973  0
C  C83  1  0.70353202  0.59282156  0.02594537  1  0  0.106923  0  3.807967  0  0.47912  0  0.117696  0  4.055989  0  0  0.113181  0  4.081337  0  0  0.093547  0.120423  0  4.039071  0
C  C84  1  0.20353445  0.90717720  0.52594612  1  0  0.106862  0  3.808004  0  0.479187  0  0.117667  0  4.055991  0  0  0.11315  0  4.081339  0  0  0.093557  0.120396  0  4.039074  0
C  C85  1  0.29646774  0.40718183  0.97405832  1  0  0.106787  0  3.807964  0  0.479207  0  0.117547  0  4.056015  0  0  0.113032  0  4.081361  0  0  0.093474  0.120274  0  4.039093  0
C  C86  1  0.49744293  0.05012416  0.40978519  1  0  -0.108238  0  3.718798  0  -0.013634  0  -0.119707  0  3.968766  0  0  -0.127836  0  3.991774  0  0  -0.075705  -0.114428  0  3.953184  0
C  C87  1  0.00255738  0.55012622  0.09021624  1  0  -0.108191  0  3.718705  0  -0.013479  0  -0.119694  0  3.968707  0  0  -0.127844  0  3.991706  0  0  -0.075701  -0.114413  0  3.953127  0
C  C88  1  0.50255952  0.94986879  0.59021612  1  0  -0.108233  0  3.71888  0  -0.013539  0  -0.119702  0  3.968857  0  0  -0.127869  0  3.99185  0  0  -0.075682  -0.114423  0  3.953288  0
C  C89  1  0.99744642  0.44987716  0.90978568  1  0  -0.108291  0  3.718825  0  -0.013336  0  -0.119776  0  3.968809  0  0  -0.127928  0  3.991813  0  0  -0.075744  -0.114494  0  3.953226  0
S  S90  1  0.40877948  0.63431613  0.32918680  1  0  1.222882  0  5.40608  0  2.884536  0  1.139326  0  5.912696  0  0  1.184548  0  5.897668  0  0  0.551536  1.108193  0  5.921884  0
S  S91  1  0.09121905  0.13432054  0.17080798  1  0  1.222909  0  5.405948  0  2.884758  0  1.139344  0  5.9126  0  0  1.184566  0  5.89757  0  0  0.551568  1.108209  0  5.921784  0
S  S92  1  0.59121353  0.36568100  0.67081070  1  0  1.222758  0  5.406053  0  2.884551  0  1.139216  0  5.912655  0  0  1.184437  0  5.897627  0  0  0.551474  1.108083  0  5.921844  0
S  S93  1  0.90878339  0.86568285  0.82919126  1  0  1.222967  0  5.405884  0  2.884559  0  1.139358  0  5.912552  0  0  1.184578  0  5.897521  0  0  0.551524  1.108221  0  5.921738  0
N  N94  1  0.57336717  0.58974080  0.39506715  1  0  -0.709493  0  2.987574  0  -1.297165  0  -0.640521  0  3.293564  0  0  -0.670676  0  3.294739  0  0  -0.40099  -0.619765  0  3.291636  0
N  N95  1  0.92663420  0.08974246  0.10492939  1  0  -0.709432  0  2.987767  0  -1.29729  0  -0.640512  0  3.293786  0  0  -0.670673  0  3.294965  0  0  -0.400973  -0.619755  0  3.29186  0
N  N96  1  0.42662719  0.41025529  0.60493045  1  0  -0.709376  0  2.987744  0  -1.297206  0  -0.640416  0  3.293697  0  0  -0.670572  0  3.294871  0  0  -0.400942  -0.619661  0  3.291774  0
N  N97  1  0.07336689  0.91025780  0.89507079  1  0  -0.709532  0  2.987895  0  -1.297304  0  -0.640546  0  3.293846  0  0  -0.670706  0  3.295026  0  0  -0.401027  -0.619787  0  3.291918  0
N  N98  1  0.57081439  0.27031965  0.46837195  1  0  -0.32783  0  3.256425  0  -1.28911  0  -0.25055  0  3.522935  0  0  -0.270632  0  3.54445  0  0  -0.326533  -0.236935  0  3.507903  0
N  N99  1  0.92918206  0.77032287  0.03162613  1  0  -0.327883  0  3.256299  0  -1.28852  0  -0.250618  0  3.522808  0  0  -0.270698  0  3.54432  0  0  -0.326602  -0.237004  0  3.507784  0
N  N100  1  0.42918671  0.72967852  0.53162615  1  0  -0.327943  0  3.256318  0  -1.288486  0  -0.250679  0  3.522843  0  0  -0.27076  0  3.544353  0  0  -0.326608  -0.237062  0  3.507811  0
N  N101  1  0.07081500  0.22967948  0.96837426  1  0  -0.327857  0  3.25633  0  -1.289152  0  -0.25057  0  3.522828  0  0  -0.27065  0  3.54434  0  0  -0.326559  -0.236952  0  3.507789  0
N  N102  1  0.97945147  0.06378028  0.50106384  1  0  -0.132028  0  2.984799  0  -0.505899  0  -0.110666  0  3.260923  0  0  -0.110509  0  3.270428  0  0  -0.136701  -0.110684  0  3.254728  0
N  N103  1  0.52054965  0.56378235  0.99894059  1  0  -0.132166  0  2.984982  0  -0.505804  0  -0.110825  0  3.261135  0  0  -0.110666  0  3.270638  0  0  -0.136774  -0.110839  0  3.254938  0
N  N104  1  0.02055099  0.93621476  0.49894057  1  0  -0.131945  0  2.984836  0  -0.466192  0  -0.11059  0  3.260947  0  0  -0.110433  0  3.270455  0  0  -0.136675  -0.110605  0  3.254751  0
N  N105  1  0.47945011  0.43621895  0.00106413  1  0  -0.131821  0  2.984785  0  -0.466312  0  -0.110441  0  3.260896  0  0  -0.110279  0  3.270399  0  0  -0.136611  -0.110454  0  3.254695  0
O  O106  1  0.31374489  0.51147210  0.29793014  1  0  -0.587202  0  1.89072  0  -1.31857  0  -0.543557  0  2.120064  0  0  -0.565116  0  2.109886  0  0  -0.314032  -0.528258  0  2.126558  0
O  O107  1  0.18625829  0.01147272  0.20206752  1  0  -0.587314  0  1.890427  0  -1.318436  0  -0.543611  0  2.119721  0  0  -0.56517  0  2.109544  0  0  -0.314057  -0.52831  0  2.126214  0
O  O108  1  0.68625217  0.48853129  0.70206922  1  0  -0.587215  0  1.890477  0  -1.318465  0  -0.543558  0  2.119787  0  0  -0.565117  0  2.10961  0  0  -0.314021  -0.528259  0  2.126281  0
O  O109  1  0.81374281  0.98853066  0.79793317  1  0  -0.587291  0  1.890489  0  -1.318495  0  -0.543567  0  2.119774  0  0  -0.565126  0  2.109597  0  0  -0.314002  -0.528265  0  2.126267  0
O  O110  1  0.88345308  0.60191276  0.42473868  1  0  -0.593634  0  2.014184  0  -1.202699  0  -0.531205  0  2.24062  0  0  -0.554552  0  2.229466  0  0  -0.29474  -0.515065  0  2.248086  0
O  O111  1  0.61654689  0.10191440  0.07525823  1  0  -0.593687  0  2.014165  0  -1.202734  0  -0.531183  0  2.240522  0  0  -0.554537  0  2.229373  0  0  -0.294731  -0.515038  0  2.247985  0
O  O112  1  0.11654532  0.39808124  0.57525923  1  0  -0.593608  0  2.014203  0  -1.202744  0  -0.531184  0  2.240599  0  0  -0.554539  0  2.229453  0  0  -0.294759  -0.515038  0  2.248064  0
O  O113  1  0.38345420  0.89808585  0.92474091  1  0  -0.593592  0  2.014169  0  -1.202739  0  -0.531146  0  2.240564  0  0  -0.554492  0  2.229411  0  0  -0.294746  -0.515  0  2.248026  0
O  O114  1  0.29991515  0.74312962  0.35255402  1  0  -0.594807  0  1.929833  0  -1.325557  0  -0.546047  0  2.163487  0  0  -0.567555  0  2.152463  0  0  -0.307326  -0.530715  0  2.170339  0
O  O115  1  0.20008418  0.24312792  0.14743938  1  0  -0.594851  0  1.929824  0  -1.325685  0  -0.546109  0  2.163488  0  0  -0.567615  0  2.152463  0  0  -0.307394  -0.530804  0  2.170402  0
O  O116  1  0.70008190  0.25686960  0.64744481  1  0  -0.594809  0  1.929855  0  -1.32559  0  -0.546069  0  2.163522  0  0  -0.567582  0  2.152503  0  0  -0.307346  -0.530736  0  2.170376  0
O  O117  1  0.79991422  0.75687338  0.85255904  1  0  -0.594885  0  1.929715  0  -1.3256  0  -0.54613  0  2.163388  0  0  -0.567637  0  2.15236  0  0  -0.30738  -0.530818  0  2.170294  0
O  O118  1  0.19579169  0.44206414  0.44962684  1  0  -0.827128  0  1.862493  0  -1.302622  0  -0.766229  0  2.064003  0  0  -0.787365  0  2.030323  0  0  -0.586489  -0.751222  0  2.087373  0
O  O119  1  0.30420802  0.94206417  0.05037257  1  0  -0.827056  0  1.862454  0  -1.302644  0  -0.766174  0  2.064014  0  0  -0.787303  0  2.030345  0  0  -0.586448  -0.751166  0  2.087383  0
O  O120  1  0.80420805  0.55793507  0.55037168  1  0  -0.827058  0  1.862449  0  -1.30259  0  -0.766172  0  2.063984  0  0  -0.787302  0  2.030316  0  0  -0.586451  -0.751163  0  2.087353  0
O  O121  1  0.69579307  0.05793713  0.94962709  1  0  -0.827026  0  1.86245  0  -1.302407  0  -0.766185  0  2.064004  0  0  -0.787319  0  2.030324  0  0  -0.586472  -0.751176  0  2.087372  0
