# generated using pymatgen
data_H8PbC7(N2Cl)2
_symmetry_space_group_name_H-M   'P 1'
_cell_length_a   8.96656318
_cell_length_b   8.96501983
_cell_length_c   14.52939204
_cell_angle_alpha   101.35622851
_cell_angle_beta   107.46971037
_cell_angle_gamma   101.21761911
_symmetry_Int_Tables_number   1
_chemical_formula_structural   H8PbC7(N2Cl)2
_chemical_formula_sum   'H32 Pb4 C28 N16 Cl8'
_cell_volume   1051.32670744
_cell_formula_units_Z   4
loop_
 _symmetry_equiv_pos_site_id
 _symmetry_equiv_pos_as_xyz
  1  'x, y, z'
loop_
 _atom_site_type_symbol
 _atom_site_label
 _atom_site_symmetry_multiplicity
 _atom_site_fract_x
 _atom_site_fract_y
 _atom_site_fract_z
 _atom_site_occupancy
 _atom_site_pbe_bader_charge
 _atom_site_pbe_bader_spin_density
 _atom_site_pbe_cm5_charge
 _atom_site_pbe_ddec_charge
 _atom_site_pbe_ddec_spin_density
 _atom_site_pbe_ddec_sum_bond_order
 _atom_site_pbe_magmom
H  H0  1  0.81912064  0.73992197  0.78567725  1  0.134906  0  0.109655  0.111023  0  1.033294  0
H  H1  1  0.45418638  0.03328529  0.71449200  1  0.167001  0  0.109696  0.111805  0  1.033234  0
H  H2  1  0.18078472  0.25991703  0.21431979  1  0.13423  0  0.109612  0.110828  0  1.033469  0
H  H3  1  0.54597722  0.96675746  0.28548671  1  0.167608  0  0.109704  0.111875  0  1.032851  0
H  H4  1  0.52223342  0.50757770  0.71191765  1  0.142789  0  0.11687  0.120776  0  1.054703  0
H  H5  1  0.29581673  0.81022141  0.78838264  1  0.17085  0  0.11732  0.121252  0  1.05542  0
H  H6  1  0.47767332  0.49226734  0.28804180  1  0.141224  0  0.116892  0.120568  0  1.055159  0
H  H7  1  0.70425479  0.18980998  0.21154777  1  0.136176  0  0.117602  0.121806  0  1.054992  0
H  H8  1  0.52282835  0.79813925  0.51437616  1  0.180129  0  0.121295  0.107409  0  1.039292  0
H  H9  1  0.78391476  0.00858266  0.98581550  1  0.197738  0  0.121668  0.10723  0  1.039138  0
H  H10  1  0.47705711  0.20189557  0.48569429  1  0.179984  0  0.121357  0.107295  0  1.039385  0
H  H11  1  0.21608271  0.99147020  0.01423342  1  0.197649  0  0.121653  0.107197  0  1.038967  0
H  H12  1  0.29046344  0.41698755  0.53034151  1  0.127776  0  0.121961  0.102645  0  1.010264  0
H  H13  1  0.38682913  0.75987747  0.96980161  1  0.152662  0  0.121767  0.102601  0  1.009455  0
H  H14  1  0.70940355  0.58299533  0.46966561  1  0.128181  0  0.121884  0.102553  0  1.010392  0
H  H15  1  0.61311924  0.24002930  0.03009434  1  0.152485  0  0.121919  0.102925  0  1.00932  0
H  H16  1  0.28402906  0.56314519  0.46072809  1  0.158957  0  0.120788  0.099598  0  1.016457  0
H  H17  1  0.60258250  0.82298448  0.03943271  1  0.159357  0  0.120807  0.100358  0  1.015851  0
H  H18  1  0.71587553  0.43685460  0.53929770  1  0.158581  0  0.120922  0.099781  0  1.016205  0
H  H19  1  0.39734471  0.17698590  0.96053538  1  0.158328  0  0.120898  0.100619  0  1.016207  0
H  H20  1  0.13632467  0.41241968  0.64606921  1  0.140047  0  0.116003  0.121315  0  1.042247  0
H  H21  1  0.26648560  0.49023691  0.85382896  1  0.127957  0  0.115345  0.119973  0  1.043519  0
H  H22  1  0.86355263  0.58760241  0.35396238  1  0.139956  0  0.115861  0.121066  0  1.0422  0
H  H23  1  0.73362307  0.50969389  0.14602047  1  0.126448  0  0.115245  0.119736  0  1.043782  0
H  H24  1  0.95774230  0.60677004  0.70921674  1  0.139837  0  0.106198  0.10248  0  1.062602  0
H  H25  1  0.39743814  0.24831818  0.79081436  1  0.130735  0  0.106657  0.103373  0  1.062053  0
H  H26  1  0.04220773  0.39331082  0.29082610  1  0.140387  0  0.106118  0.102253  0  1.06292  0
H  H27  1  0.60283647  0.75170548  0.20912409  1  0.132354  0  0.106628  0.103156  0  1.062087  0
H  H28  1  0.19651144  0.81633942  0.53694897  1  0.161498  0  0.120798  0.091544  0  1.059621  0
H  H29  1  0.77949415  0.65923107  0.96297760  1  0.178004  0  0.120546  0.09062  0  1.058706  0
H  H30  1  0.80338002  0.18363992  0.46303891  1  0.161407  0  0.120739  0.091435  0  1.059462  0
H  H31  1  0.22061180  0.34087119  0.03709467  1  0.178645  0  0.120642  0.090748  0  1.058606  0
Pb  Pb32  1  0.94307059  0.00001534  0.63730864  1  1.276119  0  0.482502  0.876726  0  2.11768  0
Pb  Pb33  1  0.86277273  0.30553203  0.86250109  1  1.276948  0  0.482832  0.877543  0  2.115663  0
Pb  Pb34  1  0.05682835  0.99996372  0.36270679  1  1.276129  0  0.482499  0.876778  0  2.117232  0
Pb  Pb35  1  0.13736092  0.69449881  0.13753273  1  1.276915  0  0.482928  0.877677  0  2.115385  0
C  C36  1  0.71385107  0.71781713  0.71853589  1  0.331078  0  0.000357  -0.026038  0  3.983861  0
C  C37  1  0.49929959  0.99515144  0.78162337  1  0.373615  0  -0.000819  -0.028499  0  3.988355  0
C  C38  1  0.28606425  0.28206413  0.28146402  1  0.34505  0  0.000126  -0.026087  0  3.984226  0
C  C39  1  0.50082290  0.00488110  0.21836032  1  0.373257  0  -0.000673  -0.028024  0  3.986741  0
C  C40  1  0.56812157  0.60398453  0.68434524  1  0.340815  0  -0.002891  -0.104656  0  3.907345  0
C  C41  1  0.41976550  0.88373314  0.81590576  1  0.261759  0  -0.00366  -0.104869  0  3.91054  0
C  C42  1  0.43178987  0.39589944  0.31564370  1  0.329252  0  -0.002984  -0.104612  0  3.907732  0
C  C43  1  0.58032163  0.11628855  0.18404733  1  0.295891  0  -0.004193  -0.106249  0  3.910285  0
C  C44  1  0.56628269  0.75438107  0.57940643  1  0.962483  0  0.141209  0.085783  0  3.915842  0
C  C45  1  0.67511932  0.98692906  0.92077607  1  0.936999  0  0.142663  0.089184  0  3.912178  0
C  C46  1  0.43361447  0.24559707  0.42063438  1  0.966119  0  0.141193  0.085766  0  3.915826  0
C  C47  1  0.32490200  0.01311997  0.07925180  1  0.937336  0  0.14261  0.089052  0  3.911932  0
C  C48  1  0.30889406  0.54336225  0.53536423  1  0.616582  0  0.056352  0.010609  0  3.831434  0
C  C49  1  0.50816712  0.77338307  0.96477940  1  0.59133  0  0.05601  0.00909  0  3.831268  0
C  C50  1  0.69099411  0.45662072  0.46465106  1  0.617441  0  0.056233  0.010231  0  3.831406  0
C  C51  1  0.49181324  0.22658933  0.03515796  1  0.592059  0  0.055699  0.008112  0  3.832268  0
C  C52  1  0.12149194  0.52555018  0.63506974  1  0.292797  0  -0.000855  -0.106011  0  3.920492  0
C  C53  1  0.39061223  0.48628738  0.86495573  1  0.302863  0  -0.000307  -0.104708  0  3.921788  0
C  C54  1  0.87842564  0.47447640  0.36496548  1  0.290472  0  -0.001192  -0.106175  0  3.920386  0
C  C55  1  0.60952321  0.51368389  0.13496061  1  0.304919  0  2e-05  -0.104198  0  3.92162  0
C  C56  1  0.03306849  0.62245491  0.66411620  1  0.373206  0  -0.008883  -0.040579  0  4.013084  0
C  C57  1  0.45834768  0.36875717  0.83589972  1  0.415048  0  -0.008893  -0.041632  0  4.012751  0
C  C58  1  0.96686288  0.37760520  0.33592453  1  0.376367  0  -0.008596  -0.040423  0  4.012981  0
C  C59  1  0.54187449  0.63125741  0.16406428  1  0.410752  0  -0.008853  -0.041355  0  4.012709  0
C  C60  1  0.15326477  0.73523153  0.57573233  1  0.958126  0  0.139974  0.089252  0  3.935192  0
C  C61  1  0.65957914  0.57730351  0.92422847  1  0.928871  0  0.140108  0.089354  0  3.932978  0
C  C62  1  0.84664195  0.26476688  0.42426962  1  0.961204  0  0.140334  0.089695  0  3.934774  0
C  C63  1  0.34054770  0.42276814  0.07578673  1  0.927736  0  0.140007  0.089239  0  3.933775  0
N  N64  1  0.71112278  0.80942108  0.65202129  1  -1.212473  0  -0.324489  -0.277377  0  3.465218  0
N  N65  1  0.65743423  0.05904016  0.84810382  1  -1.234134  0  -0.324507  -0.277828  0  3.465598  0
N  N66  1  0.28878560  0.19052373  0.34802246  1  -1.213498  0  -0.324229  -0.27694  0  3.465203  0
N  N67  1  0.34265234  0.94102309  0.15192666  1  -1.233149  0  -0.324532  -0.277865  0  3.465481  0
N  N68  1  0.47638075  0.62843971  0.59606686  1  -1.248247  0  -0.246666  0.015474  0  3.781187  0
N  N69  1  0.53255036  0.88034191  0.90418095  1  -1.2381  0  -0.246072  0.014282  0  3.781717  0
N  N70  1  0.52352269  0.37150909  0.40395188  1  -1.252328  0  -0.246542  0.015758  0  3.78084  0
N  N71  1  0.46747468  0.11968222  0.09579632  1  -1.238473  0  -0.245922  0.015012  0  3.781363  0
N  N72  1  0.19646561  0.59848456  0.57886794  1  -1.232779  0  -0.245009  0.018774  0  3.774221  0
N  N73  1  0.51977134  0.61745899  0.92113463  1  -1.23275  0  -0.245336  0.020286  0  3.772396  0
N  N74  1  0.80343880  0.40152398  0.42115058  1  -1.232774  0  -0.244877  0.019369  0  3.773603  0
N  N75  1  0.48030712  0.38254224  0.07881452  1  -1.232258  0  -0.245641  0.019997  0  3.772963  0
N  N76  1  0.05395111  0.75277334  0.62660694  1  -1.21755  0  -0.325105  -0.290195  0  3.431273  0
N  N77  1  0.62615675  0.42704824  0.87338943  1  -1.24225  0  -0.325256  -0.290269  0  3.430767  0
N  N78  1  0.94598034  0.24725582  0.37341026  1  -1.221263  0  -0.32528  -0.290343  0  3.431518  0
N  N79  1  0.37404925  0.57302431  0.12663047  1  -1.240147  0  -0.325296  -0.290485  0  3.43108  0
Cl  Cl80  1  0.08205349  0.09154406  0.85309610  1  -0.710061  0  -0.301341  -0.547129  0  1.03845  0
Cl  Cl81  1  0.73819734  0.22865644  0.64669742  1  -0.709455  0  -0.301678  -0.547542  0  1.037815  0
Cl  Cl82  1  0.91800867  0.90840999  0.14688637  1  -0.710172  0  -0.301288  -0.547046  0  1.038281  0
Cl  Cl83  1  0.26177332  0.77144822  0.35336722  1  -0.709466  0  -0.301751  -0.547626  0  1.037717  0
Cl  Cl84  1  0.77114646  0.85836130  0.42466197  1  -0.715794  0  -0.298652  -0.561463  0  1.058788  0
Cl  Cl85  1  0.93400407  0.34674219  0.07532072  1  -0.715314  0  -0.298913  -0.561597  0  1.057503  0
Cl  Cl86  1  0.22876725  0.14161720  0.57535994  1  -0.715828  0  -0.29866  -0.561467  0  1.05868  0
Cl  Cl87  1  0.06611631  0.65328179  0.92472818  1  -0.715162  0  -0.298871  -0.561599  0  1.057834  0
