# generated using pymatgen
data_Cu2H16C20S(NO)4
_symmetry_space_group_name_H-M   'P 1'
_cell_length_a   9.60727482
_cell_length_b   9.61066513
_cell_length_c   13.94683977
_cell_angle_alpha   99.60252357
_cell_angle_beta   99.57401077
_cell_angle_gamma   112.88839550
_symmetry_Int_Tables_number   1
_chemical_formula_structural   Cu2H16C20S(NO)4
_chemical_formula_sum   'Cu4 H32 C40 S2 N8 O8'
_cell_volume   1131.20570522
_cell_formula_units_Z   2
loop_
 _symmetry_equiv_pos_site_id
 _symmetry_equiv_pos_as_xyz
  1  'x, y, z'
loop_
 _atom_site_type_symbol
 _atom_site_label
 _atom_site_symmetry_multiplicity
 _atom_site_fract_x
 _atom_site_fract_y
 _atom_site_fract_z
 _atom_site_occupancy
 _atom_site_hle17_bader_spin_density
 _atom_site_hle17_ddec_charge
 _atom_site_hle17_ddec_spin_density
 _atom_site_hle17_ddec_sum_bond_order
 _atom_site_hle17_magmom
 _atom_site_hse06_10hf_bader_spin_density
 _atom_site_hse06_10hf_ddec_charge
 _atom_site_hse06_10hf_ddec_spin_density
 _atom_site_hse06_10hf_ddec_sum_bond_order
 _atom_site_hse06_10hf_magmom
 _atom_site_hse06_bader_spin_density
 _atom_site_hse06_ddec_charge
 _atom_site_hse06_ddec_spin_density
 _atom_site_hse06_ddec_sum_bond_order
 _atom_site_hse06_magmom
 _atom_site_pbe_bader_spin_density
 _atom_site_pbe_cm5_charge
 _atom_site_pbe_ddec_charge
 _atom_site_pbe_ddec_spin_density
 _atom_site_pbe_ddec_sum_bond_order
 _atom_site_pbe_magmom
Cu  Cu0  1  0.04714439  0.12636194  0.68886691  1  0  0.449216  0  1.786199  0  0  0.311123  0  2.266963  0  0  0.318941  0  2.216769  0  0  0.511601  0.308116  0  2.296687  0
Cu  Cu1  1  0.87364683  0.95282969  0.81112632  1  0  0.449165  0  1.786349  0  0  0.311055  0  2.267287  0  0  0.318939  0  2.217112  0  0  0.511542  0.308029  0  2.297048  0
Cu  Cu2  1  0.95284668  0.87365686  0.31113123  1  0  0.449155  0  1.786211  0  0  0.311124  0  2.26697  0  0  0.318971  0  2.216807  0  0  0.511572  0.308115  0  2.29668  0
Cu  Cu3  1  0.12636819  0.04716317  0.18887445  1  0  0.449269  0  1.786097  0  0  0.311121  0  2.266998  0  0  0.319023  0  2.216813  0  0  0.511568  0.308088  0  2.296866  0
H  H4  1  0.12825947  0.43859729  0.79732052  1  0  0.104327  0  0.944403  0  0  0.111679  0  1.003596  0  0  0.115055  0  1.000535  0  0  0.120428  0.109394  0  1.005497  0
H  H5  1  0.56135447  0.87161932  0.70268635  1  0  0.104306  0  0.944461  0  0  0.111633  0  1.0037  0  0  0.114994  0  1.000657  0  0  0.12038  0.109343  0  1.005611  0
H  H6  1  0.87174396  0.56145007  0.20265456  1  0  0.104314  0  0.944627  0  0  0.111615  0  1.003856  0  0  0.114986  0  1.000802  0  0  0.120411  0.109331  0  1.005761  0
H  H7  1  0.43867064  0.12837923  0.29730843  1  0  0.104194  0  0.944542  0  0  0.111549  0  1.003775  0  0  0.114908  0  1.000725  0  0  0.120352  0.109264  0  1.005677  0
H  H8  1  0.37084540  0.66823943  0.89959086  1  0  0.102308  0  0.943356  0  0  0.118201  0  0.993357  0  0  0.121041  0  0.992741  0  0  0.11065  0.115982  0  0.994196  0
H  H9  1  0.33168939  0.62904524  0.60042006  1  0  0.102261  0  0.943166  0  0  0.118194  0  0.993122  0  0  0.121032  0  0.992504  0  0  0.110522  0.115979  0  0.993959  0
H  H10  1  0.62917498  0.33180125  0.10038974  1  0  0.102452  0  0.943362  0  0  0.118419  0  0.993265  0  0  0.121247  0  0.992665  0  0  0.110762  0.116204  0  0.994104  0
H  H11  1  0.66833038  0.37095103  0.39958025  1  0  0.102216  0  0.943162  0  0  0.11819  0  0.993085  0  0  0.121003  0  0.992495  0  0  0.110523  0.115973  0  0.993926  0
H  H12  1  0.61799903  0.37792731  0.85451480  1  0  0.130651  0  0.994298  0  0  0.137616  0  1.053641  0  0  0.14173  0  1.051464  0  0  0.112363  0.134441  0  1.055673  0
H  H13  1  0.62209364  0.38202847  0.64553560  1  0  0.13048  0  0.99475  0  0  0.137698  0  1.053731  0  0  0.141824  0  1.051533  0  0  0.112353  0.134512  0  1.055774  0
H  H14  1  0.38198368  0.62205794  0.14551060  1  0  0.130598  0  0.994632  0  0  0.137622  0  1.053878  0  0  0.141739  0  1.051698  0  0  0.112356  0.134446  0  1.055907  0
H  H15  1  0.37791231  0.61795162  0.35446543  1  0  0.130491  0  0.994756  0  0  0.137718  0  1.053705  0  0  0.141841  0  1.05151  0  0  0.11237  0.134531  0  1.055744  0
H  H16  1  0.36930969  0.16562121  0.75652698  1  0  0.082063  0  0.929412  0  0  0.090749  0  0.992969  0  0  0.094209  0  0.989015  0  0  0.116706  0.088073  0  0.995928  0
H  H17  1  0.83442502  0.63070449  0.74349892  1  0  0.082196  0  0.929291  0  0  0.090912  0  0.992788  0  0  0.094358  0  0.988845  0  0  0.116795  0.088232  0  0.995745  0
H  H18  1  0.63065984  0.83437657  0.24349118  1  0  0.08197  0  0.929336  0  0  0.090663  0  0.992928  0  0  0.094109  0  0.988978  0  0  0.116662  0.08799  0  0.995879  0
H  H19  1  0.16557881  0.36927564  0.25650401  1  0  0.082126  0  0.929293  0  0  0.090824  0  0.992829  0  0  0.094276  0  0.988888  0  0  0.116707  0.088148  0  0.995799  0
H  H20  1  0.82824573  0.05163916  0.09307142  1  0  0.074976  0  0.923723  0  0  0.087837  0  0.980821  0  0  0.09061  0  0.977713  0  0  0.117264  0.085858  0  0.982997  0
H  H21  1  0.94828198  0.17170147  0.40693922  1  0  0.075095  0  0.923418  0  0  0.08799  0  0.98048  0  0  0.090774  0  0.977369  0  0  0.117337  0.086011  0  0.982641  0
H  H22  1  0.17176212  0.94836343  0.90693253  1  0  0.075004  0  0.923718  0  0  0.087867  0  0.980804  0  0  0.090638  0  0.977699  0  0  0.117284  0.085891  0  0.982968  0
H  H23  1  0.05172310  0.82832029  0.59306382  1  0  0.075047  0  0.92356  0  0  0.087926  0  0.980633  0  0  0.090711  0  0.977523  0  0  0.11731  0.085945  0  0.9828  0
H  H24  1  0.58060671  0.85311303  0.97781032  1  0  0.107035  0  0.938246  0  0  0.122913  0  0.987009  0  0  0.125466  0  0.98643  0  0  0.112006  0.120898  0  0.987845  0
H  H25  1  0.14677298  0.41929413  0.52224065  1  0  0.107041  0  0.938277  0  0  0.122892  0  0.987071  0  0  0.125435  0  0.986509  0  0  0.112146  0.120879  0  0.987901  0
H  H26  1  0.41940006  0.14689190  0.02219808  1  0  0.107041  0  0.938242  0  0  0.12291  0  0.987024  0  0  0.125463  0  0.986448  0  0  0.111986  0.120901  0  0.987859  0
H  H27  1  0.85324527  0.58071510  0.47776964  1  0  0.107002  0  0.938185  0  0  0.122911  0  0.986919  0  0  0.125458  0  0.986353  0  0  0.112138  0.120893  0  0.987759  0
H  H28  1  0.81144179  0.54707821  0.93580056  1  0  0.141309  0  0.972993  0  0  0.151307  0  1.028101  0  0  0.155202  0  1.025861  0  0  0.115658  0.148346  0  1.030095  0
H  H29  1  0.45295152  0.18861956  0.56420149  1  0  0.141335  0  0.972786  0  0  0.151314  0  1.027924  0  0  0.155205  0  1.02569  0  0  0.115723  0.148351  0  1.029918  0
H  H30  1  0.18855405  0.45292997  0.06418255  1  0  0.141299  0  0.973092  0  0  0.151316  0  1.028159  0  0  0.155211  0  1.025921  0  0  0.115673  0.148352  0  1.030151  0
H  H31  1  0.54703361  0.81136127  0.43580073  1  0  0.141355  0  0.972693  0  0  0.151281  0  1.027909  0  0  0.155175  0  1.025672  0  0  0.11572  0.148322  0  1.029903  0
H  H32  1  0.04658980  0.75662056  0.05808628  1  0  0.104842  0  0.948338  0  0  0.112527  0  1.006082  0  0  0.115635  0  1.003368  0  0  0.121627  0.110063  0  1.008209  0
H  H33  1  0.24341139  0.95348352  0.44190065  1  0  0.104753  0  0.94846  0  0  0.112424  0  1.006157  0  0  0.115532  0  1.003447  0  0  0.12159  0.109954  0  1.008279  0
H  H34  1  0.95340356  0.24337093  0.94190314  1  0  0.104789  0  0.948508  0  0  0.11252  0  1.0062  0  0  0.115625  0  1.00349  0  0  0.121644  0.110056  0  1.008328  0
H  H35  1  0.75656937  0.04651066  0.55809690  1  0  0.104708  0  0.948479  0  0  0.112387  0  1.006162  0  0  0.115497  0  1.003451  0  0  0.12158  0.109921  0  1.008295  0
C  C36  1  0.24080231  0.43281560  0.81263836  1  0  0.118904  0  3.664637  0  0  0.090908  0  3.907185  0  0  0.096754  0  3.925589  0  0  0.040262  0.087098  0  3.895121  0
C  C37  1  0.56714655  0.75910956  0.68737517  1  0  0.11928  0  3.664726  0  0  0.09134  0  3.907291  0  0  0.097207  0  3.925687  0  0  0.040453  0.087538  0  3.895211  0
C  C38  1  0.75920476  0.56721237  0.18734702  1  0  0.119105  0  3.66469  0  0  0.091166  0  3.907272  0  0  0.097017  0  3.925675  0  0  0.040265  0.087373  0  3.895199  0
C  C39  1  0.43286694  0.24087754  0.31261827  1  0  0.119454  0  3.664951  0  0  0.091493  0  3.907604  0  0  0.097373  0  3.925977  0  0  0.040523  0.087693  0  3.895522  0
C  C40  1  0.37767263  0.55963643  0.86946461  1  0  -0.150884  0  3.713142  0  0  -0.170801  0  3.962893  0  0  -0.178035  0  3.984955  0  0  -0.082326  -0.166077  0  3.948383  0
C  C41  1  0.44032381  0.62225384  0.63055567  1  0  -0.151254  0  3.713162  0  0  -0.171227  0  3.962939  0  0  -0.178459  0  3.985003  0  0  -0.082432  -0.166498  0  3.948425  0
C  C42  1  0.62235208  0.44039788  0.13052937  1  0  -0.151263  0  3.713232  0  0  -0.171248  0  3.962981  0  0  -0.178473  0  3.985051  0  0  -0.082447  -0.166525  0  3.948473  0
C  C43  1  0.55968917  0.37773912  0.36944344  1  0  -0.151164  0  3.712738  0  0  -0.171233  0  3.962486  0  0  -0.178445  0  3.984552  0  0  -0.082354  -0.16651  0  3.947985  0
C  C44  1  0.51953569  0.54585059  0.88837746  1  0  0.086399  0  3.744276  0  0  0.096674  0  3.979609  0  0  0.100397  0  4.001238  0  0  0.009495  0.094053  0  3.964808  0
C  C45  1  0.45412325  0.48042254  0.61164966  1  0  0.086613  0  3.743753  0  0  0.096894  0  3.979093  0  0  0.10062  0  4.000718  0  0  0.00961  0.094268  0  3.964283  0
C  C46  1  0.48045784  0.45416446  0.11162483  1  0  0.086452  0  3.744032  0  0  0.09675  0  3.9793  0  0  0.100469  0  4.000926  0  0  0.009531  0.094133  0  3.964485  0
C  C47  1  0.54588865  0.51957276  0.38835390  1  0  0.086452  0  3.743883  0  0  0.09693  0  3.978993  0  0  0.100659  0  4.000609  0  0  0.009588  0.094299  0  3.964198  0
C  C48  1  0.51344257  0.39912674  0.84728387  1  0  -0.145734  0  3.668637  0  0  -0.163903  0  3.913983  0  0  -0.17144  0  3.935552  0  0  -0.079616  -0.158326  0  3.899414  0
C  C49  1  0.60088896  0.48655333  0.65275349  1  0  -0.14555  0  3.668928  0  0  -0.16382  0  3.914064  0  0  -0.171355  0  3.93562  0  0  -0.079508  -0.158237  0  3.899497  0
C  C50  1  0.48653908  0.60087426  0.15272895  1  0  -0.145824  0  3.669015  0  0  -0.164029  0  3.914299  0  0  -0.171564  0  3.935856  0  0  -0.079731  -0.158445  0  3.899717  0
C  C51  1  0.39911912  0.51343375  0.34725149  1  0  -0.145506  0  3.66934  0  0  -0.16385  0  3.914423  0  0  -0.171386  0  3.935986  0  0  -0.079564  -0.158265  0  3.899856  0
C  C52  1  0.37292099  0.27782865  0.79078555  1  0  0.119021  0  3.703  0  0  0.087725  0  3.953687  0  0  0.093926  0  3.971738  0  0  0.041451  0.083542  0  3.942758  0
C  C53  1  0.72218993  0.62706247  0.70924292  1  0  0.118701  0  3.703323  0  0  0.08736  0  3.954177  0  0  0.093572  0  3.972233  0  0  0.041264  0.083177  0  3.943238  0
C  C54  1  0.62706394  0.72218176  0.20922736  1  0  0.119151  0  3.70301  0  0  0.087811  0  3.953813  0  0  0.094038  0  3.971841  0  0  0.041471  0.083628  0  3.942886  0
C  C55  1  0.27782493  0.37292321  0.29075984  1  0  0.118702  0  3.703234  0  0  0.087411  0  3.954116  0  0  0.093608  0  3.972186  0  0  0.041362  0.08322  0  3.943198  0
C  C56  1  0.81808011  0.93682268  0.05808476  1  0  0.106731  0  3.741769  0  0  0.073669  0  3.998578  0  0  0.080743  0  4.014337  0  0  0.035151  0.06827  0  3.989156  0
C  C57  1  0.06312468  0.18188936  0.44192290  1  0  0.106389  0  3.741421  0  0  0.073318  0  3.998312  0  0  0.080383  0  4.014007  0  0  0.035112  0.067921  0  3.988874  0
C  C58  1  0.18192672  0.06317996  0.94191835  1  0  0.106546  0  3.741589  0  0  0.073539  0  3.998431  0  0  0.080597  0  4.014158  0  0  0.035085  0.068146  0  3.988994  0
C  C59  1  0.93687917  0.81812056  0.55807929  1  0  0.10646  0  3.741241  0  0  0.073378  0  3.998153  0  0  0.080441  0  4.013847  0  0  0.035061  0.067986  0  3.9887  0
C  C60  1  0.67951630  0.82409812  0.99277977  1  0  -0.147019  0  3.712244  0  0  -0.166538  0  3.963574  0  0  -0.172539  0  3.982815  0  0  -0.080764  -0.162802  0  3.950759  0
C  C61  1  0.17584040  0.32043660  0.50724531  1  0  -0.146618  0  3.712373  0  0  -0.166128  0  3.963706  0  0  -0.172134  0  3.982967  0  0  -0.080816  -0.162404  0  3.950882  0
C  C62  1  0.32048740  0.17590463  0.00722370  1  0  -0.146978  0  3.712386  0  0  -0.166524  0  3.963709  0  0  -0.172529  0  3.982955  0  0  -0.080738  -0.162798  0  3.950901  0
C  C63  1  0.82417370  0.67957280  0.49276450  1  0  -0.146671  0  3.71229  0  0  -0.166229  0  3.963639  0  0  -0.172241  0  3.982909  0  0  -0.080849  -0.162503  0  3.950803  0
C  C64  1  0.66806604  0.67560733  0.94975477  1  0  0.094258  0  3.740505  0  0  0.102233  0  3.978634  0  0  0.107786  0  3.998486  0  0  0.012107  0.099433  0  3.964569  0
C  C65  1  0.32436046  0.33191599  0.55026152  1  0  0.093759  0  3.740872  0  0  0.101717  0  3.979023  0  0  0.107274  0  3.998841  0  0  0.011911  0.09892  0  3.964947  0
C  C66  1  0.33192738  0.32439592  0.05024252  1  0  0.094078  0  3.74085  0  0  0.102098  0  3.978889  0  0  0.107651  0  3.998746  0  0  0.012042  0.099291  0  3.964813  0
C  C67  1  0.67564580  0.66808311  0.44974110  1  0  0.093813  0  3.740995  0  0  0.101717  0  3.979115  0  0  0.107273  0  3.998945  0  0  0.011983  0.098921  0  3.965023  0
C  C68  1  0.80631531  0.65508649  0.97001922  1  0  -0.151044  0  3.658567  0  0  -0.169344  0  3.906145  0  0  -0.176262  0  3.92483  0  0  -0.076609  -0.165385  0  3.893478  0
C  C69  1  0.34492949  0.19372798  0.52998371  1  0  -0.150942  0  3.658464  0  0  -0.169293  0  3.90601  0  0  -0.176214  0  3.924712  0  0  -0.076736  -0.165329  0  3.893314  0
C  C70  1  0.19369441  0.34492219  0.02997349  1  0  -0.150942  0  3.658784  0  0  -0.169258  0  3.906319  0  0  -0.17618  0  3.925012  0  0  -0.076651  -0.165292  0  3.893638  0
C  C71  1  0.65506247  0.80625617  0.47001828  1  0  -0.150705  0  3.658137  0  0  -0.169047  0  3.905698  0  0  -0.175966  0  3.924396  0  0  -0.076617  -0.165083  0  3.892996  0
C  C72  1  0.94046396  0.77269260  0.03653895  1  0  0.128351  0  3.653687  0  0  0.098029  0  3.89943  0  0  0.105061  0  3.915107  0  0  0.041344  0.093869  0  3.888565  0
C  C73  1  0.22733435  0.05959265  0.46346042  1  0  0.128428  0  3.653569  0  0  0.098296  0  3.899161  0  0  0.105297  0  3.91483  0  0  0.041556  0.094142  0  3.888272  0
C  C74  1  0.05953923  0.22729965  0.96345388  1  0  0.128334  0  3.653703  0  0  0.097994  0  3.899497  0  0  0.105006  0  3.915154  0  0  0.04144  0.093824  0  3.888634  0
C  C75  1  0.77266460  0.94040435  0.53654108  1  0  0.128239  0  3.653496  0  0  0.098115  0  3.899043  0  0  0.10512  0  3.914709  0  0  0.041521  0.093946  0  3.888164  0
S  S76  1  0.77256642  0.22738698  0.75002556  1  0  1.537596  0  5.894881  0  0  1.428297  0  6.426551  0  0  1.48119  0  6.394596  0  0  0.520459  1.391183  0  6.447529  0
S  S77  1  0.22741043  0.77259186  0.24997256  1  0  1.537223  0  5.895404  0  0  1.427903  0  6.427081  0  0  1.480779  0  6.39515  0  0  0.520243  1.390785  0  6.448075  0
N  N78  1  0.23704517  0.29226468  0.77281284  1  0  -0.296378  0  3.430926  0  0  -0.210142  0  3.721046  0  0  -0.223364  0  3.732429  0  0  -0.376714  -0.202315  0  3.714159  0
N  N79  1  0.70773158  0.76289720  0.72719986  1  0  -0.296255  0  3.430428  0  0  -0.210084  0  3.720593  0  0  -0.223335  0  3.732031  0  0  -0.376486  -0.202248  0  3.713709  0
N  N80  1  0.76293666  0.70775692  0.22718096  1  0  -0.296264  0  3.430633  0  0  -0.210062  0  3.720769  0  0  -0.223302  0  3.73218  0  0  -0.376576  -0.202253  0  3.713895  0
N  N81  1  0.29229213  0.23708700  0.27280091  1  0  -0.296225  0  3.430518  0  0  -0.210132  0  3.720777  0  0  -0.223372  0  3.73219  0  0  -0.376591  -0.202301  0  3.713952  0
N  N82  1  0.94651837  0.91103397  0.08358827  1  0  -0.31242  0  3.482398  0  0  -0.229175  0  3.783194  0  0  -0.240852  0  3.789819  0  0  -0.383206  -0.221993  0  3.777092  0
N  N83  1  0.08895634  0.05350823  0.41640652  1  0  -0.312194  0  3.482118  0  0  -0.229168  0  3.783045  0  0  -0.24076  0  3.789583  0  0  -0.383267  -0.221993  0  3.776871  0
N  N84  1  0.05347176  0.08895285  0.91640235  1  0  -0.312062  0  3.482252  0  0  -0.228967  0  3.783239  0  0  -0.240557  0  3.78978  0  0  -0.383239  -0.221789  0  3.777089  0
N  N85  1  0.91104130  0.94650663  0.58359839  1  0  -0.312165  0  3.48186  0  0  -0.229089  0  3.782692  0  0  -0.240674  0  3.789213  0  0  -0.383306  -0.221913  0  3.776519  0
O  O86  1  0.89898655  0.24548383  0.69527780  1  0  -0.765669  0  2.029173  0  0  -0.697035  0  2.308053  0  0  -0.717962  0  2.284267  0  0  -0.407638  -0.682041  0  2.323626  0
O  O87  1  0.75448141  0.10087969  0.80463003  1  0  -0.765873  0  2.029316  0  0  -0.697274  0  2.308336  0  0  -0.718202  0  2.284526  0  0  -0.407694  -0.682272  0  2.323931  0
O  O88  1  0.10099214  0.75451276  0.30472195  1  0  -0.765599  0  2.029253  0  0  -0.696991  0  2.30814  0  0  -0.717923  0  2.284368  0  0  -0.40759  -0.681989  0  2.323709  0
O  O89  1  0.24550736  0.89909282  0.19536445  1  0  -0.765778  0  2.029556  0  0  -0.697153  0  2.308573  0  0  -0.718077  0  2.284766  0  0  -0.407619  -0.682147  0  2.324184  0
O  O90  1  0.81979558  0.37784542  0.82445524  1  0  -0.75008  0  1.893095  0  0  -0.700386  0  2.130372  0  0  -0.722748  0  2.114701  0  0  -0.391508  -0.684067  0  2.140747  0
O  O91  1  0.62201352  0.18031386  0.67573082  1  0  -0.749921  0  1.893033  0  0  -0.700237  0  2.130335  0  0  -0.722606  0  2.114659  0  0  -0.391465  -0.683906  0  2.140706  0
O  O92  1  0.18016803  0.62212546  0.17554823  1  0  -0.750007  0  1.892887  0  0  -0.700299  0  2.130141  0  0  -0.722656  0  2.114473  0  0  -0.391521  -0.683977  0  2.140518  0
O  O93  1  0.37796061  0.81965676  0.32426599  1  0  -0.74984  0  1.893358  0  0  -0.700126  0  2.130667  0  0  -0.722492  0  2.114996  0  0  -0.391423  -0.683803  0  2.141046  0
