# generated using pymatgen
data_BiH10C3S3O11
_symmetry_space_group_name_H-M   'P 1'
_cell_length_a   10.48132999
_cell_length_b   10.49800000
_cell_length_c   11.47503186
_cell_angle_alpha   115.44565754
_cell_angle_beta   90.00000000
_cell_angle_gamma   90.00000000
_symmetry_Int_Tables_number   1
_chemical_formula_structural   BiH10C3S3O11
_chemical_formula_sum   'Bi4 H40 C12 S12 O44'
_cell_volume   1140.14829492
_cell_formula_units_Z   4
loop_
 _symmetry_equiv_pos_site_id
 _symmetry_equiv_pos_as_xyz
  1  'x, y, z'
loop_
 _atom_site_type_symbol
 _atom_site_label
 _atom_site_symmetry_multiplicity
 _atom_site_fract_x
 _atom_site_fract_y
 _atom_site_fract_z
 _atom_site_occupancy
 _atom_site_hle17_bader_spin_density
 _atom_site_hle17_ddec_charge
 _atom_site_hle17_ddec_spin_density
 _atom_site_hle17_ddec_sum_bond_order
 _atom_site_hle17_magmom
 _atom_site_hse06_10hf_bader_spin_density
 _atom_site_hse06_10hf_ddec_charge
 _atom_site_hse06_10hf_ddec_spin_density
 _atom_site_hse06_10hf_ddec_sum_bond_order
 _atom_site_hse06_10hf_magmom
 _atom_site_hse06_bader_spin_density
 _atom_site_hse06_ddec_charge
 _atom_site_hse06_ddec_spin_density
 _atom_site_hse06_ddec_sum_bond_order
 _atom_site_hse06_magmom
 _atom_site_pbe_bader_charge
 _atom_site_pbe_bader_spin_density
 _atom_site_pbe_cm5_charge
 _atom_site_pbe_ddec_charge
 _atom_site_pbe_ddec_spin_density
 _atom_site_pbe_ddec_sum_bond_order
 _atom_site_pbe_magmom
Bi  Bi0  1  0.65342662  0.24375606  0.27569526  1  0  2.018834  0  1.941569  0  0  1.827128  0  2.414409  0  0  1.900278  0  2.351736  0  2.160607  0  0.993347  1.772531  0  2.459849  0
Bi  Bi1  1  0.15342805  0.25624346  0.72430515  1  0  2.018848  0  1.941581  0  0  1.827137  0  2.414426  0  0  1.900282  0  2.351754  0  2.160678  0  0.993324  1.772533  0  2.459866  0
Bi  Bi2  1  0.34657338  0.75624537  0.72430515  1  0  2.018834  0  1.941601  0  0  1.827108  0  2.41446  0  0  1.900269  0  2.351789  0  2.16066  0  0.993314  1.772508  0  2.459899  0
Bi  Bi3  1  0.84657291  0.74375561  0.27569429  1  0  2.018852  0  1.941583  0  0  1.827109  0  2.414435  0  0  1.900254  0  2.351761  0  2.160603  0  0.993347  1.772518  0  2.459874  0
H  H4  1  0.46571189  0.36630050  0.01838277  1  0  0.150846  0  0.932123  0  0  0.159089  0  0.993096  0  0  0.162834  0  0.990983  0  0.129644  0  0.114806  0.156323  0  0.994732  0
H  H5  1  0.96571141  0.13370043  0.98161861  1  0  0.150824  0  0.932158  0  0  0.159038  0  0.993154  0  0  0.162782  0  0.991048  0  0.129631  0  0.114793  0.156273  0  0.994787  0
H  H6  1  0.53428906  0.63370089  0.98161957  1  0  0.15083  0  0.932145  0  0  0.15904  0  0.99315  0  0  0.162783  0  0.991046  0  0.129624  0  0.114793  0.156273  0  0.994785  0
H  H7  1  0.03428859  0.86630290  0.01838181  1  0  0.150788  0  0.932022  0  0  0.159027  0  0.993015  0  0  0.16277  0  0.990909  0  0.129646  0  0.114764  0.156261  0  0.994648  0
H  H8  1  0.48321158  0.54139960  0.14645611  1  0  0.142194  0  0.935829  0  0  0.149976  0  0.999168  0  0  0.153236  0  0.99772  0  0.11421  0  0.111808  0.147413  0  1.000542  0
H  H9  1  0.98321205  0.95860129  0.85354720  1  0  0.142189  0  0.935838  0  0  0.149967  0  0.999162  0  0  0.15323  0  0.997715  0  0.114268  0  0.111802  0.147404  0  1.000534  0
H  H10  1  0.51678747  0.45860029  0.85354913  1  0  0.142167  0  0.935869  0  0  0.149961  0  0.999171  0  0  0.153225  0  0.997729  0  0.114282  0  0.111798  0.147408  0  1.00053  0
H  H11  1  0.01678985  0.04140336  0.14645804  1  0  0.142167  0  0.935819  0  0  0.149959  0  0.999151  0  0  0.15322  0  0.997698  0  0.114195  0  0.111795  0.147393  0  1.000524  0
H  H12  1  0.11446925  0.45057839  0.43983542  1  0  0.1427  0  0.924017  0  0  0.151919  0  0.984975  0  0  0.155328  0  0.98319  0  0.104266  0  0.113301  0.149322  0  0.986667  0
H  H13  1  0.61446877  0.04942164  0.56016402  1  0  0.14264  0  0.924073  0  0  0.151872  0  0.985004  0  0  0.155282  0  0.98322  0  0.104241  0  0.113276  0.149275  0  0.986698  0
H  H14  1  0.88553075  0.54942114  0.56016499  1  0  0.142694  0  0.924021  0  0  0.151915  0  0.98498  0  0  0.155326  0  0.983195  0  0.104253  0  0.113294  0.149318  0  0.986675  0
H  H15  1  0.38553218  0.95057889  0.43983446  1  0  0.142664  0  0.924081  0  0  0.151896  0  0.984994  0  0  0.155306  0  0.983208  0  0.104267  0  0.11329  0.149297  0  0.986688  0
H  H16  1  0.15264570  0.29972028  0.29234379  1  0  0.149053  0  0.917405  0  0  0.158926  0  0.977338  0  0  0.162027  0  0.97598  0  0.114766  0  0.115042  0.157022  0  0.977778  0
H  H17  1  0.65264427  0.20028020  0.70765662  1  0  0.149046  0  0.917416  0  0  0.158901  0  0.977362  0  0  0.162003  0  0.976003  0  0.114758  0  0.115034  0.156996  0  0.977802  0
H  H18  1  0.84735334  0.70027880  0.70765566  1  0  0.149075  0  0.917387  0  0  0.158949  0  0.977325  0  0  0.162051  0  0.975965  0  0.114751  0  0.115055  0.157045  0  0.977764  0
H  H19  1  0.34735477  0.79972028  0.29234379  1  0  0.149058  0  0.917437  0  0  0.158916  0  0.977371  0  0  0.162017  0  0.976011  0  0.114748  0  0.115047  0.157011  0  0.977811  0
H  H20  1  0.19524526  0.61170420  0.34352468  1  0  0.145941  0  0.920844  0  0  0.154048  0  0.982655  0  0  0.157687  0  0.980322  0  0.114501  0  0.114176  0.152166  0  0.983616  0
H  H21  1  0.69524574  0.88829582  0.65647477  1  0  0.145919  0  0.920895  0  0  0.154032  0  0.982707  0  0  0.157673  0  0.980371  0  0.114507  0  0.114166  0.152141  0  0.983664  0
H  H22  1  0.80475474  0.38829487  0.65647477  1  0  0.145936  0  0.920831  0  0  0.154068  0  0.982629  0  0  0.157707  0  0.980297  0  0.114489  0  0.114185  0.152174  0  0.983581  0
H  H23  1  0.30475426  0.11170375  0.34352371  1  0  0.14591  0  0.920881  0  0  0.154033  0  0.982687  0  0  0.157672  0  0.980355  0  0.114514  0  0.114174  0.152142  0  0.983646  0
H  H24  1  0.24377154  0.45974608  0.20073296  1  0  0.145517  0  0.906526  0  0  0.157167  0  0.96209  0  0  0.160269  0  0.960751  0  0.123861  0  0.116472  0.155112  0  0.962926  0
H  H25  1  0.74377202  0.04025395  0.79926649  1  0  0.145472  0  0.906605  0  0  0.157136  0  0.962161  0  0  0.160237  0  0.960829  0  0.123875  0  0.116448  0.15507  0  0.962999  0
H  H26  1  0.75622846  0.54025250  0.79926745  1  0  0.145511  0  0.906492  0  0  0.157145  0  0.962109  0  0  0.160251  0  0.960761  0  0.123858  0  0.116451  0.155064  0  0.962954  0
H  H27  1  0.25622893  0.95974608  0.20073296  1  0  0.145499  0  0.906522  0  0  0.157128  0  0.962131  0  0  0.160232  0  0.96079  0  0.123862  0  0.116443  0.155064  0  0.962967  0
H  H28  1  0.88548305  0.18438410  0.40186257  1  0  0.452268  0  0.830976  0  0  0.420076  0  0.897289  0  0  0.430466  0  0.882134  0  0.641329  0  0.305008  0.412742  0  0.907992  0
H  H29  1  0.38547971  0.31561453  0.59813591  1  0  0.452287  0  0.830869  0  0  0.420091  0  0.897253  0  0  0.430478  0  0.882103  0  0.641372  0  0.30502  0.412752  0  0.90796  0
H  H30  1  0.11451791  0.81561593  0.59813688  1  0  0.452256  0  0.830927  0  0  0.420054  0  0.89731  0  0  0.430444  0  0.882155  0  0.641349  0  0.304993  0.41272  0  0.908012  0
H  H31  1  0.61451743  0.68438455  0.40186353  1  0  0.45223  0  0.830939  0  0  0.420038  0  0.897321  0  0  0.430426  0  0.882169  0  0.641338  0  0.305001  0.412701  0  0.908027  0
H  H32  1  0.78067955  0.10083046  0.43436441  1  0  0.438483  0  0.846851  0  0  0.406379  0  0.917743  0  0  0.416605  0  0.902862  0  0.64188  0  0.303164  0.399055  0  0.928362  0
H  H33  1  0.28067717  0.39917052  0.56563504  1  0  0.438505  0  0.846864  0  0  0.406391  0  0.917739  0  0  0.416618  0  0.902859  0  0.642224  0  0.303173  0.399065  0  0.92836  0
H  H34  1  0.21932140  0.89916816  0.56563408  1  0  0.438452  0  0.846951  0  0  0.406352  0  0.91779  0  0  0.416578  0  0.902909  0  0.642262  0  0.30314  0.399026  0  0.928411  0
H  H35  1  0.71932093  0.60083091  0.43436537  1  0  0.438492  0  0.8469  0  0  0.406403  0  0.917722  0  0  0.416628  0  0.902844  0  0.642251  0  0.303197  0.399077  0  0.928343  0
H  H36  1  0.51502624  0.11643523  0.01034562  1  0  0.459391  0  0.826574  0  0  0.42739  0  0.890731  0  0  0.437943  0  0.875238  0  0.642861  0  0.309113  0.419943  0  0.901595  0
H  H37  1  0.01502767  0.38356244  0.98965287  1  0  0.459412  0  0.826544  0  0  0.427416  0  0.890692  0  0  0.437969  0  0.8752  0  0.642804  0  0.309115  0.419968  0  0.901558  0
H  H38  1  0.48497280  0.88356289  0.98965383  1  0  0.45943  0  0.826524  0  0  0.427426  0  0.890682  0  0  0.43798  0  0.87519  0  0.642883  0  0.309105  0.419979  0  0.901548  0
H  H39  1  0.98497233  0.61643713  0.01034562  1  0  0.459401  0  0.826563  0  0  0.427398  0  0.89072  0  0  0.437952  0  0.875227  0  0.642787  0  0.309105  0.419952  0  0.901585  0
H  H40  1  0.40963122  0.17409404  0.11718535  1  0  0.449481  0  0.821827  0  0  0.419311  0  0.89106  0  0  0.429426  0  0.876302  0  0.6463  0  0.309687  0.4124  0  0.901059  0
H  H41  1  0.90963265  0.32590644  0.88281507  1  0  0.449512  0  0.821811  0  0  0.419344  0  0.891019  0  0  0.42946  0  0.87626  0  0.646335  0  0.309692  0.412434  0  0.901016  0
H  H42  1  0.59036687  0.82590598  0.88281410  1  0  0.449505  0  0.821827  0  0  0.419334  0  0.891034  0  0  0.429447  0  0.876279  0  0.646334  0  0.309688  0.412423  0  0.901033  0
H  H43  1  0.09036735  0.67409359  0.11718438  1  0  0.449489  0  0.821861  0  0  0.419314  0  0.891068  0  0  0.42943  0  0.876308  0  0.646315  0  0.309679  0.412403  0  0.901067  0
C  C44  1  0.51183199  0.46933434  0.04793051  1  0  -0.289333  0  3.624356  0  0  -0.325674  0  3.882138  0  0  -0.330882  0  3.887846  0  -0.131279  0  -0.157074  -0.321834  0  3.878197  0
C  C45  1  0.01183247  0.03066559  0.95207280  1  0  -0.289402  0  3.624463  0  0  -0.325641  0  3.88212  0  0  -0.330848  0  3.887818  0  -0.131388  0  -0.157084  -0.32181  0  3.878197  0
C  C46  1  0.48816801  0.53066509  0.95207376  1  0  -0.289387  0  3.624445  0  0  -0.32562  0  3.882083  0  0  -0.330836  0  3.887791  0  -0.167518  0  -0.157111  -0.321814  0  3.878198  0
C  C47  1  0.98816944  0.96933765  0.04793148  1  0  -0.289253  0  3.624288  0  0  -0.325566  0  3.881988  0  0  -0.33077  0  3.887684  0  -0.16736  0  -0.157048  -0.321754  0  3.878118  0
C  C48  1  0.12826903  0.41216064  0.33545857  1  0  -0.275292  0  3.607209  0  0  -0.314367  0  3.867432  0  0  -0.319425  0  3.873907  0  -0.130799  0  -0.153921  -0.311046  0  3.863643  0
C  C49  1  0.62826760  0.08784034  0.66454088  1  0  -0.275272  0  3.607282  0  0  -0.314332  0  3.867539  0  0  -0.319391  0  3.874014  0  -0.130813  0  -0.153901  -0.31102  0  3.863739  0
C  C50  1  0.87173193  0.58783843  0.66454088  1  0  -0.275327  0  3.607222  0  0  -0.314379  0  3.867473  0  0  -0.31944  0  3.87395  0  -0.130796  0  -0.153919  -0.311075  0  3.863664  0
C  C51  1  0.37173145  0.91215969  0.33545857  1  0  -0.275306  0  3.607296  0  0  -0.314339  0  3.867518  0  0  -0.319396  0  3.873994  0  -0.130813  0  -0.153914  -0.311028  0  3.863722  0
C  C52  1  0.22503060  0.50079306  0.30468422  1  0  -0.280324  0  3.615463  0  0  -0.317647  0  3.875781  0  0  -0.322665  0  3.882142  0  -0.15873  0  -0.152826  -0.314278  0  3.871145  0
C  C53  1  0.72503013  0.99920792  0.69531523  1  0  -0.280253  0  3.615587  0  0  -0.317596  0  3.875864  0  0  -0.322617  0  3.882227  0  -0.158713  0  -0.152778  -0.314185  0  3.871177  0
C  C54  1  0.77496940  0.49920602  0.69531523  1  0  -0.280286  0  3.615449  0  0  -0.317658  0  3.875847  0  0  -0.322679  0  3.882218  0  -0.15871  0  -0.152814  -0.314212  0  3.871127  0
C  C55  1  0.27496988  0.00079210  0.30468422  1  0  -0.280205  0  3.61547  0  0  -0.317545  0  3.875752  0  0  -0.322566  0  3.882119  0  -0.158727  0  -0.152771  -0.314138  0  3.871069  0
S  S56  1  0.67780234  0.43948491  0.06015706  1  0  1.413002  0  5.464722  0  0  1.30885  0  5.997261  0  0  1.358049  0  5.973096  0  3.148788  0  0.538537  1.274677  0  6.013192  0
S  S57  1  0.17780377  0.06051970  0.93985011  1  0  1.413122  0  5.464776  0  0  1.308972  0  5.997284  0  0  1.358173  0  5.973121  0  3.148685  0  0.53861  1.274784  0  6.013219  0
S  S58  1  0.32219575  0.56051970  0.93985011  1  0  1.413066  0  5.464693  0  0  1.30893  0  5.997196  0  0  1.35813  0  5.973038  0  3.148699  0  0.538579  1.274739  0  6.013139  0
S  S59  1  0.82219718  0.93948400  0.06015513  1  0  1.412825  0  5.464811  0  0  1.30868  0  5.997355  0  0  1.357876  0  5.973201  0  3.148757  0  0.538485  1.274499  0  6.01328  0
S  S60  1  0.97608319  0.42400970  0.27149525  1  0  1.400088  0  5.488849  0  0  1.294467  0  6.02028  0  0  1.342659  0  5.997899  0  3.133377  0  0.533226  1.260618  0  6.035894  0
S  S61  1  0.47608271  0.07599037  0.72850227  1  0  1.400218  0  5.488739  0  0  1.294565  0  6.020184  0  0  1.342781  0  5.997789  0  3.133519  0  0.533313  1.260717  0  6.035801  0
S  S62  1  0.02391586  0.57599078  0.72850517  1  0  1.400171  0  5.488799  0  0  1.294503  0  6.02026  0  0  1.342697  0  5.997881  0  3.133361  0  0.533244  1.260654  0  6.035878  0
S  S63  1  0.52391729  0.92400920  0.27149621  1  0  1.400133  0  5.488833  0  0  1.29448  0  6.020263  0  0  1.342669  0  5.997889  0  3.133481  0  0.533259  1.260629  0  6.035882  0
S  S64  1  0.37446488  0.50371749  0.38072836  1  0  1.39571  0  5.496825  0  0  1.290058  0  6.030916  0  0  1.337797  0  6.008859  0  3.143223  0  0.529536  1.25765  0  6.044166  0
S  S65  1  0.87446345  0.99628258  0.61926915  1  0  1.395734  0  5.496923  0  0  1.290057  0  6.031045  0  0  1.337803  0  6.008987  0  3.143303  0  0.529514  1.257645  0  6.044282  0
S  S66  1  0.62553607  0.49628394  0.61927205  1  0  1.395616  0  5.496987  0  0  1.290008  0  6.031089  0  0  1.337747  0  6.009034  0  3.143235  0  0.529524  1.257583  0  6.044324  0
S  S67  1  0.12553560  0.00371654  0.38072836  1  0  1.395668  0  5.496954  0  0  1.290055  0  6.031049  0  0  1.337797  0  6.008993  0  3.143319  0  0.529542  1.25764  0  6.044288  0
O  O68  1  0.72552434  0.33656396  0.93638838  1  0  -0.638541  0  1.911945  0  0  -0.579589  0  2.149467  0  0  -0.601835  0  2.136767  0  -1.328899  0  -0.320092  -0.564491  0  2.157726  0
O  O69  1  0.22552481  0.16343757  0.06360817  1  0  -0.63852  0  1.912186  0  0  -0.579582  0  2.149722  0  0  -0.601821  0  2.137007  0  -1.328995  0  -0.320099  -0.564479  0  2.157983  0
O  O70  1  0.27447471  0.66343802  0.06360914  1  0  -0.638502  0  1.912117  0  0  -0.579554  0  2.14964  0  0  -0.6018  0  2.136932  0  -1.329004  0  -0.320077  -0.564456  0  2.157907  0
O  O71  1  0.77447519  0.83656346  0.93638934  1  0  -0.63851  0  1.912075  0  0  -0.579562  0  2.1496  0  0  -0.601799  0  2.136894  0  -1.328928  0  -0.320089  -0.564459  0  2.157856  0
O  O72  1  0.68815217  0.39840372  0.16752565  1  0  -0.752069  0  2.087747  0  0  -0.694283  0  2.378729  0  0  -0.719299  0  2.362684  0  -1.346297  0  -0.328599  -0.676279  0  2.389348  0
O  O73  1  0.18815169  0.10159631  0.83247379  1  0  -0.75211  0  2.087649  0  0  -0.694336  0  2.378641  0  0  -0.719353  0  2.362595  0  -1.346123  0  -0.328619  -0.676328  0  2.389263  0
O  O74  1  0.31184878  0.60159631  0.83247379  1  0  -0.752076  0  2.087611  0  0  -0.694317  0  2.378607  0  0  -0.719333  0  2.362564  0  -1.346113  0  -0.328606  -0.676308  0  2.38923  0
O  O75  1  0.81184831  0.89840326  0.16752469  1  0  -0.75201  0  2.087789  0  0  -0.69423  0  2.378784  0  0  -0.719249  0  2.362742  0  -1.346269  0  -0.328586  -0.676223  0  2.389403  0
O  O76  1  0.34265213  0.53708616  0.51762346  1  0  -0.758069  0  2.081331  0  0  -0.684586  0  2.349628  0  0  -0.710804  0  2.335581  0  -1.33171  0  -0.32642  -0.665926  0  2.358686  0
O  O77  1  0.84265260  0.96291337  0.48237695  1  0  -0.758056  0  2.081412  0  0  -0.684515  0  2.349668  0  0  -0.710746  0  2.335634  0  -1.331761  0  -0.326403  -0.665869  0  2.358742  0
O  O78  1  0.65734692  0.46291287  0.48237791  1  0  -0.758036  0  2.081394  0  0  -0.684588  0  2.349706  0  0  -0.710809  0  2.335663  0  -1.331726  0  -0.326424  -0.665929  0  2.358767  0
O  O79  1  0.15734740  0.03708666  0.51762250  1  0  -0.758053  0  2.081363  0  0  -0.684609  0  2.349683  0  0  -0.710828  0  2.335638  0  -1.331722  0  -0.326433  -0.665947  0  2.35874  0
O  O80  1  0.88728339  0.35029199  0.32062438  1  0  -0.699825  0  2.011425  0  0  -0.635902  0  2.278584  0  0  -0.660914  0  2.265718  0  -1.338428  0  -0.323424  -0.617778  0  2.287588  0
O  O81  1  0.38728196  0.14970713  0.67937314  1  0  -0.699892  0  2.011502  0  0  -0.635943  0  2.27866  0  0  -0.66095  0  2.265773  0  -1.338479  0  -0.323435  -0.617822  0  2.287665  0
O  O82  1  0.11271661  0.64970898  0.67937507  1  0  -0.699888  0  2.011431  0  0  -0.63589  0  2.278549  0  0  -0.660902  0  2.265676  0  -1.33843  0  -0.323412  -0.617768  0  2.287553  0
O  O83  1  0.61271709  0.85029104  0.32062438  1  0  -0.699849  0  2.011473  0  0  -0.635927  0  2.278662  0  0  -0.660935  0  2.26579  0  -1.338461  0  -0.323437  -0.617804  0  2.287665  0
O  O84  1  0.95032024  0.57991386  0.33193411  1  0  -0.733937  0  1.993182  0  0  -0.656274  0  2.258326  0  0  -0.682633  0  2.243328  0  -1.321777  0  -0.327761  -0.63796  0  2.269009  0
O  O85  1  0.45031976  0.92008712  0.66806534  1  0  -0.733936  0  1.993135  0  0  -0.656311  0  2.258318  0  0  -0.682713  0  2.24335  0  -1.321891  0  -0.327792  -0.637992  0  2.268988  0
O  O86  1  0.04968072  0.42008616  0.66806534  1  0  -0.733933  0  1.993115  0  0  -0.656286  0  2.258277  0  0  -0.682643  0  2.243279  0  -1.321769  0  -0.327779  -0.63797  0  2.26896  0
O  O87  1  0.54968120  0.07991291  0.33193411  1  0  -0.733941  0  1.993105  0  0  -0.656291  0  2.258259  0  0  -0.682648  0  2.243264  0  -1.321874  0  -0.3278  -0.63798  0  2.26895  0
O  O88  1  0.98573941  0.36327768  0.13166921  1  0  -0.66459  0  2.022766  0  0  -0.609309  0  2.280514  0  0  -0.630497  0  2.266126  0  -1.307876  0  -0.323943  -0.594622  0  2.290339  0
O  O89  1  0.48573988  0.13672189  0.86832927  1  0  -0.664634  0  2.022557  0  0  -0.609333  0  2.280318  0  0  -0.630525  0  2.265924  0  -1.307866  0  -0.324003  -0.594651  0  2.290145  0
O  O90  1  0.01425869  0.63672239  0.86832831  1  0  -0.664626  0  2.022739  0  0  -0.609333  0  2.280512  0  0  -0.630525  0  2.266128  0  -1.307861  0  -0.323967  -0.594648  0  2.290338  0
O  O91  1  0.51426107  0.86327768  0.13166921  1  0  -0.664615  0  2.02277  0  0  -0.609307  0  2.280499  0  0  -0.630495  0  2.266116  0  -1.30786  0  -0.323944  -0.594619  0  2.290324  0
O  O92  1  0.79321995  0.18591113  0.41999346  1  0  -0.844315  0  1.877982  0  0  -0.78884  0  2.080225  0  0  -0.811991  0  2.049934  0  -1.227966  0  -0.55548  -0.772083  0  2.10119  0
O  O93  1  0.29321661  0.31408845  0.58000503  1  0  -0.844352  0  1.877874  0  0  -0.788859  0  2.08017  0  0  -0.81201  0  2.049885  0  -1.228339  0  -0.555504  -0.772098  0  2.101148  0
O  O94  1  0.20678101  0.81408749  0.58000503  1  0  -0.84427  0  1.878003  0  0  -0.788778  0  2.08027  0  0  -0.811928  0  2.049979  0  -1.22835  0  -0.555441  -0.772022  0  2.101237  0
O  O95  1  0.70678053  0.68591017  0.41999346  1  0  -0.844288  0  1.87796  0  0  -0.78882  0  2.080224  0  0  -0.811969  0  2.049938  0  -1.228353  0  -0.555516  -0.772059  0  2.101197  0
O  O96  1  0.49811999  0.13987842  0.10210603  1  0  -0.864872  0  1.907235  0  0  -0.808412  0  2.116537  0  0  -0.831604  0  2.085565  0  -1.230596  0  -0.558096  -0.792202  0  2.137363  0
O  O97  1  0.99812142  0.36012210  0.89789245  1  0  -0.864911  0  1.907208  0  0  -0.808471  0  2.116513  0  0  -0.831656  0  2.085522  0  -1.230495  0  -0.558106  -0.792262  0  2.137339  0
O  O98  1  0.50187906  0.86012210  0.89789245  1  0  -0.864908  0  1.907192  0  0  -0.808465  0  2.116511  0  0  -0.831642  0  2.085512  0  -1.230546  0  -0.55809  -0.792255  0  2.137337  0
O  O99  1  0.00187858  0.63987747  0.10210603  1  0  -0.864864  0  1.907254  0  0  -0.808402  0  2.116528  0  0  -0.831588  0  2.085541  0  -1.230529  0  -0.558066  -0.79219  0  2.13735  0
O  O100  1  0.45055351  0.61322643  0.36758210  1  0  -0.662311  0  1.962368  0  0  -0.606644  0  2.213627  0  0  -0.627523  0  2.199375  0  -1.335229  0  -0.326194  -0.592059  0  2.222554  0
O  O101  1  0.95055208  0.88677214  0.63241832  1  0  -0.662301  0  1.962296  0  0  -0.60666  0  2.213593  0  0  -0.627546  0  2.199341  0  -1.335231  0  -0.326199  -0.592087  0  2.222545  0
O  O102  1  0.54944745  0.38677255  0.63242121  1  0  -0.662281  0  1.962369  0  0  -0.606639  0  2.213634  0  0  -0.627519  0  2.199385  0  -1.33525  0  -0.326195  -0.592055  0  2.222568  0
O  O103  1  0.04944792  0.11322789  0.36758113  1  0  -0.66229  0  1.962395  0  0  -0.606655  0  2.213663  0  0  -0.627539  0  2.199412  0  -1.33524  0  -0.326195  -0.592072  0  2.222594  0
O  O104  1  0.42677981  0.35955093  0.31605475  1  0  -0.714087  0  1.989347  0  0  -0.652609  0  2.258641  0  0  -0.677447  0  2.244713  0  -1.338913  0  -0.329694  -0.634709  0  2.267179  0
O  O105  1  0.92677933  0.14044814  0.68394470  1  0  -0.714142  0  1.989417  0  0  -0.652635  0  2.258698  0  0  -0.677469  0  2.244765  0  -1.338971  0  -0.329702  -0.634731  0  2.267233  0
O  O106  1  0.57322019  0.64044910  0.68394470  1  0  -0.714094  0  1.989405  0  0  -0.652596  0  2.258669  0  0  -0.677433  0  2.244739  0  -1.338918  0  -0.329705  -0.634697  0  2.267213  0
O  O107  1  0.07322067  0.85955188  0.31605475  1  0  -0.714124  0  1.989446  0  0  -0.652636  0  2.258726  0  0  -0.677474  0  2.244797  0  -1.339013  0  -0.329715  -0.634734  0  2.267261  0
O  O108  1  0.73814964  0.58112729  0.09671704  1  0  -0.725914  0  1.999777  0  0  -0.650617  0  2.264776  0  0  -0.677052  0  2.249159  0  -1.313083  0  -0.323645  -0.631665  0  2.274925  0
O  O109  1  0.23814917  0.91887364  0.90328433  1  0  -0.725974  0  1.999713  0  0  -0.650703  0  2.264728  0  0  -0.677148  0  2.249117  0  -1.313051  0  -0.323664  -0.631726  0  2.274864  0
O  O110  1  0.26185131  0.41887364  0.90328433  1  0  -0.725978  0  1.999719  0  0  -0.650713  0  2.264731  0  0  -0.677153  0  2.249119  0  -1.313047  0  -0.323668  -0.631733  0  2.274867  0
O  O111  1  0.76185083  0.08112779  0.09671608  1  0  -0.725824  0  1.999641  0  0  -0.650555  0  2.264646  0  0  -0.676996  0  2.249041  0  -1.313061  0  -0.323615  -0.631587  0  2.274785  0
