# generated using pymatgen
data_CuH5C10N3O4
_symmetry_space_group_name_H-M   'P 1'
_cell_length_a   10.86160811
_cell_length_b   12.22806172
_cell_length_c   14.47075738
_cell_angle_alpha   90.00003522
_cell_angle_beta   110.28957068
_cell_angle_gamma   90.00020061
_symmetry_Int_Tables_number   1
_chemical_formula_structural   CuH5C10N3O4
_chemical_formula_sum   'Cu4 H20 C40 N12 O16'
_cell_volume   1802.70083500
_cell_formula_units_Z   4
loop_
 _symmetry_equiv_pos_site_id
 _symmetry_equiv_pos_as_xyz
  1  'x, y, z'
loop_
 _atom_site_type_symbol
 _atom_site_label
 _atom_site_symmetry_multiplicity
 _atom_site_fract_x
 _atom_site_fract_y
 _atom_site_fract_z
 _atom_site_occupancy
 _atom_site_pbe_bader_charge
 _atom_site_pbe_bader_spin_density
 _atom_site_pbe_cm5_charge
 _atom_site_pbe_ddec_charge
 _atom_site_pbe_ddec_spin_density
 _atom_site_pbe_ddec_sum_bond_order
 _atom_site_pbe_magmom
Cu  Cu0  1  0.09562352  0.57104014  0.52479471  1  1.092039  0.588355  0.691679  0.780285  0.741782  2.38489  0.589
Cu  Cu1  1  0.90437224  0.07104654  0.97520412  1  1.092427  0.58839  0.691693  0.780291  0.741805  2.384741  0.589
Cu  Cu2  1  0.90437336  0.42895427  0.47520520  1  1.095188  0.58851  0.691758  0.780456  0.741818  2.384762  0.589
Cu  Cu3  1  0.09563054  0.92895196  0.02479527  1  1.094909  0.58845  0.691618  0.780187  0.741755  2.384962  0.589
H  H4  1  0.02018798  0.24804598  0.25699068  1  0.123644  0.000604  0.122575  0.140693  0.000452  0.969044  0.0
H  H5  1  0.97981605  0.74804576  0.24300972  1  0.123636  0.000604  0.122556  0.140674  0.000453  0.969032  0.0
H  H6  1  0.97982068  0.75194926  0.74301163  1  0.123537  0.000604  0.122594  0.140722  0.000453  0.969023  0.0
H  H7  1  0.02018674  0.25195029  0.75698898  1  0.12364  0.000604  0.122574  0.140697  0.000452  0.969054  0.0
H  H8  1  0.38525320  0.37689451  0.45465605  1  0.099624  0.000344  0.110919  0.122339  0.000246  1.002524  0.0
H  H9  1  0.61474652  0.87689629  0.04534674  1  0.099625  0.000344  0.110926  0.122278  0.000246  1.002617  0.0
H  H10  1  0.61474957  0.62310318  0.54534541  1  0.099629  0.000344  0.110917  0.122306  0.000246  1.002507  0.0
H  H11  1  0.38525428  0.12310386  0.95465489  1  0.099626  0.000344  0.110913  0.122323  0.000246  1.002525  0.0
H  H12  1  0.38559984  0.12548337  0.24443001  1  0.091999  0.000335  0.111463  0.12258  0.000233  1.001874  0.0
H  H13  1  0.61440165  0.62548366  0.25556898  1  0.092018  0.000335  0.111462  0.122615  0.000233  1.001875  0.0
H  H14  1  0.61440687  0.87451595  0.75556834  1  0.092105  0.000335  0.111485  0.122618  0.000233  1.001898  0.0
H  H15  1  0.38559720  0.37451811  0.74443145  1  0.092024  0.000335  0.111472  0.12261  0.000233  1.001871  0.0
H  H16  1  0.58535618  0.42710554  0.39710650  1  0.151664  -6.3e-05  0.146752  0.119705  -7.4e-05  0.972407  0.0
H  H17  1  0.41464281  0.92710510  0.10289337  1  0.151667  -6.3e-05  0.146743  0.119682  -7.4e-05  0.972435  0.0
H  H18  1  0.41464561  0.57289624  0.60289401  1  0.151678  -6.3e-05  0.146728  0.11966  -7.4e-05  0.972385  0.0
H  H19  1  0.58535506  0.07289750  0.89710611  1  0.15167  -6.3e-05  0.146744  0.119715  -7.4e-05  0.972382  0.0
H  H20  1  0.59335200  0.08148332  0.40200335  1  0.127121  -5.3e-05  0.146206  0.117215  -5.1e-05  0.965097  0.0
H  H21  1  0.40664829  0.58148530  0.09799737  1  0.127147  -5.3e-05  0.14617  0.117209  -5.1e-05  0.965067  0.0
H  H22  1  0.40665078  0.91851764  0.59799604  1  0.127087  -5.3e-05  0.146185  0.117186  -5.1e-05  0.965134  0.0
H  H23  1  0.59335153  0.41851893  0.90200538  1  0.127071  -5.3e-05  0.146184  0.117178  -5.1e-05  0.965127  0.0
C  C24  1  0.12363118  0.38951751  0.40988519  1  1.582126  -0.00191  0.215625  0.577587  -0.002191  4.165796  -0.004
C  C25  1  0.87634897  0.88952504  0.09011247  1  1.581851  -0.001907  0.215545  0.577407  -0.002192  4.165664  -0.004
C  C26  1  0.87636374  0.61047609  0.59011421  1  1.5822  -0.001909  0.215583  0.577452  -0.002191  4.165781  -0.004
C  C27  1  0.12362829  0.11048573  0.90988091  1  1.581725  -0.001911  0.215547  0.577466  -0.002194  4.165669  -0.004
C  C28  1  0.19582398  0.31878440  0.36100175  1  0.009171  0.017224  -0.004675  0.007176  0.01188  3.955524  0.013
C  C29  1  0.80417253  0.81878111  0.13899810  1  0.009539  0.017221  -0.004737  0.007018  0.011879  3.95576  0.013
C  C30  1  0.80417585  0.68121492  0.63899825  1  0.009436  0.017224  -0.004674  0.00715  0.01188  3.95557  0.013
C  C31  1  0.19582535  0.18121331  0.86100000  1  0.008898  0.017222  -0.004665  0.007181  0.011878  3.955535  0.013
C  C32  1  0.12702552  0.24869057  0.28417562  1  0.038631  0.002197  -0.058675  -0.087907  0.001333  3.861133  0.001
C  C33  1  0.87297361  0.74868673  0.21582349  1  0.038585  0.002197  -0.058604  -0.087745  0.001333  3.861072  0.001
C  C34  1  0.87298020  0.75130957  0.71582523  1  0.038678  0.002199  -0.058668  -0.087908  0.001334  3.861049  0.001
C  C35  1  0.12702623  0.25131014  0.78417581  1  0.038641  0.002198  -0.05868  -0.087901  0.001334  3.86118  0.001
C  C36  1  0.33304083  0.32150542  0.39498204  1  -0.003795  0.000916  -0.080044  -0.179187  0.000436  3.943133  0.001
C  C37  1  0.66695471  0.82150413  0.10501824  1  -0.003611  0.000916  -0.080014  -0.178973  0.000436  3.943158  0.001
C  C38  1  0.66696097  0.67849554  0.60501778  1  -0.00393  0.000918  -0.080042  -0.179114  0.000438  3.943143  0.001
C  C39  1  0.33304218  0.17849356  0.89498029  1  -0.003525  0.000917  -0.080046  -0.179145  0.000437  3.943152  0.001
C  C40  1  0.19588774  0.17970344  0.24225624  1  -0.060043  0.017421  -0.004175  0.008805  0.011974  3.954407  0.014
C  C41  1  0.80411302  0.67970187  0.25774396  1  -0.059964  0.017424  -0.00417  0.008729  0.011976  3.954373  0.014
C  C42  1  0.80411897  0.82029670  0.75774418  1  -0.060041  0.01742  -0.004217  0.008732  0.011974  3.95432  0.014
C  C43  1  0.19588680  0.32029745  0.74225741  1  -0.059991  0.017422  -0.004154  0.008773  0.011975  3.954387  0.014
C  C44  1  0.40067409  0.25127034  0.35337711  1  0.28679  0.001623  0.089699  0.157743  0.000947  4.065293  0.001
C  C45  1  0.59932307  0.75127050  0.14662426  1  0.286831  0.001623  0.089731  0.157774  0.000947  4.065341  0.001
C  C46  1  0.59932869  0.74872980  0.64662228  1  0.286693  0.001621  0.089646  0.157675  0.000946  4.065451  0.001
C  C47  1  0.40067577  0.24872964  0.85337686  1  0.286798  0.001623  0.089709  0.157737  0.000947  4.065401  0.001
C  C48  1  0.33315241  0.17960799  0.27778461  1  0.033162  0.000896  -0.079841  -0.179423  0.000407  3.943457  0.001
C  C49  1  0.66684834  0.67960923  0.22221697  1  0.033112  0.000897  -0.079879  -0.179521  0.000407  3.9435  0.001
C  C50  1  0.66685430  0.82039052  0.72221650  1  0.033173  0.000898  -0.079825  -0.179391  0.000409  3.943347  0.001
C  C51  1  0.33315050  0.32039254  0.77778345  1  0.033127  0.000897  -0.079849  -0.179471  0.000408  3.943426  0.001
C  C52  1  0.12370189  0.10849005  0.15608493  1  1.587724  -0.001925  0.21562  0.577315  -0.002231  4.166667  -0.004
C  C53  1  0.87628575  0.60847732  0.34391525  1  1.587376  -0.001924  0.215635  0.577417  -0.002228  4.166569  -0.004
C  C54  1  0.87628517  0.89152072  0.84391241  1  1.58761  -0.001925  0.215635  0.577432  -0.00223  4.166462  -0.004
C  C55  1  0.12370818  0.39151792  0.65608527  1  1.587649  -0.001925  0.215644  0.577514  -0.002229  4.16659  -0.004
C  C56  1  0.62016726  0.34337278  0.40672060  1  0.973591  -0.00077  0.155313  0.086003  -0.000913  3.899452  0.0
C  C57  1  0.37983428  0.84337304  0.09328058  1  0.973571  -0.00077  0.155336  0.086127  -0.000913  3.899427  0.0
C  C58  1  0.37983454  0.65662899  0.59327922  1  0.973599  -0.000769  0.155322  0.086097  -0.000913  3.899478  0.0
C  C59  1  0.62016456  0.15663037  0.90672123  1  0.973693  -0.000769  0.155228  0.085916  -0.000912  3.899441  0.0
C  C60  1  0.62579814  0.16591540  0.40798558  1  0.962894  0.000149  0.145636  0.06017  0.000111  3.954657  0.0
C  C61  1  0.37420354  0.66591727  0.09201554  1  0.963049  0.000149  0.145687  0.06023  0.000111  3.954609  0.0
C  C62  1  0.37420562  0.83408556  0.59201475  1  0.96302  0.000148  0.145616  0.060151  0.000111  3.95474  0.0
C  C63  1  0.62579628  0.33408696  0.90798722  1  0.963011  0.000148  0.14561  0.060142  0.00011  3.954728  0.0
N  N64  1  0.74396369  0.31235417  0.43575405  1  -0.669663  -0.001622  -0.235884  -0.169738  -0.000889  3.441022  0.0
N  N65  1  0.25603574  0.81235402  0.06424518  1  -0.669626  -0.00162  -0.235908  -0.169807  -0.000887  3.441117  0.0
N  N66  1  0.25603811  0.68764597  0.56424508  1  -0.669594  -0.001622  -0.235892  -0.169791  -0.000889  3.441152  0.0
N  N67  1  0.74396212  0.18764857  0.93575568  1  -0.669638  -0.001621  -0.235838  -0.169757  -0.000888  3.441169  0.0
N  N68  1  0.54052647  0.25334776  0.38783729  1  -1.307058  0.00023  -0.220475  -0.023339  0.000106  3.800381  0.0
N  N69  1  0.45947365  0.75334828  0.11216486  1  -1.307163  0.000229  -0.220539  -0.023492  0.000106  3.800509  0.0
N  N70  1  0.45947729  0.74665320  0.61216374  1  -1.307116  0.00023  -0.220443  -0.023339  0.000106  3.800477  0.0
N  N71  1  0.54052421  0.24665513  0.88783739  1  -1.307189  0.00023  -0.220421  -0.023236  0.000106  3.800296  0.0
N  N72  1  0.74839197  0.19967647  0.43719668  1  -0.711926  -0.00033  -0.22671  -0.18338  -0.000336  3.147349  0.0
N  N73  1  0.25160889  0.69967549  0.06280287  1  -0.712077  -0.000331  -0.226681  -0.183338  -0.000337  3.147271  0.0
N  N74  1  0.25161082  0.80032367  0.56280271  1  -0.711994  -0.000329  -0.226636  -0.183307  -0.000335  3.147408  0.0
N  N75  1  0.74838995  0.30032710  0.93719825  1  -0.712015  -0.000331  -0.226658  -0.183299  -0.000337  3.147409  0.0
O  O76  1  0.18359219  0.47474208  0.45384556  1  -1.107592  0.096783  -0.317066  -0.528131  0.06089  2.346479  0.088
O  O77  1  0.81639621  0.97474285  0.04615501  1  -1.107462  0.09676  -0.316932  -0.527956  0.060874  2.346739  0.088
O  O78  1  0.81641255  0.52525479  0.54615366  1  -1.107516  0.096772  -0.317028  -0.528067  0.060883  2.346528  0.088
O  O79  1  0.18359675  0.02525238  0.95384318  1  -1.107263  0.096803  -0.317077  -0.528156  0.060904  2.345971  0.088
O  O80  1  0.01024565  0.35680569  0.40439096  1  -1.094376  0.090929  -0.303274  -0.499198  0.057218  2.337933  0.083
O  O81  1  0.98975102  0.85680458  0.09561241  1  -1.094682  0.090963  -0.303296  -0.499137  0.057241  2.33713  0.083
O  O82  1  0.98975416  0.64319282  0.59561318  1  -1.094545  0.090944  -0.303266  -0.49911  0.057229  2.337754  0.083
O  O83  1  0.01024587  0.14319883  0.90438405  1  -1.094306  0.090922  -0.303134  -0.499  0.057214  2.338081  0.083
O  O84  1  0.18361010  0.02328203  0.14329666  1  -1.108017  0.09791  -0.315974  -0.524823  0.06172  2.337571  0.089
O  O85  1  0.81639972  0.52327730  0.35670722  1  -1.10825  0.097864  -0.315986  -0.524882  0.061691  2.3381  0.089
O  O86  1  0.81639465  0.97671974  0.85670255  1  -1.108248  0.097875  -0.31596  -0.524846  0.061696  2.33808  0.089
O  O87  1  0.18360401  0.47672039  0.64329795  1  -1.108202  0.097879  -0.315995  -0.524933  0.0617  2.337979  0.089
O  O88  1  0.01029918  0.14123748  0.10257049  1  -1.099304  0.090676  -0.304706  -0.502522  0.056935  2.336812  0.082
O  O89  1  0.98969843  0.64123250  0.39743439  1  -1.098818  0.090718  -0.304746  -0.502598  0.05696  2.336436  0.082
O  O90  1  0.98970358  0.85876102  0.89743304  1  -1.099045  0.090722  -0.304745  -0.502605  0.056964  2.336258  0.082
O  O91  1  0.01030043  0.35876928  0.60256465  1  -1.099143  0.090701  -0.304779  -0.502666  0.056948  2.33671  0.082
