# generated using pymatgen
data_Zn4H2C24S4N4O21F2
_symmetry_space_group_name_H-M   'P 1'
_cell_length_a   19.59356957
_cell_length_b   19.60728456
_cell_length_c   33.19417396
_cell_angle_alpha   79.52064962
_cell_angle_beta   79.56940068
_cell_angle_gamma   64.17254521
_symmetry_Int_Tables_number   1
_chemical_formula_structural   Zn4H2C24S4N4O21F2
_chemical_formula_sum   'Zn16 H8 C96 S16 N16 O84 F8'
_cell_volume   11212.21922360
_cell_formula_units_Z   4
loop_
 _symmetry_equiv_pos_site_id
 _symmetry_equiv_pos_as_xyz
  1  'x, y, z'
loop_
 _atom_site_type_symbol
 _atom_site_label
 _atom_site_symmetry_multiplicity
 _atom_site_fract_x
 _atom_site_fract_y
 _atom_site_fract_z
 _atom_site_occupancy
 _atom_site_pbe_bader_charge
 _atom_site_pbe_bader_spin_density
 _atom_site_pbe_cm5_charge
 _atom_site_pbe_ddec_charge
 _atom_site_pbe_ddec_spin_density
 _atom_site_pbe_ddec_sum_bond_order
 _atom_site_pbe_magmom
Zn  Zn0  1  0.05961849  0.40210436  0.47738580  1  1.320625  0  0.679236  0.975882  0  2.331995  0
Zn  Zn1  1  0.97899304  0.48538913  0.56053254  1  1.323007  0  0.684898  0.978657  0  2.335724  0
Zn  Zn2  1  0.06281290  0.55784784  0.48179257  1  1.321153  0  0.681285  0.975936  0  2.336702  0
Zn  Zn3  1  0.89836256  0.55501621  0.48108365  1  1.319302  0  0.682056  0.976424  0  2.337213  0
Zn  Zn4  1  0.69454749  0.35138393  0.26911256  1  1.317313  0  0.680758  0.977551  0  2.333368  0
Zn  Zn5  1  0.69278271  0.18664614  0.26819014  1  1.320315  0  0.680168  0.972915  0  2.34438  0
Zn  Zn6  1  0.76590228  0.27052634  0.18962831  1  1.322821  0  0.682496  0.977688  0  2.334009  0
Zn  Zn7  1  0.84754111  0.19086743  0.27332331  1  1.322936  0  0.682821  0.97491  0  2.338905  0
Zn  Zn8  1  0.26459956  0.77177832  0.68979355  1  1.320175  0  0.680461  0.970612  0  2.345045  0
Zn  Zn9  1  0.34804974  0.69147426  0.77278794  1  1.322504  0  0.682767  0.977223  0  2.338696  0
Zn  Zn10  1  0.19377290  0.85099816  0.76964133  1  1.323072  0  0.67994  0.975988  0  2.336655  0
Zn  Zn11  1  0.19394049  0.68534326  0.76810315  1  1.324979  0  0.68333  0.978392  0  2.333597  0
Zn  Zn12  1  0.56407434  0.05656534  0.98184706  1  1.321788  0  0.681539  0.975238  0  2.338903  0
Zn  Zn13  1  0.39872195  0.05572899  0.98068166  1  1.318728  0  0.681024  0.971999  0  2.340525  0
Zn  Zn14  1  0.55896686  0.90221764  0.97711884  1  1.321774  0  0.68135  0.977422  0  2.337894  0
Zn  Zn15  1  0.47879646  0.98491628  0.06032853  1  1.321288  0  0.6811  0.974754  0  2.339182  0
H  H16  1  0.46584749  0.23943130  0.33848797  1  0.137432  0  0.125996  0.153378  0  0.961217  0
H  H17  1  0.47483479  0.70178992  0.60230937  1  0.119684  0  0.125633  0.152745  0  0.962098  0
H  H18  1  0.20153953  0.98202792  0.60038008  1  0.142594  0  0.125731  0.152719  0  0.960554  0
H  H19  1  0.94970949  0.96701099  0.34918816  1  0.13245  0  0.126636  0.153975  0  0.959437  0
H  H20  1  0.54828788  0.77448921  0.14747711  1  0.126576  0  0.126294  0.153812  0  0.960316  0
H  H21  1  0.15917880  0.14262872  0.04137476  1  0.119648  0  0.126117  0.15328  0  0.960801  0
H  H22  1  0.30311647  0.27470628  0.90211332  1  0.135077  0  0.126213  0.153567  0  0.9605  0
H  H23  1  0.79025075  0.00922960  0.90797996  1  0.123343  0  0.126235  0.152946  0  0.960477  0
C  C24  1  0.06105188  0.31948309  0.56028791  1  1.564568  0  0.21867  0.633578  0  4.203265  0
C  C25  1  0.06809811  0.56898464  0.56794497  1  1.657237  0  0.234241  0.610548  0  4.17737  0
C  C26  1  0.18722636  0.43858235  0.43733266  1  1.571139  0  0.218334  0.632665  0  4.209913  0
C  C27  1  0.93828090  0.68067303  0.44003893  1  1.569869  0  0.218425  0.63296  0  4.206784  0
C  C28  1  0.93190362  0.43126415  0.43221790  1  1.677682  0  0.234869  0.612558  0  4.173489  0
C  C29  1  0.81280498  0.56161222  0.56303409  1  1.582848  0  0.216958  0.629337  0  4.213952  0
C  C30  1  0.56920371  0.31023980  0.31022833  1  1.558093  0  0.22182  0.614644  0  4.207068  0
C  C31  1  0.68190535  0.18158932  0.18192171  1  1.64759  0  0.234727  0.611065  0  4.17529  0
C  C32  1  0.68864095  0.43669772  0.18695991  1  1.53704  0  0.218376  0.63214  0  4.2117  0
C  C33  1  0.93129803  0.18858666  0.19048663  1  1.570113  0  0.21943  0.634876  0  4.205345  0
C  C34  1  0.81782188  0.31817379  0.31838319  1  1.656917  0  0.235211  0.613153  0  4.172946  0
C  C35  1  0.81199071  0.06238736  0.31272549  1  1.569821  0  0.220185  0.610899  0  4.214232  0
C  C36  1  0.43033112  0.69099657  0.68948629  1  1.551598  0  0.221265  0.612357  0  4.208336  0
C  C37  1  0.31759868  0.81863418  0.81830469  1  1.662258  0  0.23482  0.612054  0  4.172907  0
C  C38  1  0.18744661  0.93757720  0.68747451  1  1.564606  0  0.220734  0.611867  0  4.213291  0
C  C39  1  0.06954528  0.80914169  0.81020096  1  1.575356  0  0.219331  0.63399  0  4.203837  0
C  C40  1  0.18265824  0.68166293  0.68170376  1  1.648281  0  0.235142  0.612765  0  4.172506  0
C  C41  1  0.31414317  0.56219309  0.81231633  1  1.590821  0  0.218307  0.631447  0  4.210304  0
C  C42  1  0.43959228  0.18075510  0.93994333  1  1.560007  0  0.221514  0.61385  0  4.206419  0
C  C43  1  0.43156913  0.93216493  0.93190060  1  1.665725  0  0.235707  0.61386  0  4.169223  0
C  C44  1  0.68786983  0.93744588  0.93747577  1  1.56391  0  0.220049  0.611009  0  4.212731  0
C  C45  1  0.56005790  0.81917311  0.06032042  1  1.552885  0  0.222268  0.615538  0  4.203547  0
C  C46  1  0.56842528  0.06781021  0.06815580  1  1.643952  0  0.235347  0.612667  0  4.171075  0
C  C47  1  0.31231922  0.06263411  0.06247370  1  1.560183  0  0.219798  0.611074  0  4.21329  0
C  C48  1  0.90269368  0.40231884  0.40284726  1  0.096839  0  0.017309  -0.072138  0  3.866633  0
C  C49  1  0.84715971  0.34738632  0.34750231  1  0.126857  0  0.016582  -0.073233  0  3.869846  0
C  C50  1  0.83179031  0.44611922  0.38807673  1  0.296798  0  0.103781  0.035852  0  3.871725  0
C  C51  1  0.91922645  0.30474479  0.36110492  1  0.219687  0  0.103158  0.034209  0  3.873751  0
C  C52  1  0.80366197  0.41826712  0.36223573  1  0.304436  0  0.10423  0.034129  0  3.872835  0
C  C53  1  0.94515363  0.33042219  0.38913533  1  0.204591  0  0.104045  0.034836  0  3.873777  0
C  C54  1  0.09751755  0.59801314  0.59716543  1  0.15128  0  0.017776  -0.070898  0  3.86591  0
C  C55  1  0.15339062  0.65259717  0.65248287  1  0.140136  0  0.01618  -0.074043  0  3.870943  0
C  C56  1  0.13919872  0.64198526  0.58270618  1  0.212135  0  0.103805  0.034527  0  3.872094  0
C  C57  1  0.10943859  0.61091842  0.66694961  1  0.177489  0  0.103763  0.034298  0  3.872736  0
C  C58  1  0.16866631  0.66628622  0.60964198  1  0.31988  0  0.103611  0.034625  0  3.87188  0
C  C59  1  0.08448989  0.58207028  0.64000697  1  0.274253  0  0.104518  0.035282  0  3.873399  0
C  C60  1  0.30808731  0.45269633  0.39984581  1  0.53227  0  0.105455  0.256262  0  4.078743  0
C  C61  1  0.44933669  0.29588752  0.34715189  1  0.032223  0  -0.08148  -0.124102  0  3.94433  0
C  C62  1  0.26187126  0.41370866  0.41266182  1  -0.069803  0  -0.036437  -0.249082  0  3.979759  0
C  C63  1  0.49463160  0.33568610  0.33524664  1  -0.157942  0  -0.022101  -0.121926  0  3.978184  0
C  C64  1  0.38163694  0.33861038  0.37119982  1  -0.152129  0  -0.016739  0.009118  0  4.077773  0
C  C65  1  0.37686651  0.41047076  0.37647127  1  -0.104191  0  -0.029285  -0.137007  0  4.102182  0
C  C66  1  0.72175734  0.57769000  0.63041187  1  0.513472  0  0.106299  0.257632  0  4.077877  0
C  C67  1  0.52001251  0.67408325  0.62233052  1  0.039555  0  -0.082065  -0.124337  0  3.946715  0
C  C68  1  0.73830728  0.58654323  0.58778858  1  -0.080251  0  -0.036028  -0.248576  0  3.981481  0
C  C69  1  0.50532085  0.66547565  0.66490536  1  -0.144834  0  -0.021434  -0.121229  0  3.979689  0
C  C70  1  0.59930368  0.64258826  0.60991221  1  -0.172587  0  -0.016403  0.009165  0  4.079145  0
C  C71  1  0.64282016  0.60986536  0.64356067  1  -0.069061  0  -0.029627  -0.138227  0  4.103648  0
C  C72  1  0.07603207  0.22893447  0.62782511  1  0.542611  0  0.106509  0.258216  0  4.076641  0
C  C73  1  0.17245315  0.02716195  0.62031502  1  0.146755  0  -0.082684  -0.125302  0  3.947457  0
C  C74  1  0.08495717  0.24510243  0.58517491  1  -0.066294  0  -0.036486  -0.249696  0  3.98057  0
C  C75  1  0.16224874  0.01257104  0.66285232  1  -0.227268  0  -0.022256  -0.122029  0  3.978529  0
C  C76  1  0.14013788  0.10633383  0.60767277  1  -0.212906  0  -0.01674  0.008647  0  4.079843  0
C  C77  1  0.10675350  0.15006208  0.64116662  1  -0.109489  0  -0.029482  -0.137004  0  4.101698  0
C  C78  1  0.84500135  0.79707185  0.39821720  1  0.603983  0  0.106071  0.257359  0  4.076838  0
C  C79  1  0.90514797  0.94650825  0.35374363  1  0.086499  0  -0.081741  -0.124762  0  3.945038  0
C  C80  1  0.91326091  0.75515549  0.41524558  1  -0.148245  0  -0.036378  -0.249893  0  3.980849  0
C  C81  1  0.83629126  0.98760842  0.33755222  1  -0.227431  0  -0.022296  -0.120927  0  3.978391  0
C  C82  1  0.90770883  0.87722706  0.37621680  1  -0.127088  0  -0.016525  0.00781  0  4.079286  0
C  C83  1  0.84069832  0.86707748  0.37607029  1  -0.150304  0  -0.029538  -0.135721  0  4.100594  0
C  C84  1  0.65267942  0.15238435  0.15269617  1  0.1535  0  0.017636  -0.072013  0  3.864854  0
C  C85  1  0.59749424  0.09708310  0.09738357  1  0.15083  0  0.016974  -0.072403  0  3.868485  0
C  C86  1  0.66838211  0.16564108  0.10985145  1  0.257583  0  0.104483  0.037826  0  3.868657  0
C  C87  1  0.58408353  0.08152521  0.14023534  1  0.251952  0  0.103499  0.034422  0  3.871133  0
C  C88  1  0.63917826  0.14104314  0.08292350  1  0.239679  0  0.104026  0.033264  0  3.871126  0
C  C89  1  0.60864177  0.11075991  0.16716533  1  0.235794  0  0.104088  0.034949  0  3.870869  0
C  C90  1  0.67261846  0.52775514  0.11952155  1  0.516519  0  0.10581  0.257201  0  4.078064  0
C  C91  1  0.57607681  0.72939446  0.12745937  1  -0.005903  0  -0.080865  -0.12355  0  3.943614  0
C  C92  1  0.66353251  0.51116467  0.16214450  1  -0.033442  0  -0.036564  -0.250457  0  3.981888  0
C  C93  1  0.58511576  0.74414899  0.08489402  1  -0.150815  0  -0.021979  -0.121905  0  3.977918  0
C  C94  1  0.60739054  0.65011710  0.13991283  1  -0.115564  0  -0.016376  0.009397  0  4.077282  0
C  C95  1  0.64040736  0.60665408  0.10629785  1  -0.067324  0  -0.02925  -0.136398  0  4.100322  0
C  C96  1  0.07792901  0.12564050  0.17879250  1  0.623972  0  0.105641  0.256649  0  4.076423  0
C  C97  1  0.16677433  0.12595844  0.07390939  1  0.100957  0  -0.082029  -0.124842  0  3.948036  0
C  C98  1  0.00575744  0.16380131  0.16569265  1  -0.1026  0  -0.036314  -0.249536  0  3.980136  0
C  C99  1  0.23798577  0.08718926  0.08774610  1  -0.199208  0  -0.021292  -0.120628  0  3.977052  0
C  C100  1  0.10847022  0.13919191  0.10731452  1  -0.156609  0  -0.016768  0.007471  0  4.080982  0
C  C101  1  0.13714360  0.11073069  0.14588875  1  -0.170727  0  -0.029052  -0.135217  0  4.101875  0
C  C102  1  0.34688798  0.84788032  0.84746486  1  0.116963  0  0.017612  -0.071725  0  3.86536  0
C  C103  1  0.40234204  0.90305845  0.90268185  1  0.141811  0  0.016247  -0.073651  0  3.869052  0
C  C104  1  0.30323271  0.91872447  0.86222831  1  0.295487  0  0.104387  0.034988  0  3.872067  0
C  C105  1  0.44487674  0.83109528  0.88904015  1  0.222202  0  0.104221  0.035763  0  3.870534  0
C  C106  1  0.33136733  0.94674060  0.88797792  1  0.258016  0  0.103388  0.032876  0  3.873951  0
C  C107  1  0.41900893  0.80534025  0.86102044  1  0.22156  0  0.104799  0.037016  0  3.869673  0
C  C108  1  0.40728246  0.44539969  0.85401105  1  0.556347  0  0.106258  0.25734  0  4.078293  0
C  C109  1  0.34702064  0.29595360  0.89826143  1  0.108521  0  -0.08155  -0.123579  0  3.94483  0
C  C110  1  0.33883550  0.48779440  0.83722057  1  -0.094458  0  -0.035905  -0.248662  0  3.979115  0
C  C111  1  0.41531480  0.25547469  0.91508749  1  -0.234452  0  -0.02209  -0.122361  0  3.979688  0
C  C112  1  0.34405193  0.36577985  0.87636757  1  -0.149354  0  -0.016112  0.009248  0  4.079221  0
C  C113  1  0.41096133  0.37599082  0.87670930  1  -0.107256  0  -0.029559  -0.137156  0  4.104363  0
C  C114  1  0.94873405  0.79501125  0.84765084  1  0.56202  0  0.105832  0.256683  0  4.076615  0
C  C115  1  0.80740594  0.95208663  0.90011893  1  0.026692  0  -0.082166  -0.124184  0  3.945321  0
C  C116  1  0.99518746  0.83380162  0.83508609  1  -0.084463  0  -0.036272  -0.249854  0  3.981031  0
C  C117  1  0.76261198  0.91185225  0.91262349  1  -0.14952  0  -0.021558  -0.121351  0  3.978161  0
C  C118  1  0.87576189  0.90874446  0.87674628  1  -0.130042  0  -0.01632  0.007828  0  4.079688  0
C  C119  1  0.88064414  0.83672512  0.87168053  1  -0.136899  0  -0.028312  -0.134623  0  4.099781  0
S  S120  1  0.30300026  0.32374083  0.39571112  1  0.286989  0  0.095713  0.154379  0  2.726792  0
S  S121  1  0.45583110  0.42495575  0.35283433  1  0.316994  0  0.107191  0.17689  0  2.729401  0
S  S122  1  0.65585297  0.63479138  0.56319108  1  0.296074  0  0.096508  0.155062  0  2.727417  0
S  S123  1  0.58689951  0.61914089  0.69026699  1  0.315339  0  0.108428  0.17915  0  2.730293  0
S  S124  1  0.13165111  0.16244791  0.56078846  1  0.288373  0  0.097166  0.156628  0  2.729691  0
S  S125  1  0.11370898  0.09428484  0.68791682  1  0.302855  0  0.10583  0.174291  0  2.728302  0
S  S126  1  0.97349357  0.80197049  0.40406073  1  0.309501  0  0.099442  0.160215  0  2.728455  0
S  S127  1  0.77425618  0.94281943  0.34916036  1  0.31839  0  0.103745  0.171098  0  2.729425  0
S  S128  1  0.61494602  0.59359026  0.18665717  1  0.28459  0  0.097648  0.156652  0  2.725484  0
S  S129  1  0.63158496  0.66262232  0.05957962  1  0.312903  0  0.108088  0.177727  0  2.728965  0
S  S130  1  0.01011150  0.18188022  0.11213732  1  0.303917  0  0.09993  0.160413  0  2.727649  0
S  S131  1  0.23512531  0.06667453  0.14117348  1  0.329717  0  0.105007  0.172972  0  2.728775  0
S  S132  1  0.27777192  0.44186764  0.84918294  1  0.29702  0  0.098785  0.157911  0  2.725424  0
S  S133  1  0.47653196  0.30115112  0.90453725  1  0.314304  0  0.107092  0.176798  0  2.730397  0
S  S134  1  0.95501941  0.92303388  0.85286164  1  0.295999  0  0.098193  0.158517  0  2.729868  0
S  S135  1  0.80245841  0.82161098  0.89612323  1  0.311955  0  0.106917  0.175506  0  2.727309  0
N  N136  1  0.78439826  0.52490383  0.39911929  1  0.460627  0  0.060652  0.506656  0  4.276054  0
N  N137  1  0.97126345  0.23067283  0.34536224  1  0.459633  0  0.05957  0.505876  0  4.277853  0
N  N138  1  0.72488021  0.46582295  0.35114554  1  0.459953  0  0.060908  0.508718  0  4.27348  0
N  N139  1  0.01943373  0.27819355  0.40471121  1  0.452069  0  0.060102  0.507083  0  4.276483  0
N  N140  1  0.15268000  0.66509402  0.53777943  1  0.428269  0  0.060032  0.507044  0  4.277271  0
N  N141  1  0.08662092  0.59732903  0.71190870  1  0.461623  0  0.060768  0.506742  0  4.274299  0
N  N142  1  0.21824127  0.70658001  0.59148046  1  0.473402  0  0.060284  0.508994  0  4.275096  0
N  N143  1  0.04419926  0.53251026  0.65829422  1  0.423146  0  0.060661  0.504873  0  4.277218  0
N  N144  1  0.71805761  0.20580257  0.09154936  1  0.432248  0  0.06113  0.506225  0  4.276369  0
N  N145  1  0.54384773  0.03190310  0.15845288  1  0.428508  0  0.061049  0.508729  0  4.2761  0
N  N146  1  0.65270697  0.16391545  0.03796965  1  0.467681  0  0.060297  0.507838  0  4.273373  0
N  N147  1  0.58544454  0.09736020  0.21208855  1  0.443351  0  0.059991  0.506825  0  4.276924  0
N  N148  1  0.22433619  0.96624276  0.85126491  1  0.444013  0  0.059806  0.507281  0  4.274587  0
N  N149  1  0.51904095  0.77895086  0.90477363  1  0.456484  0  0.060497  0.507452  0  4.275583  0
N  N150  1  0.28398477  0.02547714  0.89905217  1  0.452127  0  0.060165  0.509838  0  4.274587  0
N  N151  1  0.47124169  0.73123031  0.84531280  1  0.441381  0  0.06095  0.505863  0  4.279651  0
O  O152  1  0.00007366  0.49992093  0.50006769  1  -1.232603  0  -0.573095  -1.041527  0  2.523544  0
O  O153  1  0.06891026  0.31841520  0.52111568  1  -1.156178  0  -0.320305  -0.546672  0  2.321953  0
O  O154  1  0.01093811  0.55432251  0.58245848  1  -1.152261  0  -0.294977  -0.517469  0  2.33895  0
O  O155  1  0.15522402  0.50775867  0.44522762  1  -1.153713  0  -0.313393  -0.534977  0  2.32405  0
O  O156  1  0.03517575  0.37814091  0.57957802  1  -1.147512  0  -0.313513  -0.535922  0  2.331119  0
O  O157  1  0.16032124  0.38810452  0.44875349  1  -1.155278  0  -0.320036  -0.546021  0  2.317429  0
O  O158  1  0.10361873  0.56230137  0.53196862  1  -1.148215  0  -0.29495  -0.517049  0  2.337655  0
O  O159  1  0.00084481  0.65861035  0.45574404  1  -1.164897  0  -0.319215  -0.545153  0  2.326371  0
O  O160  1  0.88158103  0.48143843  0.45368044  1  -1.1591  0  -0.295503  -0.517827  0  2.337109  0
O  O161  1  0.89631819  0.64458196  0.44363202  1  -1.140182  0  -0.31363  -0.53575  0  2.330172  0
O  O162  1  0.00365322  0.40232955  0.43230483  1  -1.16174  0  -0.295685  -0.518332  0  2.336369  0
O  O163  1  0.87137395  0.51960735  0.58177821  1  -1.159977  0  -0.312503  -0.533024  0  2.323584  0
O  O164  1  0.81245785  0.58431143  0.52425975  1  -1.16246  0  -0.318537  -0.543624  0  2.322222  0
O  O165  1  0.75004345  0.24984817  0.25003127  1  -1.23307  0  -0.573168  -1.040168  0  2.524514  0
O  O166  1  0.60418617  0.35364708  0.30603856  1  -1.16753  0  -0.317627  -0.54549  0  2.337467  0
O  O167  1  0.68785397  0.14637923  0.21800393  1  -1.147619  0  -0.295948  -0.518093  0  2.341003  0
O  O168  1  0.73116110  0.37820869  0.16832317  1  -1.156421  0  -0.313668  -0.5352  0  2.322823  0
O  O169  1  0.59224656  0.24745921  0.29495890  1  -1.163296  0  -0.31448  -0.536383  0  2.319591  0
O  O170  1  0.66554146  0.43702392  0.22568579  1  -1.16105  0  -0.319614  -0.544931  0  2.320436  0
O  O171  1  0.69737120  0.23821186  0.16735437  1  -1.151825  0  -0.294498  -0.51656  0  2.337461  0
O  O172  1  0.87322377  0.21504300  0.17028804  1  -1.165485  0  -0.319442  -0.54651  0  2.327479  0
O  O173  1  0.84629951  0.24641173  0.31860141  1  -1.163523  0  -0.296758  -0.519618  0  2.338971  0
O  O174  1  0.93073758  0.18203904  0.22953879  1  -1.173619  0  -0.314234  -0.536844  0  2.331633  0
O  O175  1  0.76776998  0.36836731  0.29670846  1  -1.155571  0  -0.29609  -0.519002  0  2.336139  0
O  O176  1  0.74278485  0.09346180  0.30433550  1  -1.168867  0  -0.317197  -0.543299  0  2.334754  0
O  O177  1  0.86166885  0.09000299  0.30159540  1  -1.155153  0  -0.312748  -0.533156  0  2.311228  0
O  O178  1  0.25002743  0.75007535  0.75007371  1  -1.234148  0  -0.573238  -1.040201  0  2.52555  0
O  O179  1  0.37199747  0.71798574  0.66971334  1  -1.161156  0  -0.313504  -0.535174  0  2.320518  0
O  O180  1  0.34686349  0.74695700  0.81814295  1  -1.155533  0  -0.295293  -0.517622  0  2.338908  0
O  O181  1  0.16527075  0.93691943  0.72624836  1  -1.163569  0  -0.317318  -0.543391  0  2.331823  0
O  O182  1  0.43059608  0.68362189  0.72865032  1  -1.148617  0  -0.317736  -0.544245  0  2.338962  0
O  O183  1  0.22923920  0.87959803  0.66824744  1  -1.162076  0  -0.313949  -0.534513  0  2.312534  0
O  O184  1  0.26683548  0.86880868  0.79704514  1  -1.156873  0  -0.295741  -0.518088  0  2.335055  0
O  O185  1  0.10386871  0.85313507  0.80670414  1  -1.161865  0  -0.32074  -0.547143  0  2.325866  0
O  O186  1  0.19031311  0.64543938  0.71750826  1  -1.15802  0  -0.296142  -0.518774  0  2.337957  0
O  O187  1  0.09327598  0.74701316  0.79427203  1  -1.156673  0  -0.313523  -0.535707  0  2.330815  0
O  O188  1  0.19654111  0.73937105  0.66741532  1  -1.152307  0  -0.297054  -0.51955  0  2.338102  0
O  O189  1  0.36328610  0.59030182  0.80057843  1  -1.164329  0  -0.312906  -0.533725  0  2.324322  0
O  O190  1  0.24461880  0.59263486  0.80436430  1  -1.168905  0  -0.319011  -0.544296  0  2.319951  0
O  O191  1  0.50003836  0.99998991  0.99999381  1  -1.232883  0  -0.573019  -1.038877  0  2.524503  0
O  O192  1  0.50260528  0.15709976  0.95536486  1  -1.164308  0  -0.318498  -0.546507  0  2.339869  0
O  O193  1  0.38140060  0.98247418  0.95338294  1  -1.159485  0  -0.296841  -0.520601  0  2.337927  0
O  O194  1  0.65973404  0.88800994  0.94877782  1  -1.159965  0  -0.31703  -0.543373  0  2.332123  0
O  O195  1  0.39600081  0.14623421  0.94387119  1  -1.161016  0  -0.31411  -0.53603  0  2.320253  0
O  O196  1  0.65721470  0.00650012  0.94567157  1  -1.164134  0  -0.312787  -0.533477  0  2.311455  0
O  O197  1  0.50334675  0.90330956  0.93191372  1  -1.158901  0  -0.296379  -0.518664  0  2.3387  0
O  O198  1  0.56829505  0.81908639  0.02111006  1  -1.153666  0  -0.317677  -0.545412  0  2.337993  0
O  O199  1  0.51125392  0.05306016  0.08258260  1  -1.153127  0  -0.296386  -0.519079  0  2.337777  0
O  O200  1  0.53254021  0.87740077  0.08015087  1  -1.161741  0  -0.314037  -0.536626  0  2.317819  0
O  O201  1  0.60416165  0.06095717  0.03223757  1  -1.149846  0  -0.29636  -0.518814  0  2.338907  0
O  O202  1  0.31245723  0.08506426  0.02382375  1  -1.156729  0  -0.313178  -0.533655  0  2.310972  0
O  O203  1  0.37083042  0.02067185  0.08152671  1  -1.163086  0  -0.317179  -0.544013  0  2.334016  0
O  O204  1  0.80875193  0.57317513  0.38384437  1  -0.401882  0  -0.098772  -0.277043  0  1.886892  0
O  O205  1  0.72419998  0.53437168  0.42146670  1  -0.402211  0  -0.104509  -0.283242  0  1.868266  0
O  O206  1  0.99833638  0.23404737  0.30899861  1  -0.408575  0  -0.098948  -0.277883  0  1.8878  0
O  O207  1  0.98387924  0.17339281  0.37069453  1  -0.404478  0  -0.106333  -0.284057  0  1.866762  0
O  O208  1  0.67649990  0.44148600  0.36629395  1  -0.403262  0  -0.102731  -0.283887  0  1.888599  0
O  O209  1  0.71544274  0.52601072  0.32879671  1  -0.406457  0  -0.104802  -0.283455  0  1.866852  0
O  O210  1  0.01631630  0.25042523  0.44096757  1  -0.398586  0  -0.101722  -0.282476  0  1.88858  0
O  O211  1  0.07656895  0.26604646  0.37933857  1  -0.405388  0  -0.104843  -0.28342  0  1.869463  0
O  O212  1  0.09656830  0.71235755  0.52128211  1  -0.393023  0  -0.101929  -0.283012  0  1.88827  0
O  O213  1  0.21928343  0.63633811  0.52184981  1  -0.392605  0  -0.102987  -0.280447  0  1.868337  0
O  O214  1  0.03981704  0.65347439  0.72845184  1  -0.399603  0  -0.09939  -0.277924  0  1.885945  0
O  O215  1  0.11527836  0.53071554  0.72784203  1  -0.41464  0  -0.104404  -0.283183  0  1.868112  0
O  O216  1  0.28638222  0.67156535  0.59606093  1  -0.422302  0  -0.103752  -0.284835  0  1.88446  0
O  O217  1  0.18656474  0.77026300  0.57258319  1  -0.409071  0  -0.10673  -0.285936  0  1.868334  0
O  O218  1  0.07930649  0.46442686  0.65382739  1  -0.375936  0  -0.0987  -0.276667  0  1.886041  0
O  O219  1  0.98063944  0.56434661  0.67722850  1  -0.401252  0  -0.101583  -0.277799  0  1.866471  0
O  O220  1  0.78624952  0.17045916  0.09588776  1  -0.385341  0  -0.101715  -0.282375  0  1.887914  0
O  O221  1  0.68628575  0.26947328  0.07269789  1  -0.401159  0  -0.101659  -0.278067  0  1.867429  0
O  O222  1  0.57905904  0.96377372  0.15400955  1  -0.387812  0  -0.103529  -0.28416  0  1.883932  0
O  O223  1  0.48012359  0.06355295  0.17727002  1  -0.402844  0  -0.104328  -0.283231  0  1.869877  0
O  O224  1  0.59662157  0.21110383  0.02142935  1  -0.40854  0  -0.101105  -0.281976  0  1.887238  0
O  O225  1  0.71928080  0.13490695  0.02201019  1  -0.4174  0  -0.105457  -0.283481  0  1.865854  0
O  O226  1  0.53794901  0.15349049  0.22842526  1  -0.387843  0  -0.101995  -0.281732  0  1.883734  0
O  O227  1  0.61426569  0.03087945  0.22818008  1  -0.414086  0  -0.10378  -0.28225  0  1.86976  0
O  O228  1  0.17595515  0.94208702  0.86670916  1  -0.394268  0  -0.101609  -0.282299  0  1.886953  0
O  O229  1  0.21483978  0.02636244  0.82883005  1  -0.401267  0  -0.103662  -0.282377  0  1.86769  0
O  O230  1  0.51566768  0.75170781  0.94112828  1  -0.413923  0  -0.102022  -0.283421  0  1.888172  0
O  O231  1  0.57628863  0.76652189  0.87948447  1  -0.396309  0  -0.1023  -0.280307  0  1.868267  0
O  O232  1  0.30828932  0.07384606  0.88382086  1  -0.406767  0  -0.103098  -0.284178  0  1.883547  0
O  O233  1  0.22385950  0.03497977  0.92148269  1  -0.403752  0  -0.106077  -0.285164  0  1.867105  0
O  O234  1  0.49859652  0.73467409  0.80899972  1  -0.389869  0  -0.10047  -0.280669  0  1.88897  0
O  O235  1  0.48375130  0.67403284  0.87065269  1  -0.395093  0  -0.101332  -0.277642  0  1.869059  0
F  F236  1  0.29054677  0.52299327  0.40863392  1  -0.614414  0  -0.081525  -0.097466  0  1.352995  0
F  F237  1  0.77436433  0.54299942  0.65691103  1  -0.61384  0  -0.0808  -0.09655  0  1.351783  0
F  F238  1  0.04145808  0.28175643  0.65413846  1  -0.61038  0  -0.079589  -0.095343  0  1.354752  0
F  F239  1  0.78808625  0.77483034  0.40237446  1  -0.610821  0  -0.081301  -0.097538  0  1.354926  0
F  F240  1  0.70766445  0.47516793  0.09306811  1  -0.619171  0  -0.081779  -0.098041  0  1.35215  0
F  F241  1  0.09123640  0.10395900  0.21837298  1  -0.618869  0  -0.081245  -0.097305  0  1.353454  0
F  F242  1  0.46444650  0.46730800  0.84978724  1  -0.616841  0  -0.081441  -0.097516  0  1.351448  0
F  F243  1  0.96602921  0.72496260  0.83863730  1  -0.614228  0  -0.079693  -0.095312  0  1.354904  0
