# generated using pymatgen
data_Lu2H18(C3O8)3
_symmetry_space_group_name_H-M   'P 1'
_cell_length_a   8.69682560
_cell_length_b   8.69685333
_cell_length_c   8.69676761
_cell_angle_alpha   66.39143802
_cell_angle_beta   66.39155928
_cell_angle_gamma   66.39164648
_symmetry_Int_Tables_number   1
_chemical_formula_structural   Lu2H18(C3O8)3
_chemical_formula_sum   'Lu2 H18 C9 O24'
_cell_volume   529.21780651
_cell_formula_units_Z   1
loop_
 _symmetry_equiv_pos_site_id
 _symmetry_equiv_pos_as_xyz
  1  'x, y, z'
loop_
 _atom_site_type_symbol
 _atom_site_label
 _atom_site_symmetry_multiplicity
 _atom_site_fract_x
 _atom_site_fract_y
 _atom_site_fract_z
 _atom_site_occupancy
 _atom_site_hle17_bader_spin_density
 _atom_site_hle17_ddec_charge
 _atom_site_hle17_ddec_spin_density
 _atom_site_hle17_ddec_sum_bond_order
 _atom_site_hle17_magmom
 _atom_site_hse06_10hf_bader_spin_density
 _atom_site_hse06_10hf_ddec_charge
 _atom_site_hse06_10hf_ddec_spin_density
 _atom_site_hse06_10hf_ddec_sum_bond_order
 _atom_site_hse06_10hf_magmom
 _atom_site_hse06_bader_spin_density
 _atom_site_hse06_ddec_charge
 _atom_site_hse06_ddec_spin_density
 _atom_site_hse06_ddec_sum_bond_order
 _atom_site_hse06_magmom
 _atom_site_pbe_bader_spin_density
 _atom_site_pbe_cm5_charge
 _atom_site_pbe_ddec_charge
 _atom_site_pbe_ddec_spin_density
 _atom_site_pbe_ddec_sum_bond_order
 _atom_site_pbe_magmom
Lu  Lu0  1  0.73369278  0.73369302  0.73368869  1  0  1.907041  0  2.19549  0  0  1.736527  0  2.66541  0  0  1.794087  0  2.611223  0  0  1.307147  1.695682  0  2.702812  0
Lu  Lu1  1  0.26631074  0.26630844  0.26631070  1  0  1.906985  0  2.195527  0  0  1.736512  0  2.665379  0  0  1.794056  0  2.611201  0  0  1.307159  1.695679  0  2.702767  0
H  H2  1  0.69310088  0.82345031  0.05153489  1  0  0.411608  0  0.88299  0  0  0.376544  0  0.965632  0  0  0.389314  0  0.947703  0  0  0.308452  0.367587  0  0.975614  0
H  H3  1  0.05153526  0.69309100  0.82344675  1  0  0.41158  0  0.883031  0  0  0.376527  0  0.965663  0  0  0.389297  0  0.947726  0  0  0.308462  0.367566  0  0.975646  0
H  H4  1  0.82344813  0.05153486  0.69309341  1  0  0.411585  0  0.883036  0  0  0.376555  0  0.965625  0  0  0.389332  0  0.947684  0  0  0.308454  0.367594  0  0.975612  0
H  H5  1  0.94846959  0.17655173  0.30690289  1  0  0.41159  0  0.883018  0  0  0.376558  0  0.965609  0  0  0.389336  0  0.947673  0  0  0.308474  0.3676  0  0.975593  0
H  H6  1  0.17654798  0.30689511  0.94846858  1  0  0.411629  0  0.882942  0  0  0.376556  0  0.965601  0  0  0.389332  0  0.947674  0  0  0.308444  0.367593  0  0.975587  0
H  H7  1  0.30690670  0.94847092  0.17655092  1  0  0.411637  0  0.882984  0  0  0.376623  0  0.965541  0  0  0.389403  0  0.947583  0  0  0.30849  0.367663  0  0.975527  0
H  H8  1  0.73374995  0.78325214  0.36598609  1  0  0.439135  0  0.858677  0  0  0.404278  0  0.925801  0  0  0.416523  0  0.907967  0  0  0.301141  0.395611  0  0.938431  0
H  H9  1  0.36598942  0.73375196  0.78324815  1  0  0.439178  0  0.858616  0  0  0.404313  0  0.925748  0  0  0.416566  0  0.907903  0  0  0.301133  0.395642  0  0.938383  0
H  H10  1  0.78324442  0.36599277  0.73375069  1  0  0.439165  0  0.858618  0  0  0.4043  0  0.92575  0  0  0.416547  0  0.907915  0  0  0.301135  0.395631  0  0.938383  0
H  H11  1  0.63401128  0.21675171  0.26624785  1  0  0.439164  0  0.858627  0  0  0.404303  0  0.925753  0  0  0.416549  0  0.907917  0  0  0.30113  0.395627  0  0.938397  0
H  H12  1  0.21674629  0.26623781  0.63402191  1  0  0.439147  0  0.858664  0  0  0.404309  0  0.925755  0  0  0.416553  0  0.907924  0  0  0.301144  0.395636  0  0.938394  0
H  H13  1  0.26624887  0.63401014  0.21674905  1  0  0.43916  0  0.85864  0  0  0.404297  0  0.925768  0  0  0.41654  0  0.907938  0  0  0.301131  0.395619  0  0.938416  0
H  H14  1  0.54802013  0.87385119  0.47892059  1  0  0.43534  0  0.845571  0  0  0.403531  0  0.920588  0  0  0.414533  0  0.9042  0  0  0.313401  0.395701  0  0.932272  0
H  H15  1  0.47892207  0.54803206  0.87384901  1  0  0.435364  0  0.845605  0  0  0.403547  0  0.92055  0  0  0.414538  0  0.904182  0  0  0.313423  0.395714  0  0.932238  0
H  H16  1  0.87384065  0.47892903  0.54802312  1  0  0.435313  0  0.845641  0  0  0.403483  0  0.920634  0  0  0.41448  0  0.904256  0  0  0.3134  0.39566  0  0.932307  0
H  H17  1  0.52107552  0.12615965  0.45197581  1  0  0.435272  0  0.845692  0  0  0.403443  0  0.920691  0  0  0.414443  0  0.904311  0  0  0.313353  0.395614  0  0.932373  0
H  H18  1  0.12615215  0.45196564  0.52108235  1  0  0.435382  0  0.845574  0  0  0.403564  0  0.920522  0  0  0.414555  0  0.904154  0  0  0.313443  0.395733  0  0.932208  0
H  H19  1  0.45197558  0.52107339  0.12616023  1  0  0.435313  0  0.845648  0  0  0.403489  0  0.920627  0  0  0.414483  0  0.904253  0  0  0.313372  0.395654  0  0.932318  0
C  C20  1  0.50000533  0.03490108  0.96509564  1  0  0.311854  0  3.682609  0  0  0.287652  0  3.945408  0  0  0.29563  0  3.947152  0  0  0.157955  0.281835  0  3.944622  0
C  C21  1  0.96510070  0.49999685  0.03490260  1  0  0.311801  0  3.68264  0  0  0.287635  0  3.945362  0  0  0.295568  0  3.947196  0  0  0.157932  0.281818  0  3.944574  0
C  C22  1  0.03490778  0.96509641  0.49999712  1  0  0.311778  0  3.682658  0  0  0.287621  0  3.945382  0  0  0.29556  0  3.947187  0  0  0.157962  0.281805  0  3.94459  0
C  C23  1  0.41877840  0.08260419  0.81540904  1  0  0.61264  0  3.8157  0  0  0.550989  0  4.12232  0  0  0.584047  0  4.114914  0  0  0.231656  0.528577  0  4.126966  0
C  C24  1  0.81540580  0.41878002  0.08260411  1  0  0.612721  0  3.815535  0  0  0.550989  0  4.122248  0  0  0.584052  0  4.114855  0  0  0.231611  0.52858  0  4.126895  0
C  C25  1  0.08260164  0.81540970  0.41877969  1  0  0.612745  0  3.815316  0  0  0.551031  0  4.122008  0  0  0.584116  0  4.114575  0  0  0.231624  0.528624  0  4.126658  0
C  C26  1  0.18459693  0.91739874  0.58121427  1  0  0.612663  0  3.81544  0  0  0.550967  0  4.122118  0  0  0.584026  0  4.114713  0  0  0.231638  0.528561  0  4.126752  0
C  C27  1  0.91739895  0.58121967  0.18459471  1  0  0.612657  0  3.815587  0  0  0.55097  0  4.122245  0  0  0.584044  0  4.114838  0  0  0.231629  0.528565  0  4.126886  0
C  C28  1  0.58121893  0.18459602  0.91738957  1  0  0.612655  0  3.815402  0  0  0.550904  0  4.12218  0  0  0.583969  0  4.11476  0  0  0.231619  0.528501  0  4.126817  0
O  O29  1  0.62377499  0.87093846  0.96270578  1  0  -0.642895  0  2.247389  0  0  -0.587688  0  2.484209  0  0  -0.606827  0  2.468345  0  0  -0.413356  -0.574136  0  2.493005  0
O  O30  1  0.96270490  0.62376994  0.87093645  1  0  -0.64289  0  2.247406  0  0  -0.587692  0  2.484233  0  0  -0.606846  0  2.468385  0  0  -0.413371  -0.574147  0  2.493028  0
O  O31  1  0.87094317  0.96270448  0.62377079  1  0  -0.642931  0  2.247429  0  0  -0.587742  0  2.48419  0  0  -0.606903  0  2.468346  0  0  -0.41337  -0.574187  0  2.492986  0
O  O32  1  0.03729715  0.12906202  0.37622772  1  0  -0.642832  0  2.24739  0  0  -0.587704  0  2.484216  0  0  -0.606839  0  2.468357  0  0  -0.413382  -0.574147  0  2.493008  0
O  O33  1  0.12906181  0.37622655  0.03729450  1  0  -0.642913  0  2.247412  0  0  -0.587713  0  2.484213  0  0  -0.606857  0  2.46838  0  0  -0.413354  -0.574152  0  2.493004  0
O  O34  1  0.37622716  0.03729902  0.12906048  1  0  -0.642972  0  2.247363  0  0  -0.587807  0  2.484153  0  0  -0.606968  0  2.468274  0  0  -0.413427  -0.574254  0  2.492949  0
O  O35  1  0.67211489  0.81965145  0.47593577  1  0  -0.872976  0  1.965247  0  0  -0.818467  0  2.179999  0  0  -0.839691  0  2.144973  0  0  -0.643153  -0.803484  0  2.204343  0
O  O36  1  0.47593613  0.67212118  0.81965493  1  0  -0.873051  0  1.965235  0  0  -0.818473  0  2.179996  0  0  -0.839699  0  2.144972  0  0  -0.643181  -0.803485  0  2.204336  0
O  O37  1  0.81965140  0.47593922  0.67211734  1  0  -0.87297  0  1.965237  0  0  -0.818409  0  2.180056  0  0  -0.839631  0  2.145032  0  0  -0.643151  -0.803419  0  2.204379  0
O  O38  1  0.52406111  0.18035190  0.32788430  1  0  -0.872925  0  1.965326  0  0  -0.818348  0  2.180126  0  0  -0.839583  0  2.145108  0  0  -0.643104  -0.803366  0  2.204468  0
O  O39  1  0.18034782  0.32787798  0.52406623  1  0  -0.873013  0  1.965255  0  0  -0.818494  0  2.180014  0  0  -0.839709  0  2.145001  0  0  -0.643209  -0.803504  0  2.204359  0
O  O40  1  0.32788203  0.52406137  0.18035392  1  0  -0.872951  0  1.965293  0  0  -0.818395  0  2.180081  0  0  -0.839613  0  2.145068  0  0  -0.643117  -0.803406  0  2.204444  0
O  O41  1  0.51134571  0.00723253  0.69667218  1  0  -0.614582  0  2.104019  0  0  -0.550411  0  2.343153  0  0  -0.577705  0  2.335068  0  0  -0.330489  -0.531463  0  2.348286  0
O  O42  1  0.69668260  0.51134123  0.00722953  1  0  -0.614602  0  2.104168  0  0  -0.550432  0  2.343355  0  0  -0.577709  0  2.335263  0  0  -0.330483  -0.531482  0  2.348488  0
O  O43  1  0.00722463  0.69668459  0.51133399  1  0  -0.614572  0  2.104068  0  0  -0.550358  0  2.343156  0  0  -0.577653  0  2.335047  0  0  -0.330484  -0.531425  0  2.348294  0
O  O44  1  0.30332213  0.99277101  0.48866075  1  0  -0.614547  0  2.104289  0  0  -0.550327  0  2.343386  0  0  -0.577622  0  2.335284  0  0  -0.330477  -0.531388  0  2.348512  0
O  O45  1  0.99277032  0.48865439  0.30332653  1  0  -0.614617  0  2.104128  0  0  -0.550425  0  2.343245  0  0  -0.577713  0  2.335144  0  0  -0.33049  -0.531481  0  2.348367  0
O  O46  1  0.48865689  0.30332325  0.99277056  1  0  -0.614545  0  2.10404  0  0  -0.550341  0  2.343207  0  0  -0.577636  0  2.335112  0  0  -0.330465  -0.531403  0  2.348335  0
O  O47  1  0.27210884  0.19747804  0.81713095  1  0  -0.559845  0  2.024021  0  0  -0.501428  0  2.236637  0  0  -0.52601  0  2.223851  0  0  -0.282305  -0.484524  0  2.244687  0
O  O48  1  0.81712599  0.27211063  0.19749461  1  0  -0.559932  0  2.023869  0  0  -0.501496  0  2.236502  0  0  -0.52608  0  2.223715  0  0  -0.282311  -0.484586  0  2.244554  0
O  O49  1  0.19749889  0.81713060  0.27210267  1  0  -0.559988  0  2.023675  0  0  -0.501572  0  2.236287  0  0  -0.52616  0  2.223481  0  0  -0.282327  -0.484655  0  2.244341  0
O  O50  1  0.18287507  0.80249826  0.72788971  1  0  -0.559876  0  2.0236  0  0  -0.50146  0  2.23624  0  0  -0.526036  0  2.223442  0  0  -0.282324  -0.484554  0  2.244284  0
O  O51  1  0.80251545  0.72788610  0.18287290  1  0  -0.559813  0  2.023839  0  0  -0.501394  0  2.236477  0  0  -0.525971  0  2.223683  0  0  -0.282282  -0.484492  0  2.244526  0
O  O52  1  0.72788804  0.18287720  0.80249886  1  0  -0.559866  0  2.023827  0  0  -0.501443  0  2.236488  0  0  -0.526015  0  2.223693  0  0  -0.282304  -0.484531  0  2.244536  0
