# generated using pymatgen
data_CdH4C7N3ClO2
_symmetry_space_group_name_H-M   'P 1'
_cell_length_a   7.28765389
_cell_length_b   10.64148844
_cell_length_c   10.93075600
_cell_angle_alpha   90.00092675
_cell_angle_beta   108.22874501
_cell_angle_gamma   89.99885571
_symmetry_Int_Tables_number   1
_chemical_formula_structural   CdH4C7N3ClO2
_chemical_formula_sum   'Cd4 H16 C28 N12 Cl4 O8'
_cell_volume   805.15491392
_cell_formula_units_Z   4
loop_
 _symmetry_equiv_pos_site_id
 _symmetry_equiv_pos_as_xyz
  1  'x, y, z'
loop_
 _atom_site_type_symbol
 _atom_site_label
 _atom_site_symmetry_multiplicity
 _atom_site_fract_x
 _atom_site_fract_y
 _atom_site_fract_z
 _atom_site_occupancy
 _atom_site_hle17_bader_spin_density
 _atom_site_hle17_ddec_charge
 _atom_site_hle17_ddec_spin_density
 _atom_site_hle17_ddec_sum_bond_order
 _atom_site_hle17_magmom
 _atom_site_hse06_10hf_bader_spin_density
 _atom_site_hse06_10hf_ddec_charge
 _atom_site_hse06_10hf_ddec_spin_density
 _atom_site_hse06_10hf_ddec_sum_bond_order
 _atom_site_hse06_10hf_magmom
 _atom_site_hse06_bader_spin_density
 _atom_site_hse06_ddec_charge
 _atom_site_hse06_ddec_spin_density
 _atom_site_hse06_ddec_sum_bond_order
 _atom_site_hse06_magmom
 _atom_site_pbe_bader_spin_density
 _atom_site_pbe_cm5_charge
 _atom_site_pbe_ddec_charge
 _atom_site_pbe_ddec_spin_density
 _atom_site_pbe_ddec_sum_bond_order
 _atom_site_pbe_magmom
Cd  Cd0  1  0.00872271  0.07761416  0.35129917  1  0  1.021952  0  1.857298  0  0  0.841075  0  2.321245  0  0  0.892428  0  2.274802  0  0  0.682021  0.804457  0  2.353703  0
Cd  Cd1  1  0.99127343  0.57761767  0.14869802  1  0  1.021995  0  1.857244  0  0  0.841078  0  2.32118  0  0  0.892436  0  2.274734  0  0  0.682003  0.804452  0  2.353632  0
Cd  Cd2  1  0.99127925  0.92238936  0.64869814  1  0  1.021939  0  1.857349  0  0  0.841064  0  2.321305  0  0  0.892419  0  2.274859  0  0  0.682002  0.804444  0  2.353758  0
Cd  Cd3  1  0.00871987  0.42238678  0.85129843  1  0  1.021932  0  1.857363  0  0  0.841049  0  2.32131  0  0  0.892403  0  2.274867  0  0  0.682005  0.80442  0  2.353755  0
H  H4  1  0.89036960  0.71328397  0.87822540  1  0  0.301214  0  0.904868  0  0  0.278375  0  0.975652  0  0  0.286727  0  0.968875  0  0  0.315327  0.272135  0  0.98128  0
H  H5  1  0.10963034  0.21328846  0.62177170  1  0  0.301131  0  0.904941  0  0  0.278328  0  0.975686  0  0  0.28668  0  0.968909  0  0  0.315332  0.272092  0  0.981304  0
H  H6  1  0.10963093  0.28671673  0.12177345  1  0  0.301122  0  0.904898  0  0  0.278313  0  0.975663  0  0  0.286665  0  0.968886  0  0  0.315325  0.272073  0  0.981289  0
H  H7  1  0.89037309  0.78671506  0.37822774  1  0  0.301191  0  0.904845  0  0  0.278373  0  0.975609  0  0  0.286725  0  0.968832  0  0  0.315342  0.272137  0  0.981239  0
H  H8  1  0.68976788  0.27061654  0.14104480  1  0  0.093397  0  0.926199  0  0  0.101485  0  0.99022  0  0  0.104578  0  0.986632  0  0  0.120059  0.099089  0  0.993058  0
H  H9  1  0.31023073  0.77061863  0.35895137  1  0  0.093407  0  0.926231  0  0  0.101484  0  0.990253  0  0  0.104579  0  0.986667  0  0  0.120036  0.099097  0  0.993099  0
H  H10  1  0.31022106  0.72938134  0.85894709  1  0  0.09333  0  0.926242  0  0  0.101426  0  0.990254  0  0  0.104518  0  0.986665  0  0  0.120038  0.099029  0  0.993095  0
H  H11  1  0.68977849  0.22937925  0.64105201  1  0  0.093352  0  0.926242  0  0  0.101436  0  0.990267  0  0  0.104531  0  0.98668  0  0  0.120035  0.099046  0  0.993114  0
H  H12  1  0.49702152  0.27325725  0.90675275  1  0  0.135135  0  0.96351  0  0  0.141233  0  1.024515  0  0  0.145438  0  1.022583  0  0  0.106726  0.137903  0  1.027029  0
H  H13  1  0.50297554  0.77325611  0.59324928  1  0  0.135222  0  0.963361  0  0  0.141288  0  1.024395  0  0  0.145494  0  1.022461  0  0  0.106749  0.137962  0  1.026912  0
H  H14  1  0.50296022  0.72674439  0.09324041  1  0  0.135083  0  0.963642  0  0  0.141331  0  1.024449  0  0  0.145536  0  1.022516  0  0  0.10678  0.138002  0  1.026967  0
H  H15  1  0.49703369  0.22673989  0.40675501  1  0  0.135161  0  0.963532  0  0  0.141338  0  1.024417  0  0  0.145547  0  1.022477  0  0  0.106776  0.138011  0  1.026935  0
H  H16  1  0.53323280  0.08917635  0.76773628  1  0  0.118892  0  0.934986  0  0  0.126716  0  0.998814  0  0  0.13073  0  0.995149  0  0  0.109122  0.123846  0  1.001368  0
H  H17  1  0.46675433  0.58917047  0.73226172  1  0  0.118916  0  0.934994  0  0  0.126725  0  0.998849  0  0  0.130735  0  0.995175  0  0  0.10916  0.123851  0  1.001398  0
H  H18  1  0.46675760  0.91082435  0.23225775  1  0  0.118925  0  0.935053  0  0  0.126771  0  0.998858  0  0  0.130782  0  0.995187  0  0  0.109176  0.1239  0  1.001414  0
H  H19  1  0.53325353  0.41082271  0.26775144  1  0  0.118925  0  0.935154  0  0  0.126791  0  0.998935  0  0  0.130806  0  0.995261  0  0  0.109148  0.123914  0  1.001485  0
C  C20  1  0.68883725  0.18932854  0.08019048  1  0  0.171736  0  3.630492  0  0  0.132894  0  3.896295  0  0  0.143888  0  3.907862  0  0  0.063557  0.126378  0  3.888587  0
C  C21  1  0.31115184  0.68933350  0.41980886  1  0  0.171574  0  3.630443  0  0  0.132773  0  3.896174  0  0  0.143758  0  3.907751  0  0  0.063553  0.126244  0  3.888486  0
C  C22  1  0.31115745  0.81067027  0.91980077  1  0  0.171841  0  3.630312  0  0  0.132988  0  3.896127  0  0  0.143986  0  3.907689  0  0  0.063557  0.126473  0  3.888418  0
C  C23  1  0.68885305  0.31066438  0.58019363  1  0  0.171745  0  3.63025  0  0  0.132944  0  3.896023  0  0  0.143933  0  3.907596  0  0  0.063569  0.126414  0  3.888328  0
C  C24  1  0.58565584  0.19191686  0.94796640  1  0  -0.102203  0  3.653147  0  0  -0.118369  0  3.914685  0  0  -0.124323  0  3.931543  0  0  -0.076986  -0.115285  0  3.905425  0
C  C25  1  0.41432593  0.69191812  0.55203761  1  0  -0.102195  0  3.652763  0  0  -0.118345  0  3.914305  0  0  -0.124302  0  3.931168  0  0  -0.076978  -0.115263  0  3.905053  0
C  C26  1  0.41434032  0.80808947  0.05202698  1  0  -0.10218  0  3.652945  0  0  -0.118483  0  3.914519  0  0  -0.124438  0  3.931376  0  0  -0.077025  -0.115399  0  3.905265  0
C  C27  1  0.58568329  0.30808164  0.44796485  1  0  -0.102354  0  3.652869  0  0  -0.118578  0  3.914439  0  0  -0.124537  0  3.931299  0  0  -0.077088  -0.115495  0  3.905186  0
C  C28  1  0.60542296  0.09205131  0.87162560  1  0  0.013621  0  3.615434  0  0  -0.015476  0  3.867887  0  0  -0.0105  0  3.881989  0  0  -0.051536  -0.019335  0  3.859496  0
C  C29  1  0.39456123  0.59204751  0.62837366  1  0  0.013683  0  3.615466  0  0  -0.015428  0  3.867891  0  0  -0.010442  0  3.881988  0  0  -0.05152  -0.019272  0  3.859491  0
C  C30  1  0.39456458  0.90795221  0.12837058  1  0  0.013701  0  3.61545  0  0  -0.015442  0  3.867941  0  0  -0.010462  0  3.882042  0  0  -0.051514  -0.019297  0  3.859554  0
C  C31  1  0.60542928  0.40795882  0.37163319  1  0  0.013823  0  3.615619  0  0  -0.015362  0  3.868023  0  0  -0.010383  0  3.882127  0  0  -0.051453  -0.019205  0  3.859624  0
C  C32  1  0.72087637  0.98972902  0.93106237  1  0  -0.099433  0  3.762343  0  0  -0.083151  0  3.999598  0  0  -0.091653  0  4.021547  0  0  -0.006142  -0.077978  0  3.98571  0
C  C33  1  0.27912692  0.48972659  0.56894068  1  0  -0.09959  0  3.76238  0  0  -0.083194  0  3.999595  0  0  -0.091693  0  4.021537  0  0  -0.006248  -0.078022  0  3.985706  0
C  C34  1  0.27911838  0.01027356  0.06893529  1  0  -0.099617  0  3.762663  0  0  -0.083297  0  3.999839  0  0  -0.091799  0  4.021789  0  0  -0.006248  -0.078124  0  3.985952  0
C  C35  1  0.72087800  0.51027223  0.43106455  1  0  -0.099628  0  3.762947  0  0  -0.083244  0  4.000071  0  0  -0.091744  0  4.022013  0  0  -0.006221  -0.078071  0  3.986183  0
C  C36  1  0.76243113  0.88529067  0.85701691  1  0  0.485131  0  3.881464  0  0  0.433016  0  4.171108  0  0  0.460873  0  4.173928  0  0  0.22063  0.413863  0  4.170036  0
C  C37  1  0.23754873  0.38529566  0.64298152  1  0  0.485023  0  3.881512  0  0  0.432763  0  4.171321  0  0  0.460618  0  4.174144  0  0  0.220571  0.413611  0  4.170246  0
C  C38  1  0.23755784  0.11471097  0.14297865  1  0  0.484987  0  3.881498  0  0  0.432901  0  4.171144  0  0  0.460755  0  4.173966  0  0  0.220591  0.413747  0  4.170076  0
C  C39  1  0.76245041  0.61470034  0.35702253  1  0  0.485021  0  3.88158  0  0  0.432864  0  4.171209  0  0  0.46072  0  4.174027  0  0  0.220615  0.413714  0  4.17014  0
C  C40  1  0.91090112  0.87772552  0.13111075  1  0  0.421759  0  3.923922  0  0  0.377185  0  4.218558  0  0  0.401046  0  4.225501  0  0  0.201901  0.361697  0  4.212503  0
C  C41  1  0.08910501  0.37771934  0.36889322  1  0  0.421679  0  3.923979  0  0  0.37705  0  4.218728  0  0  0.400895  0  4.225691  0  0  0.20186  0.361561  0  4.212671  0
C  C42  1  0.08910231  0.12227987  0.86888960  1  0  0.421802  0  3.92381  0  0  0.377188  0  4.218486  0  0  0.401052  0  4.225426  0  0  0.201856  0.361697  0  4.212426  0
C  C43  1  0.91090709  0.62227384  0.63110891  1  0  0.421575  0  3.923954  0  0  0.376967  0  4.21865  0  0  0.400816  0  4.225613  0  0  0.201821  0.361481  0  4.212589  0
C  C44  1  0.80695296  0.99001731  0.06531417  1  0  0.090944  0  3.773361  0  0  0.084712  0  4.014115  0  0  0.089037  0  4.034064  0  0  0.110137  0.082763  0  3.999674  0
C  C45  1  0.19306053  0.49001268  0.43469126  1  0  0.091095  0  3.773001  0  0  0.084766  0  4.013897  0  0  0.089096  0  4.033851  0  0  0.110178  0.08282  0  3.999453  0
C  C46  1  0.19304901  0.00998527  0.93468406  1  0  0.090967  0  3.773354  0  0  0.084755  0  4.014051  0  0  0.089077  0  4.034004  0  0  0.110137  0.082809  0  3.999604  0
C  C47  1  0.80694870  0.50998050  0.56531211  1  0  0.091179  0  3.773149  0  0  0.084918  0  4.013933  0  0  0.089249  0  4.033884  0  0  0.110252  0.082971  0  3.999489  0
N  N48  1  0.79531306  0.09096424  0.13764633  1  0  -0.338222  0  3.247324  0  0  -0.267969  0  3.511023  0  0  -0.28644  0  3.527504  0  0  -0.322094  -0.255001  0  3.498703  0
N  N49  1  0.20469002  0.59096123  0.36235707  1  0  -0.338183  0  3.24708  0  0  -0.267917  0  3.510809  0  0  -0.286393  0  3.527305  0  0  -0.322066  -0.254947  0  3.498489  0
N  N50  1  0.20468314  0.90903552  0.86235071  1  0  -0.338225  0  3.247143  0  0  -0.267999  0  3.510914  0  0  -0.286475  0  3.527401  0  0  -0.322072  -0.255031  0  3.498589  0
N  N51  1  0.79531636  0.40903571  0.63765121  1  0  -0.338193  0  3.246838  0  0  -0.268037  0  3.510702  0  0  -0.286511  0  3.527187  0  0  -0.32213  -0.255066  0  3.498378  0
N  N52  1  0.92473022  0.77839851  0.05972312  1  0  -0.326707  0  3.133868  0  0  -0.278029  0  3.422925  0  0  -0.299505  0  3.4419  0  0  -0.255953  -0.264203  0  3.411622  0
N  N53  1  0.07527114  0.27839745  0.44028014  1  0  -0.326698  0  3.133897  0  0  -0.277978  0  3.422986  0  0  -0.29945  0  3.441966  0  0  -0.255889  -0.264154  0  3.411687  0
N  N54  1  0.07526745  0.22160595  0.94027788  1  0  -0.326814  0  3.133869  0  0  -0.278098  0  3.422961  0  0  -0.299573  0  3.44193  0  0  -0.255872  -0.264272  0  3.411652  0
N  N55  1  0.92473230  0.72160231  0.55972113  1  0  -0.326737  0  3.133742  0  0  -0.278041  0  3.422843  0  0  -0.299511  0  3.441819  0  0  -0.255878  -0.264218  0  3.411544  0
N  N56  1  0.85447507  0.78671044  0.92832097  1  0  -0.255533  0  3.45626  0  0  -0.199764  0  3.696208  0  0  -0.218006  0  3.715069  0  0  -0.285453  -0.18873  0  3.685824  0
N  N57  1  0.14552162  0.28670986  0.57167570  1  0  -0.255402  0  3.456348  0  0  -0.199667  0  3.696415  0  0  -0.217902  0  3.71527  0  0  -0.285588  -0.188636  0  3.68603  0
N  N58  1  0.14552978  0.21329496  0.07167694  1  0  -0.255213  0  3.456254  0  0  -0.199539  0  3.696272  0  0  -0.217772  0  3.715129  0  0  -0.285468  -0.188502  0  3.685884  0
N  N59  1  0.85447892  0.71328989  0.42832314  1  0  -0.255306  0  3.456194  0  0  -0.199589  0  3.696197  0  0  -0.217825  0  3.715052  0  0  -0.285503  -0.188558  0  3.685816  0
Cl  Cl60  1  0.26517616  0.98899695  0.55440914  1  0  -0.545808  0  0.992549  0  0  -0.48172  0  1.277793  0  0  -0.501559  0  1.255845  0  0  -0.286262  -0.464354  0  1.292659  0
Cl  Cl61  1  0.73482426  0.48899834  0.94559332  1  0  -0.545793  0  0.992507  0  0  -0.481708  0  1.277752  0  0  -0.501547  0  1.255801  0  0  -0.286275  -0.464351  0  1.292614  0
Cl  Cl62  1  0.73482437  0.01099905  0.44558971  1  0  -0.545791  0  0.992545  0  0  -0.481711  0  1.277794  0  0  -0.501548  0  1.255841  0  0  -0.286258  -0.464342  0  1.292659  0
Cl  Cl63  1  0.26517920  0.51100330  0.05440979  1  0  -0.545789  0  0.992429  0  0  -0.48173  0  1.277702  0  0  -0.50157  0  1.255753  0  0  -0.286285  -0.46437  0  1.292563  0
O  O64  1  0.98367193  0.87398597  0.25411539  1  0  -0.611249  0  2.059726  0  0  -0.552069  0  2.31617  0  0  -0.57896  0  2.309421  0  0  -0.327031  -0.533142  0  2.319638  0
O  O65  1  0.01633001  0.37397310  0.24589316  1  0  -0.611278  0  2.059893  0  0  -0.552043  0  2.316318  0  0  -0.578934  0  2.30958  0  0  -0.327047  -0.533112  0  2.319772  0
O  O66  1  0.01632862  0.12601755  0.74588529  1  0  -0.611261  0  2.059801  0  0  -0.55206  0  2.316247  0  0  -0.578956  0  2.309501  0  0  -0.327017  -0.533133  0  2.319706  0
O  O67  1  0.98366914  0.62602008  0.75411181  1  0  -0.611174  0  2.059863  0  0  -0.551976  0  2.316335  0  0  -0.578864  0  2.309593  0  0  -0.327042  -0.533045  0  2.319789  0
O  O68  1  0.72407654  0.88642041  0.73605384  1  0  -0.574611  0  2.009283  0  0  -0.520137  0  2.260012  0  0  -0.543793  0  2.251985  0  0  -0.318014  -0.504096  0  2.2654  0
O  O69  1  0.27590613  0.38641749  0.76393970  1  0  -0.574587  0  2.009571  0  0  -0.519948  0  2.260238  0  0  -0.543606  0  2.252215  0  0  -0.31786  -0.50391  0  2.265621  0
O  O70  1  0.27592830  0.11358217  0.26394223  1  0  -0.574577  0  2.009264  0  0  -0.520118  0  2.259985  0  0  -0.543775  0  2.251959  0  0  -0.31797  -0.504079  0  2.265376  0
O  O71  1  0.72409301  0.61357288  0.23606526  1  0  -0.574751  0  2.009496  0  0  -0.520148  0  2.260088  0  0  -0.543805  0  2.25206  0  0  -0.317963  -0.504108  0  2.265476  0
