# generated using pymatgen
data_NaH8C4N4O3
_symmetry_space_group_name_H-M   'P 1'
_cell_length_a   8.58317926
_cell_length_b   9.21161433
_cell_length_c   11.36271035
_cell_angle_alpha   119.87126455
_cell_angle_beta   97.20384821
_cell_angle_gamma   91.81812070
_symmetry_Int_Tables_number   1
_chemical_formula_structural   NaH8C4N4O3
_chemical_formula_sum   'Na4 H32 C16 N16 O12'
_cell_volume   768.24257106
_cell_formula_units_Z   4
loop_
 _symmetry_equiv_pos_site_id
 _symmetry_equiv_pos_as_xyz
  1  'x, y, z'
loop_
 _atom_site_type_symbol
 _atom_site_label
 _atom_site_symmetry_multiplicity
 _atom_site_fract_x
 _atom_site_fract_y
 _atom_site_fract_z
 _atom_site_occupancy
 _atom_site_hle17_bader_spin_density
 _atom_site_hle17_ddec_charge
 _atom_site_hle17_ddec_spin_density
 _atom_site_hle17_ddec_sum_bond_order
 _atom_site_hle17_magmom
 _atom_site_hse06_10hf_bader_spin_density
 _atom_site_hse06_10hf_ddec_charge
 _atom_site_hse06_10hf_ddec_spin_density
 _atom_site_hse06_10hf_ddec_sum_bond_order
 _atom_site_hse06_10hf_magmom
 _atom_site_hse06_bader_spin_density
 _atom_site_hse06_ddec_charge
 _atom_site_hse06_ddec_spin_density
 _atom_site_hse06_ddec_sum_bond_order
 _atom_site_hse06_magmom
 _atom_site_pbe_bader_spin_density
 _atom_site_pbe_cm5_charge
 _atom_site_pbe_ddec_charge
 _atom_site_pbe_ddec_spin_density
 _atom_site_pbe_ddec_sum_bond_order
 _atom_site_pbe_magmom
Na  Na0  1  0.06226575  0.70686705  0.61270515  1  0  0.897788  0  0.377347  0  0  0.852092  0  0.533058  0  0  0.862193  0  0.51121  0  0  0.672477  0.844507  0  0.548897  0
Na  Na1  1  0.93773349  0.29312878  0.38729323  1  0  0.897808  0  0.377326  0  0  0.852099  0  0.53305  0  0  0.862203  0  0.511201  0  0  0.672464  0.844513  0  0.548888  0
Na  Na2  1  0.88863321  0.80672574  0.89911070  1  0  0.889121  0  0.404493  0  0  0.842561  0  0.565104  0  0  0.852807  0  0.543012  0  0  0.68942  0.834796  0  0.581312  0
Na  Na3  1  0.11136413  0.19327391  0.10088892  1  0  0.88912  0  0.404496  0  0  0.842562  0  0.565097  0  0  0.852812  0  0.543007  0  0  0.689411  0.834793  0  0.58131  0
H  H4  1  0.74012979  0.74337691  0.63496816  1  0  0.398615  0  0.913872  0  0  0.368311  0  0.978571  0  0  0.377427  0  0.965366  0  0  0.292042  0.361808  0  0.988015  0
H  H5  1  0.25986594  0.25661899  0.36502998  1  0  0.398629  0  0.913859  0  0  0.368329  0  0.97855  0  0  0.377444  0  0.965347  0  0  0.292043  0.361826  0  0.987995  0
H  H6  1  0.74730077  0.56124219  0.61712544  1  0  0.39426  0  0.925636  0  0  0.352916  0  1.008335  0  0  0.36394  0  0.992447  0  0  0.28499  0.345117  0  1.019558  0
H  H7  1  0.25270089  0.43875470  0.38287175  1  0  0.394166  0  0.925729  0  0  0.35283  0  1.008423  0  0  0.363855  0  0.992535  0  0  0.28495  0.345032  0  1.019646  0
H  H8  1  0.57578456  0.91644954  0.83722686  1  0  0.390738  0  0.927083  0  0  0.344875  0  1.01588  0  0  0.356506  0  0.998976  0  0  0.28745  0.336808  0  1.027524  0
H  H9  1  0.42422126  0.08354142  0.16277378  1  0  0.390739  0  0.927091  0  0  0.344859  0  1.015908  0  0  0.356492  0  0.999001  0  0  0.287469  0.336791  0  1.027554  0
H  H10  1  0.55540076  0.89588451  0.96391387  1  0  0.403335  0  0.866064  0  0  0.381713  0  0.930351  0  0  0.389932  0  0.920592  0  0  0.307328  0.375883  0  0.937252  0
H  H11  1  0.44459602  0.10412931  0.03609441  1  0  0.403279  0  0.866119  0  0  0.381669  0  0.930387  0  0  0.389887  0  0.92063  0  0  0.307372  0.375841  0  0.937282  0
H  H12  1  0.99888310  0.44392419  0.68778063  1  0  0.378572  0  0.952055  0  0  0.334444  0  1.038448  0  0  0.345448  0  1.022724  0  0  0.285333  0.326695  0  1.049505  0
H  H13  1  0.00111853  0.55607263  0.31221565  1  0  0.378571  0  0.95207  0  0  0.334438  0  1.038461  0  0  0.345443  0  1.022737  0  0  0.285339  0.326688  0  1.049519  0
H  H14  1  0.15614143  0.38807104  0.62515935  1  0  0.397087  0  0.892073  0  0  0.37231  0  0.961753  0  0  0.378996  0  0.952338  0  0  0.294692  0.367511  0  0.96855  0
H  H15  1  0.84386159  0.61192716  0.37483931  1  0  0.397051  0  0.892094  0  0  0.372264  0  0.961811  0  0  0.378952  0  0.952394  0  0  0.294672  0.367464  0  0.968609  0
H  H16  1  0.21199069  0.69540084  0.81667491  1  0  0.392613  0  0.90744  0  0  0.362926  0  0.984149  0  0  0.371166  0  0.972037  0  0  0.291513  0.357005  0  0.992885  0
H  H17  1  0.78800310  0.30459880  0.18332356  1  0  0.392626  0  0.907443  0  0  0.362921  0  0.984179  0  0  0.371165  0  0.97206  0  0  0.291508  0.357  0  0.992916  0
H  H18  1  0.23612733  0.88680250  0.92715968  1  0  0.426493  0  0.871386  0  0  0.401777  0  0.925099  0  0  0.410918  0  0.911546  0  0  0.297172  0.395263  0  0.934745  0
H  H19  1  0.76387218  0.11319577  0.07283873  1  0  0.426472  0  0.871412  0  0  0.401765  0  0.92511  0  0  0.410904  0  0.911561  0  0  0.297167  0.395248  0  0.934765  0
H  H20  1  0.07037707  0.02651322  0.59100636  1  0  0.406217  0  0.862532  0  0  0.38364  0  0.930436  0  0  0.391806  0  0.920786  0  0  0.304398  0.377759  0  0.937437  0
H  H21  1  0.92964254  0.97350135  0.40901805  1  0  0.40622  0  0.862511  0  0  0.383647  0  0.930415  0  0  0.391814  0  0.920761  0  0  0.304442  0.377765  0  0.937417  0
H  H22  1  0.92391531  0.08878284  0.66429050  1  0  0.378043  0  0.947831  0  0  0.334305  0  1.033431  0  0  0.345731  0  1.016837  0  0  0.28339  0.326416  0  1.044777  0
H  H23  1  0.07608636  0.91122317  0.33571354  1  0  0.378058  0  0.947806  0  0  0.334317  0  1.033412  0  0  0.345743  0  1.016819  0  0  0.28341  0.326428  0  1.044758  0
H  H24  1  0.01302183  0.98043451  0.20261220  1  0  0.407694  0  0.898838  0  0  0.384888  0  0.95107  0  0  0.394302  0  0.936916  0  0  0.295512  0.3781  0  0.961298  0
H  H25  1  0.98696947  0.01956392  0.79738564  1  0  0.407717  0  0.898826  0  0  0.38489  0  0.951095  0  0  0.394305  0  0.936938  0  0  0.2955  0.378099  0  0.961328  0
H  H26  1  0.12862385  0.87171166  0.10789365  1  0  0.399847  0  0.917461  0  0  0.363084  0  0.993556  0  0  0.373553  0  0.97822  0  0  0.291877  0.355548  0  1.004606  0
H  H27  1  0.87137270  0.12829067  0.89210865  1  0  0.399808  0  0.917526  0  0  0.363038  0  0.993629  0  0  0.373508  0  0.978292  0  0  0.291844  0.355502  0  1.00468  0
H  H28  1  0.45673183  0.38954131  0.23659339  1  0  0.095407  0  0.974112  0  0  0.101218  0  1.046588  0  0  0.104521  0  1.044453  0  0  0.108107  0.098785  0  1.048365  0
H  H29  1  0.54326615  0.61046440  0.76340585  1  0  0.095322  0  0.974166  0  0  0.101212  0  1.04656  0  0  0.104529  0  1.044412  0  0  0.108111  0.098782  0  1.048337  0
H  H30  1  0.57174482  0.28616018  0.02013973  1  0  0.088933  0  0.970786  0  0  0.099679  0  1.033478  0  0  0.102718  0  1.031355  0  0  0.104912  0.097643  0  1.034824  0
H  H31  1  0.42825019  0.71384047  0.97985656  1  0  0.088924  0  0.970798  0  0  0.099668  0  1.033504  0  0  0.102707  0  1.03137  0  0  0.104922  0.097633  0  1.034853  0
H  H32  1  0.78926868  0.78430533  0.16779670  1  0  0.095614  0  0.964958  0  0  0.1053  0  1.030158  0  0  0.108943  0  1.027563  0  0  0.109261  0.102744  0  1.031987  0
H  H33  1  0.21073701  0.21569446  0.83220715  1  0  0.095595  0  0.964918  0  0  0.105289  0  1.030129  0  0  0.108903  0  1.027565  0  0  0.109239  0.102724  0  1.031968  0
H  H34  1  0.66807070  0.89046084  0.38111415  1  0  0.104636  0  0.943979  0  0  0.113568  0  1.005447  0  0  0.116701  0  1.003776  0  0  0.107654  0.11136  0  1.006542  0
H  H35  1  0.33194150  0.10953488  0.61888696  1  0  0.10461  0  0.943892  0  0  0.113545  0  1.005388  0  0  0.116679  0  1.003718  0  0  0.107635  0.111335  0  1.006481  0
C  C36  1  0.49819712  0.70563630  0.45501822  1  0  0.269268  0  3.784036  0  0  0.244289  0  4.055604  0  0  0.25267  0  4.07327  0  0  0.211326  0.238801  0  4.043231  0
C  C37  1  0.50180235  0.29436189  0.54497928  1  0  0.269414  0  3.783916  0  0  0.244347  0  4.055562  0  0  0.252724  0  4.073234  0  0  0.211355  0.238858  0  4.043194  0
C  C38  1  0.56037467  0.64608376  0.32618415  1  0  0.014827  0  3.769347  0  0  0.033039  0  4.00138  0  0  0.032266  0  4.022715  0  0  -0.000405  0.033752  0  3.986613  0
C  C39  1  0.43962858  0.35391777  0.67381044  1  0  0.014753  0  3.769288  0  0  0.033029  0  4.001309  0  0  0.032255  0  4.022652  0  0  -0.000396  0.033745  0  3.98654  0
C  C40  1  0.53072221  0.47570027  0.22214388  1  0  -0.088841  0  3.738017  0  0  -0.113945  0  3.989384  0  0  -0.115319  0  4.00969  0  0  -0.082373  -0.112889  0  3.975494  0
C  C41  1  0.46927385  0.52429821  0.77785611  1  0  -0.088851  0  3.738043  0  0  -0.114035  0  3.989421  0  0  -0.115423  0  4.009725  0  0  -0.082417  -0.112976  0  3.975535  0
C  C42  1  0.59580813  0.41752616  0.10247753  1  0  -0.12557  0  3.776001  0  0  -0.137718  0  4.013392  0  0  -0.140928  0  4.03434  0  0  -0.088983  -0.135755  0  3.999404  0
C  C43  1  0.40419051  0.58247561  0.89751856  1  0  -0.12548  0  3.775968  0  0  -0.137655  0  4.01338  0  0  -0.14086  0  4.034332  0  0  -0.088981  -0.135695  0  3.999397  0
C  C44  1  0.69364381  0.52610121  0.08235220  1  0  0.023891  0  3.778879  0  0  0.040698  0  4.008096  0  0  0.040885  0  4.030828  0  0  0.001911  0.040674  0  3.992777  0
C  C45  1  0.30635314  0.47390482  0.91765060  1  0  0.023777  0  3.778857  0  0  0.04065  0  4.008  0  0  0.040837  0  4.030722  0  0  0.001912  0.040626  0  3.992682  0
C  C46  1  0.71723367  0.69779351  0.18342239  1  0  -0.101789  0  3.731662  0  0  -0.124103  0  3.981429  0  0  -0.127347  0  4.002281  0  0  -0.084994  -0.121967  0  3.96702  0
C  C47  1  0.28276983  0.30220853  0.81657859  1  0  -0.101752  0  3.731585  0  0  -0.12409  0  3.981338  0  0  -0.12731  0  4.002203  0  0  -0.084985  -0.121944  0  3.966928  0
C  C48  1  0.65162775  0.75685403  0.30348272  1  0  -0.101228  0  3.730335  0  0  -0.121468  0  3.979478  0  0  -0.122412  0  3.998097  0  0  -0.082882  -0.120645  0  3.966535  0
C  C49  1  0.34838197  0.24315057  0.69652143  1  0  -0.101184  0  3.730282  0  0  -0.12146  0  3.979432  0  0  -0.122407  0  3.998048  0  0  -0.082851  -0.120632  0  3.966481  0
C  C50  1  0.76669134  0.45722385  0.95833399  1  0  0.269381  0  3.793366  0  0  0.246477  0  4.069084  0  0  0.253987  0  4.088041  0  0  0.210936  0.241461  0  4.056222  0
C  C51  1  0.23330224  0.54277439  0.04166219  1  0  0.269458  0  3.793319  0  0  0.246517  0  4.069038  0  0  0.254031  0  4.087992  0  0  0.210927  0.241498  0  4.056178  0
N  N52  1  0.57110821  0.83294990  0.57846832  1  0  -0.323288  0  2.957801  0  0  -0.294841  0  3.223814  0  0  -0.304494  0  3.235799  0  0  -0.228087  -0.288105  0  3.215359  0
N  N53  1  0.42888782  0.16704851  0.42153076  1  0  -0.323396  0  2.957865  0  0  -0.294933  0  3.223908  0  0  -0.304588  0  3.235894  0  0  -0.228163  -0.288198  0  3.215452  0
N  N54  1  0.47669933  0.84498352  0.66831998  1  0  -0.121369  0  3.10288  0  0  -0.084991  0  3.386068  0  0  -0.089846  0  3.398537  0  0  -0.102146  -0.081653  0  3.37742  0
N  N55  1  0.52329586  0.15501750  0.33168086  1  0  -0.121252  0  3.102867  0  0  -0.084848  0  3.386018  0  0  -0.089702  0  3.398485  0  0  -0.102021  -0.081507  0  3.377363  0
N  N56  1  0.35209647  0.72992980  0.60254987  1  0  -0.180843  0  3.05668  0  0  -0.168527  0  3.354219  0  0  -0.169144  0  3.366154  0  0  -0.170415  -0.167843  0  3.34616  0
N  N57  1  0.64789971  0.27006986  0.39744967  1  0  -0.180993  0  3.056773  0  0  -0.168694  0  3.354331  0  0  -0.169307  0  3.366263  0  0  -0.1705  -0.168008  0  3.346267  0
N  N58  1  0.36338963  0.63952087  0.46848372  1  0  -0.312086  0  3.056025  0  0  -0.270757  0  3.328259  0  0  -0.282932  0  3.342734  0  0  -0.21543  -0.262405  0  3.318281  0
N  N59  1  0.63661017  0.36047991  0.53151563  1  0  -0.312001  0  3.055865  0  0  -0.270637  0  3.328107  0  0  -0.282814  0  3.342583  0  0  -0.215384  -0.262287  0  3.318129  0
N  N60  1  0.83566664  0.54654530  0.90998031  1  0  -0.36542  0  2.97429  0  0  -0.345826  0  3.264988  0  0  -0.355556  0  3.277893  0  0  -0.28253  -0.339264  0  3.256561  0
N  N61  1  0.16433174  0.45345403  0.09001575  1  0  -0.365458  0  2.974351  0  0  -0.345854  0  3.265051  0  0  -0.355584  0  3.277954  0  0  -0.282554  -0.339291  0  3.256621  0
N  N62  1  0.88579532  0.43081080  0.79575605  1  0  -0.097727  0  3.129742  0  0  -0.061725  0  3.410431  0  0  -0.064868  0  3.42407  0  0  -0.09402  -0.059352  0  3.401179  0
N  N63  1  0.11420327  0.56918993  0.20424231  1  0  -0.097779  0  3.1298  0  0  -0.061782  0  3.410489  0  0  -0.064928  0  3.424129  0  0  -0.09402  -0.059407  0  3.401231  0
N  N64  1  0.84868951  0.27856231  0.77490199  1  0  -0.111759  0  3.092536  0  0  -0.081205  0  3.367839  0  0  -0.085056  0  3.381241  0  0  -0.093985  -0.07845  0  3.358341  0
N  N65  1  0.15130879  0.72143590  0.22509542  1  0  -0.111718  0  3.09252  0  0  -0.081162  0  3.367821  0  0  -0.08501  0  3.381224  0  0  -0.093981  -0.078409  0  3.358322  0
N  N66  1  0.77411438  0.29047967  0.87545072  1  0  -0.313681  0  2.998067  0  0  -0.280235  0  3.266896  0  0  -0.291502  0  3.281096  0  0  -0.215775  -0.272238  0  3.257094  0
N  N67  1  0.22588293  0.70951990  0.12454799  1  0  -0.313658  0  2.997948  0  0  -0.280207  0  3.266789  0  0  -0.291478  0  3.280991  0  0  -0.215748  -0.272211  0  3.25699  0
O  O68  1  0.80736240  0.67589352  0.66126890  1  0  -0.91111  0  1.849958  0  0  -0.859104  0  2.043566  0  0  -0.876192  0  2.011464  0  0  -0.712571  -0.847041  0  2.06628  0
O  O69  1  0.19263670  0.32410201  0.33872584  1  0  -0.911001  0  1.850013  0  0  -0.859012  0  2.043601  0  0  -0.876102  0  2.0115  0  0  -0.712538  -0.846951  0  2.066316  0
O  O70  1  0.63299614  0.93692682  0.92862482  1  0  -0.841529  0  1.862394  0  0  -0.784203  0  2.045387  0  0  -0.80139  0  2.01592  0  0  -0.601808  -0.771818  0  2.065956  0
O  O71  1  0.36700832  0.06306284  0.07137437  1  0  -0.841508  0  1.862415  0  0  -0.784169  0  2.04542  0  0  -0.801355  0  2.01595  0  0  -0.601873  -0.771787  0  2.065989  0
O  O72  1  0.06418901  0.44541167  0.62005409  1  0  -0.897234  0  1.865877  0  0  -0.846429  0  2.064762  0  0  -0.862528  0  2.034922  0  0  -0.684085  -0.834873  0  2.085737  0
O  O73  1  0.93581412  0.55458772  0.37994412  1  0  -0.89722  0  1.865865  0  0  -0.846392  0  2.064792  0  0  -0.862497  0  2.034946  0  0  -0.684081  -0.834838  0  2.08577  0
O  O74  1  0.16080115  0.79871553  0.84853323  1  0  -0.880867  0  1.843133  0  0  -0.838507  0  2.025885  0  0  -0.853928  0  1.996491  0  0  -0.677435  -0.827421  0  2.046702  0
O  O75  1  0.83919631  0.20128530  0.15146595  1  0  -0.880877  0  1.843119  0  0  -0.838511  0  2.025862  0  0  -0.853935  0  1.996465  0  0  -0.677421  -0.827428  0  2.046678  0
O  O76  1  0.98473161  0.98735334  0.62081730  1  0  -0.8473  0  1.837206  0  0  -0.795692  0  2.016103  0  0  -0.812572  0  1.987292  0  0  -0.600262  -0.783623  0  2.03629  0
O  O77  1  0.01527087  0.01264999  0.37918406  1  0  -0.84732  0  1.837187  0  0  -0.795739  0  2.016104  0  0  -0.812618  0  1.987294  0  0  -0.60034  -0.783671  0  2.03629  0
O  O78  1  0.04794601  0.94960489  0.11481992  1  0  -0.900709  0  1.862878  0  0  -0.854779  0  2.045656  0  0  -0.871347  0  2.014114  0  0  -0.713494  -0.843033  0  2.068337  0
O  O79  1  0.95205031  0.05039603  0.88518009  1  0  -0.900697  0  1.8629  0  0  -0.854762  0  2.045715  0  0  -0.87133  0  2.014172  0  0  -0.713463  -0.843014  0  2.068396  0
