# generated using pymatgen
data_Zn2H10C17(NO)5
_symmetry_space_group_name_H-M   'P 1'
_cell_length_a   9.83421493
_cell_length_b   9.84516701
_cell_length_c   10.85133084
_cell_angle_alpha   110.13344869
_cell_angle_beta   116.48125313
_cell_angle_gamma   92.93672053
_symmetry_Int_Tables_number   1
_chemical_formula_structural   Zn2H10C17(NO)5
_chemical_formula_sum   'Zn4 H20 C34 N10 O10'
_cell_volume   856.32836699
_cell_formula_units_Z   2
loop_
 _symmetry_equiv_pos_site_id
 _symmetry_equiv_pos_as_xyz
  1  'x, y, z'
loop_
 _atom_site_type_symbol
 _atom_site_label
 _atom_site_symmetry_multiplicity
 _atom_site_fract_x
 _atom_site_fract_y
 _atom_site_fract_z
 _atom_site_occupancy
 _atom_site_hle17_bader_spin_density
 _atom_site_hle17_ddec_charge
 _atom_site_hle17_ddec_spin_density
 _atom_site_hle17_ddec_sum_bond_order
 _atom_site_hle17_magmom
 _atom_site_hse06_10hf_bader_spin_density
 _atom_site_hse06_10hf_ddec_charge
 _atom_site_hse06_10hf_ddec_spin_density
 _atom_site_hse06_10hf_ddec_sum_bond_order
 _atom_site_hse06_10hf_magmom
 _atom_site_hse06_bader_spin_density
 _atom_site_hse06_ddec_charge
 _atom_site_hse06_ddec_spin_density
 _atom_site_hse06_ddec_sum_bond_order
 _atom_site_hse06_magmom
 _atom_site_pbe_bader_spin_density
 _atom_site_pbe_cm5_charge
 _atom_site_pbe_ddec_charge
 _atom_site_pbe_ddec_spin_density
 _atom_site_pbe_ddec_sum_bond_order
 _atom_site_pbe_magmom
Zn  Zn0  1  0.54673832  0.80106498  0.57660070  1  0  1.104446  0  1.791566  0  0  0.9199  0  2.269531  0  0  0.968326  0  2.208646  0  0  0.689862  0.884606  0  2.312072  0
Zn  Zn1  1  0.45326186  0.19893467  0.42340115  1  0  1.104449  0  1.791523  0  0  0.919904  0  2.269488  0  0  0.968347  0  2.208608  0  0  0.689874  0.884619  0  2.312031  0
Zn  Zn2  1  0.45746861  0.68742088  0.21951148  1  0  1.008916  0  1.895448  0  0  0.817054  0  2.374531  0  0  0.860985  0  2.322623  0  0  0.696023  0.785716  0  2.411959  0
Zn  Zn3  1  0.54253186  0.31257988  0.78048991  1  0  1.008899  0  1.895466  0  0  0.817072  0  2.374535  0  0  0.860989  0  2.322629  0  0  0.696022  0.785731  0  2.411965  0
H  H4  1  0.18574677  0.49240659  0.88057038  1  0  0.076989  0  0.941017  0  0  0.0884  0  1.002472  0  0  0.09024  0  1.001031  0  0  0.117003  0.086978  0  1.003646  0
H  H5  1  0.81425424  0.50759194  0.11943053  1  0  0.077013  0  0.941008  0  0  0.088435  0  1.002452  0  0  0.090269  0  1.00102  0  0  0.11701  0.087009  0  1.003625  0
H  H6  1  0.96112478  0.27612089  0.76418954  1  0  0.129669  0  0.955743  0  0  0.136814  0  1.018898  0  0  0.140301  0  1.017642  0  0  0.111907  0.134174  0  1.020099  0
H  H7  1  0.03887965  0.72387762  0.23581458  1  0  0.129807  0  0.955566  0  0  0.136895  0  1.018774  0  0  0.140382  0  1.017521  0  0  0.111946  0.134256  0  1.019974  0
H  H8  1  0.11049790  0.30072230  0.21354219  1  0  0.13151  0  0.96301  0  0  0.133697  0  1.03258  0  0  0.138197  0  1.029985  0  0  0.111284  0.130282  0  1.035031  0
H  H9  1  0.88950341  0.69927734  0.78646011  1  0  0.131501  0  0.963052  0  0  0.133706  0  1.032606  0  0  0.138206  0  1.03001  0  0  0.111284  0.13029  0  1.035057  0
H  H10  1  0.33175542  0.50985488  0.31128189  1  0  0.088203  0  0.959576  0  0  0.095864  0  1.024379  0  0  0.098668  0  1.021635  0  0  0.11831  0.093681  0  1.026614  0
H  H11  1  0.66824475  0.49014477  0.68871904  1  0  0.088195  0  0.959586  0  0  0.095868  0  1.024376  0  0  0.098673  0  1.021631  0  0  0.11831  0.093684  0  1.026613  0
H  H12  1  0.50464175  0.72506044  0.78323459  1  0  0.11738  0  1.011276  0  0  0.124359  0  1.075246  0  0  0.127871  0  1.074081  0  0  0.107389  0.121965  0  1.075812  0
H  H13  1  0.49535531  0.27494035  0.21676544  1  0  0.117387  0  1.01125  0  0  0.124376  0  1.075208  0  0  0.127888  0  1.074045  0  0  0.107406  0.121981  0  1.075776  0
H  H14  1  0.39891027  0.61451532  0.90099593  1  0  0.077489  0  0.969536  0  0  0.085087  0  1.037136  0  0  0.087882  0  1.034037  0  0  0.113329  0.083048  0  1.039275  0
H  H15  1  0.60108822  0.38548658  0.09900594  1  0  0.077459  0  0.969577  0  0  0.085048  0  1.037191  0  0  0.087844  0  1.034092  0  0  0.113312  0.083012  0  1.039328  0
H  H16  1  0.68100886  0.96120640  0.32626189  1  0  0.10228  0  0.948288  0  0  0.111297  0  1.009064  0  0  0.114327  0  1.005961  0  0  0.121837  0.109015  0  1.011487  0
H  H17  1  0.31899189  0.03879547  0.67373811  1  0  0.102262  0  0.948255  0  0  0.111279  0  1.009039  0  0  0.114308  0  1.005936  0  0  0.121833  0.108996  0  1.011461  0
H  H18  1  0.80522753  0.08414590  0.22323959  1  0  0.121572  0  0.944406  0  0  0.128823  0  1.006674  0  0  0.132215  0  1.005534  0  0  0.113771  0.126507  0  1.007297  0
H  H19  1  0.19477233  0.91585262  0.77675810  1  0  0.121574  0  0.944399  0  0  0.128818  0  1.006675  0  0  0.13221  0  1.005534  0  0  0.113762  0.1265  0  1.007298  0
H  H20  1  0.97524173  0.73318818  0.46202628  1  0  0.114225  0  0.93424  0  0  0.124483  0  0.990765  0  0  0.129039  0  0.987503  0  0  0.111251  0.121215  0  0.993172  0
H  H21  1  0.02475532  0.26681260  0.53797190  1  0  0.114194  0  0.934315  0  0  0.124453  0  0.990836  0  0  0.129009  0  0.987572  0  0  0.111242  0.121186  0  0.993242  0
H  H22  1  0.37500764  0.87550178  0.37378196  1  0  0.398446  0  0.916425  0  0  0.363836  0  0.98923  0  0  0.374161  0  0.974179  0  0  0.276533  0.356271  0  1.000277  0
H  H23  1  0.62499311  0.12450010  0.62621989  1  0  0.398491  0  0.916355  0  0  0.363881  0  0.989159  0  0  0.374204  0  0.974108  0  0  0.276554  0.356316  0  1.000205  0
C  C24  1  0.71644891  0.60709111  0.44014034  1  0  0.711178  0  3.855777  0  0  0.6514  0  4.156197  0  0  0.687536  0  4.145317  0  0  0.232381  0.62698  0  4.162421  0
C  C25  1  0.28355206  0.39290739  0.55985502  1  0  0.711322  0  3.855658  0  0  0.651516  0  4.156118  0  0  0.687654  0  4.145232  0  0  0.232403  0.627094  0  4.162348  0
C  C26  1  0.85946234  0.54580642  0.47014416  1  0  -0.046721  0  3.709363  0  0  -0.035454  0  3.950843  0  0  -0.038376  0  3.969039  0  0  -0.003833  -0.03296  0  3.938029  0
C  C27  1  0.14053926  0.45419433  0.52985768  1  0  -0.046829  0  3.709399  0  0  -0.035509  0  3.950838  0  0  -0.038439  0  3.969033  0  0  -0.003829  -0.033006  0  3.93802  0
C  C28  1  0.98390605  0.62961833  0.47764051  1  0  -0.090845  0  3.713118  0  0  -0.121901  0  3.962339  0  0  -0.122401  0  3.980074  0  0  -0.079166  -0.122492  0  3.951161  0
C  C29  1  0.01609470  0.37038354  0.52236042  1  0  -0.090731  0  3.713233  0  0  -0.121794  0  3.962427  0  0  -0.122285  0  3.980158  0  0  -0.079095  -0.12239  0  3.951248  0
C  C30  1  0.87543721  0.41375559  0.49256415  1  0  -0.061671  0  3.725802  0  0  -0.049656  0  3.963947  0  0  -0.054631  0  3.985139  0  0  -0.011616  -0.045871  0  3.949738  0
C  C31  1  0.12456523  0.58624404  0.50743768  1  0  -0.061668  0  3.725797  0  0  -0.049664  0  3.96394  0  0  -0.054629  0  3.985129  0  0  -0.011578  -0.045885  0  3.949734  0
C  C32  1  0.74703796  0.31253222  0.48172831  1  0  0.622959  0  3.935789  0  0  0.571493  0  4.233712  0  0  0.604227  0  4.228067  0  0  0.203105  0.549029  0  4.236835  0
C  C33  1  0.25296107  0.68746744  0.51827216  1  0  0.622935  0  3.935894  0  0  0.571462  0  4.233812  0  0  0.604195  0  4.228165  0  0  0.203067  0.549  0  4.236934  0
C  C34  1  0.16582155  0.44634947  0.95084361  1  0  0.127902  0  3.71227  0  0  0.095825  0  3.966244  0  0  0.103078  0  3.985786  0  0  0.043442  0.091266  0  3.95343  0
C  C35  1  0.83417975  0.55365017  0.04915777  1  0  0.127923  0  3.712297  0  0  0.095857  0  3.966253  0  0  0.103117  0  3.985794  0  0  0.043483  0.091309  0  3.953432  0
C  C36  1  0.03992650  0.32588553  0.88616956  1  0  -0.1431  0  3.660141  0  0  -0.162746  0  3.906044  0  0  -0.170787  0  3.927688  0  0  -0.077762  -0.157377  0  3.891883  0
C  C37  1  0.96007594  0.67411411  0.11383227  1  0  -0.143337  0  3.660157  0  0  -0.162924  0  3.90606  0  0  -0.170969  0  3.927697  0  0  -0.077855  -0.157556  0  3.8919  0
C  C38  1  0.01501704  0.27195994  0.98064733  1  0  0.078579  0  3.749312  0  0  0.091869  0  3.978688  0  0  0.097673  0  3.998148  0  0  0.023562  0.088075  0  3.966423  0
C  C39  1  0.98498366  0.72803746  0.01935034  1  0  0.078659  0  3.749258  0  0  0.091954  0  3.978644  0  0  0.097775  0  3.998077  0  0  0.023637  0.088153  0  3.966372  0
C  C40  1  0.12248605  0.34042183  0.13612068  1  0  -0.140257  0  3.676932  0  0  -0.161852  0  3.928177  0  0  -0.169854  0  3.948398  0  0  -0.080198  -0.15777  0  3.916604  0
C  C41  1  0.87751352  0.65957558  0.86387746  1  0  -0.140256  0  3.677055  0  0  -0.161878  0  3.928315  0  0  -0.169885  0  3.948529  0  0  -0.080221  -0.157797  0  3.916743  0
C  C42  1  0.24648257  0.45748467  0.19102647  1  0  0.125173  0  3.696286  0  0  0.095517  0  3.94602  0  0  0.102517  0  3.964712  0  0  0.040643  0.090528  0  3.934514  0
C  C43  1  0.75351675  0.54251609  0.80897261  1  0  0.125154  0  3.696377  0  0  0.095513  0  3.946116  0  0  0.10251  0  3.96481  0  0  0.040627  0.090523  0  3.934611  0
C  C44  1  0.88547276  0.14924402  0.92770602  1  0  0.263685  0  3.81425  0  0  0.245919  0  4.086026  0  0  0.252523  0  4.103675  0  0  0.200696  0.241336  0  4.074952  0
C  C45  1  0.11452740  0.85075562  0.07229305  1  0  0.263714  0  3.814227  0  0  0.245914  0  4.086047  0  0  0.252513  0  4.103696  0  0  0.200709  0.241357  0  4.074936  0
C  C46  1  0.73587713  0.99217701  0.93371565  1  0  0.283197  0  3.79283  0  0  0.259062  0  4.062196  0  0  0.268291  0  4.080983  0  0  0.204749  0.253192  0  4.049475  0
C  C47  1  0.26412303  0.00782264  0.06628435  1  0  0.283275  0  3.792707  0  0  0.259122  0  4.062081  0  0  0.268352  0  4.080867  0  0  0.20478  0.253252  0  4.049362  0
C  C48  1  0.66529728  0.91676999  0.99343212  1  0  0.06981  0  3.755991  0  0  0.082833  0  3.989817  0  0  0.08772  0  4.00997  0  0  0.020968  0.079577  0  3.976225  0
C  C49  1  0.33470287  0.08322965  0.00656695  1  0  0.069829  0  3.755928  0  0  0.082885  0  3.989716  0  0  0.08777  0  4.009869  0  0  0.020994  0.079627  0  3.976121  0
C  C50  1  0.54889983  0.78282966  0.90396173  1  0  -0.150609  0  3.695461  0  0  -0.172571  0  3.945628  0  0  -0.1808  0  3.967754  0  0  -0.087526  -0.166911  0  3.93026  0
C  C51  1  0.45109836  0.21717112  0.09603783  1  0  -0.150617  0  3.695378  0  0  -0.172605  0  3.94556  0  0  -0.18083  0  3.967685  0  0  -0.087531  -0.166944  0  3.930193  0
C  C52  1  0.48728400  0.71995728  0.97001065  1  0  0.130426  0  3.706463  0  0  0.09873  0  3.958924  0  0  0.106121  0  3.97661  0  0  0.040394  0.093712  0  3.94684  0
C  C53  1  0.51271448  0.28004461  0.02998937  1  0  0.130485  0  3.706385  0  0  0.098784  0  3.95886  0  0  0.106174  0  3.976544  0  0  0.0404  0.093764  0  3.946778  0
C  C54  1  0.64688780  0.91164909  0.20682590  1  0  0.124712  0  3.682636  0  0  0.093203  0  3.929104  0  0  0.100007  0  3.947495  0  0  0.044918  0.088325  0  3.917136  0
C  C55  1  0.35311039  0.08835169  0.79317366  1  0  0.124793  0  3.682576  0  0  0.093279  0  3.929043  0  0  0.100083  0  3.947435  0  0  0.044942  0.0884  0  3.917074  0
C  C56  1  0.71458758  0.98057578  0.14887291  1  0  -0.131667  0  3.672563  0  0  -0.150211  0  3.917473  0  0  -0.157532  0  3.938279  0  0  -0.073984  -0.145137  0  3.903436  0
C  C57  1  0.28541288  0.01942498  0.85112663  1  0  -0.131715  0  3.672602  0  0  -0.150258  0  3.917501  0  0  -0.157578  0  3.938308  0  0  -0.074  -0.145182  0  3.903461  0
N  N58  1  0.26823862  0.51260821  0.10100082  1  0  -0.368611  0  3.336672  0  0  -0.28066  0  3.621204  0  0  -0.30063  0  3.635946  0  0  -0.342703  -0.267746  0  3.612726  0
N  N59  1  0.73176155  0.48739143  0.89899918  1  0  -0.368607  0  3.336576  0  0  -0.280702  0  3.62116  0  0  -0.300668  0  3.635897  0  0  -0.342728  -0.26779  0  3.612682  0
N  N60  1  0.78368545  0.06015863  0.78123080  1  0  -0.269324  0  2.938379  0  0  -0.242731  0  3.201899  0  0  -0.250114  0  3.216959  0  0  -0.220018  -0.23633  0  3.190745  0
N  N61  1  0.21631358  0.93984102  0.21876967  1  0  -0.269365  0  2.938362  0  0  -0.242759  0  3.201876  0  0  -0.250143  0  3.216941  0  0  -0.220047  -0.236366  0  3.190717  0
N  N62  1  0.68847177  0.95885391  0.78484541  1  0  -0.338208  0  3.202557  0  0  -0.265757  0  3.506006  0  0  -0.285535  0  3.520941  0  0  -0.244347  -0.251362  0  3.494369  0
N  N63  1  0.31152953  0.04114572  0.21515504  1  0  -0.338214  0  3.202508  0  0  -0.265755  0  3.505947  0  0  -0.28554  0  3.520891  0  0  -0.244354  -0.251367  0  3.494321  0
N  N64  1  0.85873791  0.11118082  0.02520445  1  0  -0.446129  0  2.93483  0  0  -0.418538  0  3.198873  0  0  -0.43218  0  3.213055  0  0  -0.334849  -0.409208  0  3.189744  0
N  N65  1  0.14126141  0.88881995  0.97479556  1  0  -0.446171  0  2.934811  0  0  -0.418563  0  3.198869  0  0  -0.432205  0  3.213053  0  0  -0.334874  -0.409241  0  3.189731  0
N  N66  1  0.53412491  0.78241632  0.11866321  1  0  -0.349717  0  3.33834  0  0  -0.261888  0  3.623341  0  0  -0.281017  0  3.637092  0  0  -0.344515  -0.24882  0  3.614325  0
N  N67  1  0.46587328  0.21758446  0.88133635  1  0  -0.3498  0  3.338302  0  0  -0.261967  0  3.623308  0  0  -0.281094  0  3.637053  0  0  -0.34454  -0.248899  0  3.614292  0
O  O68  1  0.70152955  0.67969564  0.55276443  1  0  -0.617344  0  2.075577  0  0  -0.542513  0  2.341385  0  0  -0.570355  0  2.325825  0  0  -0.299338  -0.522621  0  2.351697  0
O  O69  1  0.29846607  0.32030403  0.44723191  1  0  -0.617368  0  2.075578  0  0  -0.542553  0  2.341447  0  0  -0.570402  0  2.325887  0  0  -0.299331  -0.522665  0  2.351766  0
O  O70  1  0.63080008  0.58993455  0.30371985  1  0  -0.645515  0  2.070016  0  0  -0.572365  0  2.346777  0  0  -0.600324  0  2.33129  0  0  -0.317951  -0.551828  0  2.356391  0
O  O71  1  0.36920286  0.41006281  0.69627410  1  0  -0.645493  0  2.069888  0  0  -0.572384  0  2.346722  0  0  -0.60034  0  2.331229  0  0  -0.317961  -0.551847  0  2.356342  0
O  O72  1  0.77189360  0.19993101  0.50871533  1  0  -0.600193  0  1.935485  0  0  -0.554582  0  2.160972  0  0  -0.575222  0  2.150156  0  0  -0.3119  -0.539307  0  2.167483  0
O  O73  1  0.22810686  0.80006976  0.49128606  1  0  -0.600186  0  1.93549  0  0  -0.554572  0  2.160983  0  0  -0.575209  0  2.150168  0  0  -0.311899  -0.539294  0  2.167491  0
O  O74  1  0.61353044  0.34968714  0.44187616  1  0  -0.656304  0  2.090796  0  0  -0.575863  0  2.352879  0  0  -0.60485  0  2.338593  0  0  -0.323225  -0.555453  0  2.362522  0
O  O75  1  0.38646890  0.65031364  0.55812477  1  0  -0.656311  0  2.090845  0  0  -0.575857  0  2.352933  0  0  -0.604839  0  2.338641  0  0  -0.323219  -0.55545  0  2.362579  0
O  O76  1  0.47112493  0.83955441  0.39645204  1  0  -0.952562  0  1.918784  0  0  -0.846203  0  2.222227  0  0  -0.877336  0  2.181966  0  0  -0.590466  -0.824311  0  2.25075  0
O  O77  1  0.52887495  0.16044413  0.60354934  1  0  -0.952625  0  1.918777  0  0  -0.846248  0  2.222196  0  0  -0.877377  0  2.18194  0  0  -0.590495  -0.824355  0  2.250723  0
