# generated using pymatgen
data_MnH14C14N2O5
_symmetry_space_group_name_H-M   'P 1'
_cell_length_a   8.47063897
_cell_length_b   11.65974244
_cell_length_c   17.87860992
_cell_angle_alpha   90.00170367
_cell_angle_beta   89.99910114
_cell_angle_gamma   107.64652084
_symmetry_Int_Tables_number   1
_chemical_formula_structural   MnH14C14N2O5
_chemical_formula_sum   'Mn4 H56 C56 N8 O20'
_cell_volume   1682.69980217
_cell_formula_units_Z   4
loop_
 _symmetry_equiv_pos_site_id
 _symmetry_equiv_pos_as_xyz
  1  'x, y, z'
loop_
 _atom_site_type_symbol
 _atom_site_label
 _atom_site_symmetry_multiplicity
 _atom_site_fract_x
 _atom_site_fract_y
 _atom_site_fract_z
 _atom_site_occupancy
 _atom_site_pbe_bader_charge
 _atom_site_pbe_bader_spin_density
 _atom_site_pbe_cm5_charge
 _atom_site_pbe_ddec_charge
 _atom_site_pbe_ddec_spin_density
 _atom_site_pbe_ddec_sum_bond_order
 _atom_site_pbe_magmom
Mn  Mn0  1  0.78718732  0.37333636  0.17212597  1  1.5071  4.537513  0.597218  0.922831  4.666899  2.370652  4.465
Mn  Mn1  1  0.71282364  0.62666342  0.67212953  1  1.506972  4.537519  0.597215  0.92277  4.666845  2.370698  4.465
Mn  Mn2  1  0.21280810  0.62664936  0.82788003  1  1.507029  4.537521  0.597171  0.922737  4.666908  2.370634  4.465
Mn  Mn3  1  0.28717431  0.37333390  0.32785914  1  1.506887  4.537545  0.597153  0.92272  4.666792  2.370721  4.465
H  H4  1  0.43533860  0.34055247  0.16596595  1  0.658762  0.002566  0.288829  0.384522  0.001216  0.960679  0.003
H  H5  1  0.51993101  0.29857674  0.09116915  1  0.642783  0.001075  0.280738  0.366439  0.001151  0.990619  0.002
H  H6  1  0.98275502  0.21080992  0.24589062  1  0.154286  0.001174  0.122419  0.096872  0.000612  1.051616  0.001
H  H7  1  0.99692302  0.00382045  0.24784174  1  0.076557  0.000566  0.102804  0.104617  0.000213  1.044986  0.0
H  H8  1  0.60063135  0.91352745  0.08396561  1  0.08434  0.000693  0.111667  0.124797  0.000389  1.007516  0.0
H  H9  1  0.60894236  0.12793528  0.08717358  1  0.120191  0.001293  0.121051  0.093605  0.000601  1.005488  0.0
H  H10  1  0.97456465  0.82894437  0.25966390  1  0.078548  0.000702  0.101893  0.103688  0.000406  1.044344  0.0
H  H11  1  0.96950272  0.61553662  0.25552004  1  0.093833  0.00131  0.119165  0.088456  0.000458  1.010116  0.001
H  H12  1  0.62782021  0.53871857  0.08336957  1  0.070318  0.001438  0.12102  0.083819  0.000693  1.01077  0.001
H  H13  1  0.61934690  0.74567298  0.07615012  1  0.172744  0.000531  0.105549  0.126019  0.000311  1.068727  0.0
H  H14  1  0.69794841  0.34881913  0.87807021  1  0.015712  0.001002  0.086918  0.091393  0.00052  1.01568  0.0
H  H15  1  0.90619528  0.40105437  0.91213189  1  0.050886  0.000319  0.10064  0.118029  -0.000229  1.002351  0.0
H  H16  1  0.87748972  0.59256686  0.94979001  1  0.125043  0.001034  0.106117  0.133089  0.000233  0.985165  0.001
H  H17  1  0.66131068  0.54779242  0.92792121  1  0.016612  0.000623  0.092397  0.100663  6.8e-05  1.012756  0.0
H  H18  1  0.06463185  0.65943019  0.66598072  1  0.658919  0.002565  0.288998  0.384621  0.001216  0.960558  0.003
H  H19  1  0.98006772  0.70141798  0.59118451  1  0.642752  0.001075  0.280679  0.366315  0.001151  0.990759  0.002
H  H20  1  0.51724180  0.78921165  0.74590712  1  0.15424  0.001174  0.122512  0.097051  0.00061  1.051597  0.001
H  H21  1  0.50307830  0.99620058  0.74785898  1  0.076363  0.000566  0.102756  0.10456  0.000213  1.044922  0.0
H  H22  1  0.89935774  0.08647348  0.58397641  1  0.084567  0.000693  0.111658  0.124843  0.000388  1.007646  0.0
H  H23  1  0.89104818  0.87206675  0.58718896  1  0.120199  0.001292  0.121082  0.093638  0.0006  1.005593  0.0
H  H24  1  0.52541644  0.17106635  0.75967233  1  0.078555  0.000702  0.101814  0.103635  0.000407  1.044303  0.0
H  H25  1  0.53047747  0.38447828  0.75553087  1  0.093847  0.001311  0.11915  0.088395  0.000458  1.009991  0.001
H  H26  1  0.87217033  0.46128683  0.58338052  1  0.070527  0.001438  0.121023  0.083759  0.000694  1.010841  0.001
H  H27  1  0.88064347  0.25433121  0.57615534  1  0.172984  0.000531  0.105549  0.126042  0.000311  1.068761  0.0
H  H28  1  0.80210283  0.65117765  0.37807526  1  0.015988  0.001002  0.086882  0.091347  0.00052  1.015614  0.0
H  H29  1  0.59384975  0.59897793  0.41213129  1  0.051086  0.000318  0.100705  0.118074  -0.000229  1.002315  0.0
H  H30  1  0.62247011  0.40743943  0.44977768  1  0.125018  0.001034  0.106118  0.133162  0.000233  0.985119  0.001
H  H31  1  0.83865459  0.45217708  0.42791769  1  0.016434  0.000623  0.092461  0.100616  6.9e-05  1.012699  0.0
H  H32  1  0.56463656  0.65943653  0.83403279  1  0.658871  0.002566  0.288857  0.384447  0.001216  0.960822  0.003
H  H33  1  0.48005857  0.70143510  0.90882623  1  0.642546  0.001076  0.280681  0.366315  0.001151  0.990787  0.002
H  H34  1  0.01726693  0.78919577  0.75410085  1  0.154213  0.001174  0.122416  0.096817  0.000611  1.051624  0.001
H  H35  1  0.00311964  0.99619080  0.75214022  1  0.07673  0.000566  0.10277  0.10461  0.000213  1.045103  0.0
H  H36  1  0.39934944  0.08646804  0.91604431  1  0.084147  0.000693  0.111609  0.124687  0.000388  1.007715  0.0
H  H37  1  0.39102730  0.87205871  0.91284250  1  0.119778  0.001292  0.121067  0.093658  0.0006  1.005647  0.0
H  H38  1  0.02542658  0.17103935  0.74034155  1  0.078418  0.000702  0.101888  0.103605  0.000406  1.044543  0.0
H  H39  1  0.03046958  0.38444341  0.74447982  1  0.09424  0.001311  0.119175  0.088426  0.000458  1.010095  0.001
H  H40  1  0.37215864  0.46128563  0.91662637  1  0.070514  0.001437  0.121059  0.083856  0.000694  1.010793  0.001
H  H41  1  0.38066472  0.25433743  0.92384638  1  0.173017  0.000531  0.105559  0.126067  0.000311  1.068723  0.0
H  H42  1  0.30214496  0.65115082  0.12193916  1  0.016866  0.001002  0.086961  0.091532  0.00052  1.015537  0.0
H  H43  1  0.09387648  0.59896642  0.08789650  1  0.050775  0.000319  0.100703  0.118134  -0.000229  1.002224  0.0
H  H44  1  0.12247294  0.40743115  0.05021488  1  0.124861  0.001034  0.106128  0.133118  0.000233  0.985338  0.001
H  H45  1  0.33865506  0.45214492  0.07207696  1  0.017046  0.000623  0.092448  0.100554  6.9e-05  1.012773  0.0
H  H46  1  0.93535136  0.34056543  0.33402977  1  0.658806  0.002565  0.288907  0.38464  0.001215  0.96053  0.003
H  H47  1  0.01993477  0.29857870  0.40882374  1  0.642723  0.001075  0.280668  0.366308  0.001151  0.990815  0.002
H  H48  1  0.48276706  0.21080125  0.25409218  1  0.154237  0.001175  0.122493  0.097055  0.000612  1.051744  0.001
H  H49  1  0.49694261  0.00381299  0.25214087  1  0.076265  0.000566  0.102724  0.104491  0.000213  1.044918  0.0
H  H50  1  0.10064710  0.91352686  0.41601618  1  0.084762  0.000693  0.111682  0.124908  0.000388  1.007668  0.0
H  H51  1  0.10896447  0.12793578  0.41281425  1  0.120223  0.001292  0.121064  0.09366  0.0006  1.005607  0.0
H  H52  1  0.47456367  0.82893438  0.24031074  1  0.078344  0.000702  0.101784  0.103629  0.000406  1.044357  0.0
H  H53  1  0.46950505  0.61552259  0.24445332  1  0.0943  0.00131  0.119153  0.088419  0.000458  1.010073  0.001
H  H54  1  0.12783227  0.53872133  0.41661262  1  0.070746  0.001438  0.121048  0.083857  0.000694  1.010608  0.001
H  H55  1  0.11936636  0.74567734  0.42383613  1  0.173097  0.000531  0.105591  0.126161  0.000311  1.068721  0.0
H  H56  1  0.19788549  0.34883765  0.62192795  1  0.016098  0.001002  0.086905  0.091379  0.00052  1.015606  0.0
H  H57  1  0.40614924  0.40103002  0.58788031  1  0.051123  0.000318  0.100694  0.118072  -0.00023  1.002359  0.0
H  H58  1  0.37755058  0.59256972  0.55022161  1  0.12485  0.001033  0.106053  0.133027  0.000233  0.985345  0.001
H  H59  1  0.16135720  0.54784128  0.57207098  1  0.016779  0.000623  0.092453  0.10055  6.9e-05  1.01288  0.0
C  C60  1  0.90082380  0.14276905  0.21022585  1  0.50826  0.006717  0.055231  0.105226  0.004915  3.921908  0.004
C  C61  1  0.90650231  0.02492089  0.21145969  1  -0.042309  0.001764  -0.082779  -0.167901  0.001007  3.931719  0.001
C  C62  1  0.79803020  0.93696081  0.16659515  1  -0.004202  0.00557  0.00857  0.095723  0.004277  3.988423  0.003
C  C63  1  0.68858770  0.97570954  0.12088711  1  -0.090112  0.001278  -0.084219  -0.184998  0.000743  3.937165  0.001
C  C64  1  0.69184745  0.09575963  0.12243857  1  0.490709  0.006566  0.052643  0.09801  0.004712  3.945597  0.004
C  C65  1  0.79845991  0.81005992  0.16776012  1  -0.075193  0.006767  0.009168  0.099851  0.005172  3.973261  0.004
C  C66  1  0.89594941  0.76904712  0.21871915  1  -0.063165  0.000893  -0.084042  -0.174847  0.000321  3.937345  0.0
C  C67  1  0.89299150  0.64924028  0.21750818  1  0.507429  0.007574  0.053534  0.097596  0.005698  3.951853  0.005
C  C68  1  0.70366775  0.60637798  0.12134438  1  0.474012  0.007584  0.05888  0.110374  0.005699  3.935159  0.005
C  C69  1  0.70033468  0.72465616  0.11798844  1  0.009483  0.001041  -0.083027  -0.177715  0.000466  3.911225  0.0
C  C70  1  0.71848594  0.35722704  0.99774954  1  1.570847  0.00788  0.210282  0.628939  0.007586  4.1482  0.007
C  C71  1  0.77963457  0.40486357  0.92049657  1  0.002491  0.00385  -0.167285  -0.270701  0.002799  3.91974  0.002
C  C72  1  0.78133072  0.53688167  0.91235738  1  -0.066734  0.003086  -0.162576  -0.288422  0.002033  3.908431  0.001
C  C73  1  0.82475655  0.58060428  0.83275079  1  1.558154  0.025805  0.227599  0.645832  0.025172  4.099231  0.022
C  C74  1  0.59916556  0.85724440  0.71024251  1  0.508912  0.006713  0.054903  0.104892  0.004912  3.921894  0.004
C  C75  1  0.59348736  0.97508999  0.71147810  1  -0.044003  0.001769  -0.082814  -0.167815  0.001011  3.93141  0.001
C  C76  1  0.70195923  0.06305253  0.66661028  1  -0.002916  0.005567  0.008676  0.09583  0.004276  3.988326  0.003
C  C77  1  0.81140011  0.02429820  0.62089734  1  -0.089975  0.001281  -0.084266  -0.185103  0.000746  3.937228  0.001
C  C78  1  0.80815187  0.90424353  0.62245294  1  0.490965  0.006563  0.052651  0.098041  0.00471  3.945144  0.004
C  C79  1  0.70152904  0.18994462  0.66776652  1  -0.07488  0.006778  0.009186  0.099641  0.00518  3.973591  0.004
C  C80  1  0.60403470  0.23096552  0.71872761  1  -0.063058  0.00089  -0.083882  -0.174688  0.000318  3.937162  0.0
C  C81  1  0.60699148  0.35076873  0.71751557  1  0.507563  0.007581  0.05356  0.097722  0.005705  3.951622  0.005
C  C82  1  0.79632459  0.39362916  0.62135234  1  0.474024  0.007593  0.058802  0.110373  0.005707  3.935062  0.005
C  C83  1  0.79964934  0.27534684  0.61799466  1  0.008758  0.00104  -0.083006  -0.177617  0.000464  3.911332  0.0
C  C84  1  0.78154030  0.64276560  0.49775850  1  1.570824  0.007881  0.210338  0.62903  0.007587  4.14845  0.007
C  C85  1  0.72039350  0.59514611  0.42049946  1  0.002095  0.003851  -0.16726  -0.270565  0.0028  3.919397  0.002
C  C86  1  0.71864973  0.46311533  0.41235326  1  -0.066224  0.003086  -0.162685  -0.288385  0.002033  3.90804  0.001
C  C87  1  0.67522767  0.41940448  0.33274110  1  1.558009  0.025818  0.227556  0.645614  0.025185  4.099848  0.022
C  C88  1  0.09919579  0.85723298  0.78977177  1  0.508274  0.006714  0.055219  0.105285  0.004913  3.922131  0.004
C  C89  1  0.09351699  0.97508025  0.78853066  1  -0.042332  0.00177  -0.082782  -0.16788  0.001012  3.931655  0.001
C  C90  1  0.20197757  0.06304498  0.83340471  1  -0.004652  0.005571  0.008635  0.095686  0.004278  3.988343  0.003
C  C91  1  0.31140692  0.02428847  0.87912226  1  -0.08958  0.001281  -0.0842  -0.184757  0.000745  3.937208  0.001
C  C92  1  0.30814626  0.90423921  0.87757359  1  0.491056  0.006563  0.052573  0.097773  0.00471  3.945796  0.004
C  C93  1  0.20153718  0.18993470  0.83223918  1  -0.075188  0.006778  0.009193  0.099848  0.005181  3.973382  0.004
C  C94  1  0.10403563  0.23094683  0.78127959  1  -0.063129  0.000892  -0.084064  -0.174811  0.000319  3.937513  0.0
C  C95  1  0.10698367  0.35074873  0.78249280  1  0.507296  0.007581  0.053545  0.097675  0.005703  3.951846  0.005
C  C96  1  0.29631780  0.39362130  0.87865604  1  0.473683  0.007593  0.058678  0.110112  0.005707  3.934937  0.005
C  C97  1  0.29966288  0.27534730  0.88200917  1  0.009295  0.00104  -0.082996  -0.177665  0.000465  3.911294  0.0
C  C98  1  0.28154122  0.64277277  0.00225479  1  1.570861  0.007878  0.210109  0.628792  0.007584  4.148616  0.007
C  C99  1  0.22041801  0.59513059  0.07951391  1  0.00134  0.003851  -0.167414  -0.270971  0.0028  3.919595  0.002
C  C100  1  0.21865523  0.46309294  0.08764359  1  -0.066942  0.003085  -0.162634  -0.288238  0.002033  3.908334  0.001
C  C101  1  0.17522740  0.41938256  0.16725411  1  1.558353  0.025816  0.227599  0.645766  0.025186  4.099522  0.022
C  C102  1  0.40084193  0.14276050  0.28975790  1  0.508892  0.006719  0.05494  0.104857  0.004916  3.922087  0.004
C  C103  1  0.40652098  0.02491759  0.28852231  1  -0.043095  0.001767  -0.082653  -0.167644  0.001008  3.931511  0.001
C  C104  1  0.29804670  0.93695493  0.33338398  1  -0.003734  0.005573  0.008624  0.095993  0.00428  3.988334  0.003
C  C105  1  0.18860255  0.97570643  0.37909916  1  -0.0901  0.001279  -0.084276  -0.185226  0.000744  3.937255  0.001
C  C106  1  0.19186192  0.09576260  0.37754692  1  0.491092  0.006567  0.052586  0.097912  0.004715  3.945238  0.004
C  C107  1  0.29846972  0.81005891  0.33222215  1  -0.075262  0.006774  0.009193  0.09953  0.005177  3.9737  0.004
C  C108  1  0.39595470  0.76903837  0.28125994  1  -0.062523  0.000892  -0.083836  -0.17469  0.00032  3.937202  0.0
C  C109  1  0.39299649  0.64923068  0.28246918  1  0.507069  0.007581  0.053454  0.097587  0.005703  3.951911  0.005
C  C110  1  0.20367865  0.60637727  0.37863801  1  0.474097  0.007589  0.058641  0.110104  0.005705  3.935013  0.005
C  C111  1  0.20035304  0.72465689  0.38199457  1  0.008702  0.001042  -0.083048  -0.177686  0.000466  3.911598  0.0
C  C112  1  0.21846391  0.35723647  0.50223745  1  1.570889  0.007867  0.210281  0.629033  0.007573  4.148795  0.007
C  C113  1  0.27960428  0.40486178  0.57950376  1  0.001974  0.003851  -0.167338  -0.270762  0.002799  3.919308  0.002
C  C114  1  0.28135638  0.53690006  0.58764548  1  -0.06667  0.003084  -0.162604  -0.288138  0.002031  3.908113  0.001
C  C115  1  0.32476048  0.58060288  0.66726043  1  1.558007  0.025805  0.227704  0.64582  0.025172  4.099349  0.022
N  N116  1  0.79501966  0.17882752  0.16676851  1  -1.244547  0.048626  -0.308891  -0.239405  0.033541  3.455432  0.017
N  N117  1  0.79794678  0.56814959  0.16981779  1  -1.236052  0.050755  -0.31295  -0.238986  0.034721  3.506865  0.018
N  N118  1  0.70496689  0.82117685  0.66678594  1  -1.244548  0.048609  -0.308665  -0.239309  0.033537  3.454545  0.017
N  N119  1  0.70204294  0.43186125  0.66982606  1  -1.236911  0.050772  -0.312971  -0.239077  0.034724  3.506888  0.018
N  N120  1  0.20496899  0.82116664  0.83323806  1  -1.244551  0.048627  -0.308845  -0.239381  0.033538  3.455491  0.017
N  N121  1  0.20202259  0.43184350  0.83017927  1  -1.236172  0.050765  -0.312873  -0.238875  0.034724  3.506541  0.018
N  N122  1  0.29504444  0.17883267  0.33321448  1  -1.244892  0.048621  -0.308655  -0.239265  0.033537  3.454773  0.017
N  N123  1  0.29795462  0.56814221  0.33016261  1  -1.237069  0.050763  -0.312806  -0.238795  0.03472  3.506844  0.018
O  O124  1  0.82234013  0.38531749  0.05136378  1  -1.214168  0.060257  -0.31689  -0.568166  0.043392  2.284135  0.031
O  O125  1  0.56627914  0.29536848  0.00484736  1  -1.204592  0.006684  -0.332976  -0.583115  0.004135  2.164172  0.005
O  O126  1  0.95497405  0.56886191  0.80335138  1  -1.212501  0.063582  -0.310536  -0.560173  0.044185  2.344926  0.027
O  O127  1  0.72589083  0.62528425  0.79682596  1  -1.208304  0.064902  -0.302858  -0.566972  0.046592  2.31437  0.032
O  O128  1  0.52571674  0.30890260  0.14751925  1  -1.327238  0.066949  -0.585273  -0.798947  0.049305  2.202588  0.031
O  O129  1  0.67767980  0.61469167  0.55136792  1  -1.213976  0.060249  -0.316897  -0.568178  0.043392  2.284287  0.031
O  O130  1  0.93374807  0.70460733  0.50485529  1  -1.204922  0.006685  -0.333048  -0.583257  0.004135  2.164253  0.005
O  O131  1  0.54500662  0.43115156  0.30334511  1  -1.212185  0.063587  -0.31063  -0.560273  0.044193  2.345398  0.027
O  O132  1  0.77409534  0.37473101  0.29681023  1  -1.208481  0.064912  -0.302681  -0.566823  0.046599  2.314732  0.032
O  O133  1  0.97427827  0.69110052  0.64753612  1  -1.32743  0.066966  -0.585426  -0.798855  0.049318  2.20272  0.031
O  O134  1  0.17766459  0.61467138  0.94865062  1  -1.213818  0.060241  -0.316715  -0.567999  0.043378  2.284094  0.031
O  O135  1  0.43373621  0.70465360  0.99515641  1  -1.205038  0.006681  -0.332928  -0.583073  0.004132  2.164445  0.005
O  O136  1  0.04501776  0.43114212  0.19665015  1  -1.212238  0.063591  -0.310601  -0.560208  0.044191  2.345057  0.027
O  O137  1  0.27408525  0.37470393  0.20318005  1  -1.208663  0.06493  -0.302782  -0.566927  0.046603  2.314821  0.032
O  O138  1  0.47426262  0.69108840  0.85247614  1  -1.32697  0.066948  -0.585251  -0.798745  0.049312  2.202859  0.031
O  O139  1  0.32233900  0.38534118  0.44863697  1  -1.21409  0.060215  -0.316876  -0.568306  0.043379  2.284389  0.031
O  O140  1  0.06627558  0.29536671  0.49515408  1  -1.204852  0.006674  -0.332974  -0.583067  0.004127  2.164476  0.005
O  O141  1  0.45498652  0.56886401  0.69665643  1  -1.212288  0.063577  -0.310625  -0.560295  0.044187  2.345079  0.027
O  O142  1  0.22586382  0.62525976  0.70318851  1  -1.208297  0.06491  -0.302846  -0.566972  0.046594  2.314577  0.032
O  O143  1  0.02571239  0.30889992  0.35247212  1  -1.327104  0.06694  -0.585295  -0.798907  0.049308  2.202707  0.031
