# generated using pymatgen
data_CaH12(C2O5)2
_symmetry_space_group_name_H-M   'P 1'
_cell_length_a   6.16258416
_cell_length_b   8.24902354
_cell_length_c   10.25603797
_cell_angle_alpha   95.40416649
_cell_angle_beta   105.57569925
_cell_angle_gamma   107.76813016
_symmetry_Int_Tables_number   1
_chemical_formula_structural   CaH12(C2O5)2
_chemical_formula_sum   'Ca2 H24 C8 O20'
_cell_volume   469.36836714
_cell_formula_units_Z   2
loop_
 _symmetry_equiv_pos_site_id
 _symmetry_equiv_pos_as_xyz
  1  'x, y, z'
loop_
 _atom_site_type_symbol
 _atom_site_label
 _atom_site_symmetry_multiplicity
 _atom_site_fract_x
 _atom_site_fract_y
 _atom_site_fract_z
 _atom_site_occupancy
 _atom_site_hle17_bader_spin_density
 _atom_site_hle17_ddec_charge
 _atom_site_hle17_ddec_spin_density
 _atom_site_hle17_ddec_sum_bond_order
 _atom_site_hle17_magmom
 _atom_site_hse06_10hf_bader_spin_density
 _atom_site_hse06_10hf_ddec_charge
 _atom_site_hse06_10hf_ddec_spin_density
 _atom_site_hse06_10hf_ddec_sum_bond_order
 _atom_site_hse06_10hf_magmom
 _atom_site_hse06_bader_spin_density
 _atom_site_hse06_ddec_charge
 _atom_site_hse06_ddec_spin_density
 _atom_site_hse06_ddec_sum_bond_order
 _atom_site_hse06_magmom
 _atom_site_pbe_bader_spin_density
 _atom_site_pbe_cm5_charge
 _atom_site_pbe_ddec_charge
 _atom_site_pbe_ddec_spin_density
 _atom_site_pbe_ddec_sum_bond_order
 _atom_site_pbe_magmom
Ca  Ca0  1  0.34631247  0.69793301  0.27572461  1  0  1.549691  0  1.058677  0  0  1.414709  0  1.400987  0  0  1.454146  0  1.359182  0  0  0.845844  1.385067  0  1.430651  0
Ca  Ca1  1  0.65368773  0.30206705  0.72427415  1  0  1.549683  0  1.058679  0  0  1.414705  0  1.400984  0  0  1.454135  0  1.359184  0  0  0.845838  1.385059  0  1.430652  0
H  H2  1  0.52307519  0.25368164  0.29215163  1  0  0.072619  0  0.939314  0  0  0.076472  0  1.008176  0  0  0.079914  0  1.004447  0  0  0.116191  0.073898  0  1.011072  0
H  H3  1  0.47692730  0.74631974  0.70784955  1  0  0.072607  0  0.939272  0  0  0.07645  0  1.008176  0  0  0.07989  0  1.004449  0  0  0.116176  0.073878  0  1.011073  0
H  H4  1  0.76126964  0.25730923  0.12596773  1  0  0.069191  0  0.932897  0  0  0.071831  0  1.003155  0  0  0.075307  0  0.999271  0  0  0.113628  0.069295  0  1.006127  0
H  H5  1  0.23872657  0.74268954  0.87403321  1  0  0.069151  0  0.932929  0  0  0.071822  0  1.003181  0  0  0.075297  0  0.999297  0  0  0.113626  0.069287  0  1.006154  0
H  H6  1  0.68611144  0.51244732  0.43208114  1  0  0.383334  0  0.899935  0  0  0.357772  0  0.971493  0  0  0.368885  0  0.959084  0  0  0.309242  0.349946  0  0.980204  0
H  H7  1  0.31388937  0.48755404  0.56791879  1  0  0.383323  0  0.899942  0  0  0.357783  0  0.971472  0  0  0.368901  0  0.959053  0  0  0.309228  0.349951  0  0.9802  0
H  H8  1  0.82839711  0.52376311  0.06744673  1  0  0.385256  0  0.913675  0  0  0.358836  0  0.98508  0  0  0.370183  0  0.972172  0  0  0.307902  0.350862  0  0.993785  0
H  H9  1  0.17160309  0.47623696  0.93255204  1  0  0.385259  0  0.913627  0  0  0.35885  0  0.985013  0  0  0.370197  0  0.972138  0  0  0.307905  0.350877  0  0.993717  0
H  H10  1  0.74442949  0.77969190  0.53634581  1  0  0.407748  0  0.891322  0  0  0.376198  0  0.965356  0  0  0.386785  0  0.949703  0  0  0.298896  0.368585  0  0.976607  0
H  H11  1  0.25556902  0.22030817  0.46365463  1  0  0.407745  0  0.891324  0  0  0.376189  0  0.96537  0  0  0.386776  0  0.949717  0  0  0.298891  0.368577  0  0.976619  0
H  H12  1  0.68637893  0.94665724  0.54895871  1  0  0.420089  0  0.886761  0  0  0.393467  0  0.942817  0  0  0.404446  0  0.926935  0  0  0.29603  0.385711  0  0.954005  0
H  H13  1  0.31361957  0.05334283  0.45104173  1  0  0.420091  0  0.886753  0  0  0.393474  0  0.942809  0  0  0.404454  0  0.926926  0  0  0.296026  0.385718  0  0.953997  0
H  H14  1  0.77658842  0.00691555  0.27043092  1  0  0.424382  0  0.876906  0  0  0.389277  0  0.946524  0  0  0.400484  0  0.930278  0  0  0.298071  0.38132  0  0.958053  0
H  H15  1  0.22341009  0.99308452  0.72956952  1  0  0.42435  0  0.87695  0  0  0.389247  0  0.946564  0  0  0.400454  0  0.930319  0  0  0.298052  0.381291  0  0.958092  0
H  H16  1  0.70728303  0.85867071  0.13598683  1  0  0.430978  0  0.866441  0  0  0.397529  0  0.933415  0  0  0.408182  0  0.917832  0  0  0.303149  0.390115  0  0.944265  0
H  H17  1  0.29271548  0.14132935  0.86401263  1  0  0.430969  0  0.866453  0  0  0.397511  0  0.93344  0  0  0.408163  0  0.917858  0  0  0.303137  0.390097  0  0.944292  0
H  H18  1  0.02322848  0.83284427  0.05794032  1  0  0.414176  0  0.88955  0  0  0.382402  0  0.954765  0  0  0.393466  0  0.938591  0  0  0.294342  0.374511  0  0.966297  0
H  H19  1  0.97677171  0.16715580  0.94205942  1  0  0.41415  0  0.889584  0  0  0.382372  0  0.954805  0  0  0.393436  0  0.938631  0  0  0.294331  0.374481  0  0.966335  0
H  H20  1  0.26576452  0.98294040  0.08906489  1  0  0.418039  0  0.877591  0  0  0.386225  0  0.942827  0  0  0.397186  0  0.926637  0  0  0.293116  0.378346  0  0.954484  0
H  H21  1  0.73423567  0.01705968  0.91093583  1  0  0.418052  0  0.87757  0  0  0.386258  0  0.942791  0  0  0.39722  0  0.926598  0  0  0.293131  0.378379  0  0.954449  0
H  H22  1  0.97932914  0.84420641  0.32337841  1  0  0.429568  0  0.86949  0  0  0.396773  0  0.93654  0  0  0.408066  0  0.91981  0  0  0.304823  0.388728  0  0.948445  0
H  H23  1  0.02067105  0.15579366  0.67662231  1  0  0.429577  0  0.869481  0  0  0.396779  0  0.936534  0  0  0.408073  0  0.919803  0  0  0.304823  0.388734  0  0.94844  0
H  H24  1  0.10685016  0.81091057  0.46832961  1  0  0.430455  0  0.870443  0  0  0.395644  0  0.939627  0  0  0.406562  0  0.923733  0  0  0.305734  0.388059  0  0.950657  0
H  H25  1  0.89314835  0.18908949  0.53166985  1  0  0.430433  0  0.87048  0  0  0.395639  0  0.939634  0  0  0.406557  0  0.92374  0  0  0.305742  0.388057  0  0.950661  0
C  C26  1  0.37811894  0.34517691  0.11166865  1  0  0.672312  0  3.817187  0  0  0.61256  0  4.127915  0  0  0.645835  0  4.119917  0  0  0.22919  0.589961  0  4.132621  0
C  C27  1  0.62188187  0.65482446  0.88833128  1  0  0.672301  0  3.817086  0  0  0.612623  0  4.12775  0  0  0.645896  0  4.119751  0  0  0.229223  0.590023  0  4.132456  0
C  C28  1  0.57774642  0.36753215  0.24441174  1  0  0.0562  0  3.646156  0  0  0.028956  0  3.902751  0  0  0.030223  0  3.909098  0  0  -0.000808  0.027995  0  3.898214  0
C  C29  1  0.42225547  0.63246793  0.75558827  1  0  0.056285  0  3.646059  0  0  0.02897  0  3.902808  0  0  0.030238  0  3.909155  0  0  -0.000773  0.028007  0  3.898273  0
C  C30  1  0.80926581  0.37119076  0.20769281  1  0  0.058762  0  3.656809  0  0  0.034303  0  3.911271  0  0  0.035734  0  3.91776  0  0  -0.001615  0.033084  0  3.906833  0
C  C31  1  0.19073439  0.62880932  0.79230888  1  0  0.058869  0  3.656675  0  0  0.034353  0  3.911245  0  0  0.035784  0  3.917735  0  0  -0.001591  0.033129  0  3.906816  0
C  C32  1  0.98552606  0.35259580  0.33645783  1  0  0.660415  0  3.833894  0  0  0.600952  0  4.141354  0  0  0.633995  0  4.13354  0  0  0.228459  0.57858  0  4.145915  0
C  C33  1  0.01447582  0.64740427  0.66354121  1  0  0.660403  0  3.833911  0  0  0.600973  0  4.141356  0  0  0.634016  0  4.133541  0  0  0.228453  0.5786  0  4.145921  0
O  O34  1  0.31479583  0.47500084  0.08816415  1  0  -0.643613  0  2.026394  0  0  -0.579338  0  2.260992  0  0  -0.605782  0  2.251978  0  0  -0.325633  -0.560686  0  2.266551  0
O  O35  1  0.68520269  0.52499922  0.91183337  1  0  -0.643624  0  2.026349  0  0  -0.57934  0  2.260894  0  0  -0.605783  0  2.251875  0  0  -0.325669  -0.560688  0  2.266454  0
O  O36  1  0.28807939  0.19656474  0.03180603  1  0  -0.671346  0  2.006435  0  0  -0.600734  0  2.224971  0  0  -0.626837  0  2.212219  0  0  -0.307913  -0.582681  0  2.233571  0
O  O37  1  0.71192249  0.80343534  0.96819399  1  0  -0.671347  0  2.006383  0  0  -0.600778  0  2.224925  0  0  -0.626881  0  2.212171  0  0  -0.307929  -0.582724  0  2.233525  0
O  O38  1  0.61647741  0.52195469  0.33416804  1  0  -0.591224  0  2.164344  0  0  -0.541685  0  2.407327  0  0  -0.558929  0  2.396209  0  0  -0.413673  -0.529192  0  2.414654  0
O  O39  1  0.38352171  0.47804668  0.66583259  1  0  -0.59127  0  2.16439  0  0  -0.541746  0  2.407399  0  0  -0.558992  0  2.396281  0  0  -0.413693  -0.529251  0  2.414729  0
O  O40  1  0.91519108  0.52691171  0.16662535  1  0  -0.599526  0  2.176119  0  0  -0.548372  0  2.418086  0  0  -0.566302  0  2.40688  0  0  -0.420956  -0.535362  0  2.425213  0
O  O41  1  0.08480682  0.47308705  0.83337392  1  0  -0.599559  0  2.17611  0  0  -0.548382  0  2.418083  0  0  -0.56631  0  2.406905  0  0  -0.42096  -0.53537  0  2.425211  0
O  O42  1  0.93117499  0.20633792  0.37461418  1  0  -0.661655  0  2.040561  0  0  -0.589591  0  2.260225  0  0  -0.615963  0  2.248295  0  0  -0.305476  -0.571315  0  2.268116  0
O  O43  1  0.06882629  0.79366084  0.62538369  1  0  -0.661659  0  2.040575  0  0  -0.58961  0  2.260244  0  0  -0.615985  0  2.248317  0  0  -0.305447  -0.571333  0  2.268136  0
O  O44  1  0.17215490  0.48137628  0.40047143  1  0  -0.64354  0  2.03858  0  0  -0.58041  0  2.276208  0  0  -0.606648  0  2.267544  0  0  -0.327629  -0.561949  0  2.281642  0
O  O45  1  0.82784637  0.51862250  0.59952742  1  0  -0.643541  0  2.038594  0  0  -0.58042  0  2.276235  0  0  -0.606652  0  2.26757  0  0  -0.327632  -0.561961  0  2.281667  0
O  O46  1  0.60629062  0.81936291  0.50962742  1  0  -0.860947  0  1.807988  0  0  -0.802517  0  1.988675  0  0  -0.823313  0  1.957828  0  0  -0.62738  -0.787616  0  2.010171  0
O  O47  1  0.39370958  0.18063715  0.49037232  1  0  -0.86095  0  1.807997  0  0  -0.802531  0  1.988685  0  0  -0.823327  0  1.957837  0  0  -0.62737  -0.787627  0  2.010177  0
O  O48  1  0.71252038  0.87927584  0.23383230  1  0  -0.872311  0  1.859834  0  0  -0.809758  0  2.044501  0  0  -0.831679  0  2.011622  0  0  -0.596549  -0.79411  0  2.067232  0
O  O49  1  0.28747752  0.12072293  0.76616795  1  0  -0.872271  0  1.859883  0  0  -0.80971  0  2.044548  0  0  -0.831629  0  2.011668  0  0  -0.596522  -0.794057  0  2.067277  0
O  O50  1  0.19864211  0.86146674  0.09918763  1  0  -0.863132  0  1.794102  0  0  -0.806702  0  1.967634  0  0  -0.826865  0  1.935252  0  0  -0.612777  -0.792261  0  1.990348  0
O  O51  1  0.80135748  0.13853203  0.90081192  1  0  -0.863116  0  1.794098  0  0  -0.806714  0  1.967576  0  0  -0.826876  0  1.935193  0  0  -0.61278  -0.792274  0  1.990289  0
O  O52  1  0.13867340  0.84942364  0.38411063  1  0  -0.875921  0  1.919717  0  0  -0.814783  0  2.10828  0  0  -0.837067  0  2.075626  0  0  -0.60421  -0.798877  0  2.130774  0
O  O53  1  0.86132680  0.15057643  0.61588911  1  0  -0.875914  0  1.919756  0  0  -0.814783  0  2.108296  0  0  -0.837065  0  2.07564  0  0  -0.604213  -0.798875  0  2.130789  0
