# generated using pymatgen
data_Al2H12C18O11
_symmetry_space_group_name_H-M   'P 1'
_cell_length_a   6.91874559
_cell_length_b   11.13237520
_cell_length_c   11.04854230
_cell_angle_alpha   72.74910254
_cell_angle_beta   73.86936399
_cell_angle_gamma   72.07843325
_symmetry_Int_Tables_number   1
_chemical_formula_structural   Al2H12C18O11
_chemical_formula_sum   'Al2 H12 C18 O11'
_cell_volume   756.79188254
_cell_formula_units_Z   1
loop_
 _symmetry_equiv_pos_site_id
 _symmetry_equiv_pos_as_xyz
  1  'x, y, z'
loop_
 _atom_site_type_symbol
 _atom_site_label
 _atom_site_symmetry_multiplicity
 _atom_site_fract_x
 _atom_site_fract_y
 _atom_site_fract_z
 _atom_site_occupancy
 _atom_site_pbe_bader_charge
 _atom_site_pbe_bader_spin_density
 _atom_site_pbe_cm5_charge
 _atom_site_pbe_ddec_charge
 _atom_site_pbe_ddec_spin_density
 _atom_site_pbe_ddec_sum_bond_order
 _atom_site_pbe_magmom
Al  Al0  1  0.50164264  0.49939747  0.49902671  1  2.508455  0  0.411324  1.63481  0  2.553089  0
Al  Al1  1  0.00345552  0.49612267  0.49845679  1  2.509817  0  0.406454  1.642838  0  2.563398  0
H  H2  1  0.27060763  0.60106201  0.34413387  1  0.590165  0  0.339668  0.41379  0  0.883979  0
H  H3  1  0.77806614  0.34441766  0.60675749  1  0.625297  0  0.34764  0.424837  0  0.861291  0
H  H4  1  0.13536272  0.11399476  0.49476821  1  0.100304  0  0.103971  0.111053  0  1.014804  0
H  H5  1  0.75112014  0.11756984  0.50671485  1  0.086302  0  0.111972  0.131617  0  1.000343  0
H  H6  1  0.25941617  0.87954361  0.49293512  1  0.145135  0  0.107196  0.118482  0  1.031402  0
H  H7  1  0.77986525  0.48738388  0.86569075  1  0.115623  0  0.104541  0.100708  0  1.067069  0
H  H8  1  0.63981735  0.49678298  0.09846338  1  0.079911  0  0.099672  0.095248  0  1.106707  0
H  H9  1  0.33217618  0.60010341  0.11353345  1  0.046424  0  0.101184  0.108863  0  0.979656  0
H  H10  1  0.39429784  0.42680213  0.16249325  1  0.069355  0  0.10624  0.120399  0  0.971147  0
H  H11  1  0.53590847  0.41462488  0.92867292  1  0.068475  0  0.103427  0.116315  0  0.976789  0
H  H12  1  0.47359936  0.58804232  0.88025815  1  0.082528  0  0.104558  0.119565  0  0.971485  0
H  H13  1  0.93695813  0.78396609  0.50401663  1  0.658823  0  0.314486  0.357232  0  0.963717  0
C  C14  1  0.84497861  0.51271215  0.26977562  1  1.542618  0  0.271402  0.657731  0  4.074867  0
C  C15  1  0.64184022  0.72687779  0.49581516  1  1.535782  0  0.267093  0.655807  0  4.068602  0
C  C16  1  0.15809790  0.48896189  0.72483870  1  1.5797  0  0.273069  0.655059  0  4.080643  0
C  C17  1  0.36206951  0.27016470  0.50440533  1  1.549866  0  0.271411  0.650534  0  4.067619  0
C  C18  1  0.57397318  0.86556353  0.49860188  1  -0.053405  0  -0.031578  -0.193632  0  3.975882  0
C  C19  1  0.43578703  0.12962387  0.50195423  1  0.015829  0  -0.012942  -0.020853  0  4.000763  0
C  C20  1  0.71454760  0.93360774  0.50290039  1  0.550239  0  0.095659  0.317364  0  4.056838  0
C  C21  1  0.29625124  0.06267859  0.49748938  1  -0.026792  0  -0.097286  -0.127523  0  3.999501  0
C  C22  1  0.64284585  0.06552105  0.50437014  1  -0.004721  0  -0.095504  -0.214809  0  3.927341  0
C  C23  1  0.36591554  0.93239606  0.49596061  1  -0.041712  0  -0.081014  -0.063741  0  3.992442  0
C  C24  1  0.92186929  0.50812616  0.13128075  1  0.030657  0  -0.011768  -0.085704  0  3.992429  0
C  C25  1  0.08336652  0.49507355  0.86300432  1  -0.0064  0  -0.010493  -0.08677  0  3.994985  0
C  C26  1  0.12529148  0.50952432  0.06964179  1  -0.072774  0  -0.003448  0.067554  0  3.913267  0
C  C27  1  0.87671370  0.49358079  0.92441386  1  -0.040333  0  -0.085606  -0.103469  0  3.991668  0
C  C28  1  0.20390151  0.50302480  0.94037558  1  -0.024544  0  -0.001247  0.072193  0  3.904354  0
C  C29  1  0.79876752  0.49950423  0.05370391  1  -0.004355  0  -0.087049  -0.102339  0  3.985049  0
C  C30  1  0.32927637  0.51108924  0.09085851  1  -0.03765  0  -0.151373  -0.208751  0  3.905825  0
C  C31  1  0.41840073  0.50378802  0.94417159  1  -0.07076  0  -0.149147  -0.204171  0  3.883131  0
O  O32  1  0.65653836  0.50948510  0.32179152  1  -1.261364  0  -0.238432  -0.598186  0  2.316192  0
O  O33  1  0.83443178  0.66990720  0.50021797  1  -1.259037  0  -0.234329  -0.600812  0  2.382661  0
O  O34  1  0.02638588  0.47935355  0.66930583  1  -1.265829  0  -0.236288  -0.597165  0  2.359772  0
O  O35  1  0.49453610  0.32472967  0.51209100  1  -1.267811  0  -0.238975  -0.607959  0  2.349716  0
O  O36  1  0.34567413  0.49373421  0.67288104  1  -1.257319  0  -0.229572  -0.576774  0  2.309075  0
O  O37  1  0.17160339  0.32385246  0.49935082  1  -1.268461  0  -0.237147  -0.60572  0  2.348304  0
O  O38  1  0.97941353  0.52006059  0.32514616  1  -1.260527  0  -0.233702  -0.602529  0  2.354737  0
O  O39  1  0.51116108  0.67215883  0.48790257  1  -1.258645  0  -0.228494  -0.57378  0  2.346203  0
O  O40  1  0.24779646  0.56273486  0.43648393  1  -1.403079  0  -0.452214  -0.979278  0  2.114002  0
O  O41  1  0.75712650  0.43400657  0.55828916  1  -1.43375  0  -0.449913  -0.979639  0  2.122003  0
O  O42  1  0.91659035  0.87671341  0.50537999  1  -1.172035  0  -0.343445  -0.438396  0  2.292366  0
