# generated using pymatgen
data_LaCoH18C36(NO2)6
_symmetry_space_group_name_H-M   'P 1'
_cell_length_a   18.33555827
_cell_length_b   18.33555528
_cell_length_c   21.68976066
_cell_angle_alpha   110.35699085
_cell_angle_beta   110.35731501
_cell_angle_gamma   100.11907139
_symmetry_Int_Tables_number   1
_chemical_formula_structural   LaCoH18C36(NO2)6
_chemical_formula_sum   'La4 Co4 H72 C144 N24 O48'
_cell_volume   6033.30164009
_cell_formula_units_Z   4
loop_
 _symmetry_equiv_pos_site_id
 _symmetry_equiv_pos_as_xyz
  1  'x, y, z'
loop_
 _atom_site_type_symbol
 _atom_site_label
 _atom_site_symmetry_multiplicity
 _atom_site_fract_x
 _atom_site_fract_y
 _atom_site_fract_z
 _atom_site_occupancy
 _atom_site_pbe_bader_charge
 _atom_site_pbe_bader_spin_density
 _atom_site_pbe_cm5_charge
 _atom_site_pbe_ddec_charge
 _atom_site_pbe_ddec_spin_density
 _atom_site_pbe_ddec_sum_bond_order
 _atom_site_pbe_magmom
La  La0  1  0.64633439  0.39629927  0.25007757  1  2.244156  0  1.366481  1.863127  0  2.365797  0
La  La1  1  0.10370141  0.85366534  0.24992389  1  2.244133  0  1.366453  1.863085  0  2.365827  0
La  La2  1  0.35366357  0.60370096  0.74992148  1  2.244116  0  1.366441  1.863075  0  2.365819  0
La  La3  1  0.89630051  0.14633618  0.75008036  1  2.244089  0  1.366414  1.863054  0  2.365854  0
Co  Co4  1  0.60949300  0.89050835  0.25000024  1  1.114785  0  0.868392  0.499719  0  3.542692  0
Co  Co5  1  0.14058866  0.35941126  0.24999948  1  1.1188  0  0.869307  0.498242  0  3.549204  0
Co  Co6  1  0.39050738  0.10949266  0.74999875  1  1.114664  0  0.868378  0.499702  0  3.542861  0
Co  Co7  1  0.85940993  0.64058762  0.74999896  1  1.118798  0  0.869267  0.498098  0  3.54928  0
H  H8  1  0.54007590  0.94578587  0.13048992  1  0.097288  0  0.125771  0.097035  0  1.003546  0
H  H9  1  0.54200314  0.08555898  0.13509967  1  0.158037  0  0.126488  0.142297  0  0.970624  0
H  H10  1  0.69411763  0.19557455  0.36637949  1  0.168344  0  0.126441  0.146439  0  0.979759  0
H  H11  1  0.75966517  0.17068382  0.45690998  1  0.138186  0  0.122646  0.140666  0  0.991783  0
H  H12  1  0.78568801  0.97888104  0.52288759  1  0.155649  0  0.136309  0.154778  0  0.962048  0
H  H13  1  0.69689721  0.87401091  0.39119420  1  0.100868  0  0.128681  0.102302  0  0.994437  0
H  H14  1  0.99198052  0.23102820  0.22703474  1  0.117107  0  0.124517  0.094543  0  1.005757  0
H  H15  1  0.85332252  0.23466271  0.22199618  1  0.133083  0  0.121566  0.135826  0  0.976375  0
H  H16  1  0.92285848  0.48441367  0.25248639  1  0.165087  0  0.137183  0.15936  0  0.957178  0
H  H17  1  0.09062598  0.18483485  0.13047059  1  0.118647  0  0.125814  0.096819  0  1.002911  0
H  H18  1  0.09311282  0.04960754  0.13502172  1  0.140019  0  0.126357  0.142596  0  0.970504  0
H  H19  1  0.17191029  0.17050927  0.36631906  1  0.16697  0  0.12675  0.146383  0  0.979833  0
H  H20  1  0.19674540  0.28588140  0.45688940  1  0.153142  0  0.122884  0.140264  0  0.992792  0
H  H21  1  0.23672503  0.54355479  0.52271092  1  0.173551  0  0.135853  0.15458  0  0.962271  0
H  H22  1  0.19402049  0.51687368  0.39104767  1  0.117185  0  0.128186  0.101661  0  0.994741  0
H  H23  1  0.73525744  0.99594116  0.22710177  1  0.123438  0  0.125274  0.09558  0  1.005199  0
H  H24  1  0.86878417  0.98718300  0.22194938  1  0.132921  0  0.121642  0.135632  0  0.976972  0
H  H25  1  0.82968032  0.76785715  0.25242735  1  0.166928  0  0.137138  0.159591  0  0.957366  0
H  H26  1  0.55421362  0.95992507  0.36951150  1  0.097324  0  0.125756  0.100084  0  0.999568  0
H  H27  1  0.41444122  0.95799619  0.36490237  1  0.157978  0  0.12648  0.142298  0  0.970517  0
H  H28  1  0.30442530  0.80588434  0.13362225  1  0.168389  0  0.126443  0.146435  0  0.979775  0
H  H29  1  0.32931636  0.74033869  0.04309513  1  0.138089  0  0.122658  0.140681  0  0.991765  0
H  H30  1  0.52111406  0.71431282  0.97711317  1  0.155495  0  0.136299  0.154743  0  0.962054  0
H  H31  1  0.62598581  0.80309989  0.10880197  1  0.100926  0  0.128626  0.102188  0  0.994364  0
H  H32  1  0.26897230  0.50802248  0.27296829  1  0.116962  0  0.124488  0.094492  0  1.00573  0
H  H33  1  0.26533649  0.64667933  0.27800561  1  0.132953  0  0.1216  0.135905  0  0.976365  0
H  H34  1  0.01558375  0.57713965  0.24751281  1  0.165042  0  0.137172  0.159366  0  0.957235  0
H  H35  1  0.31516533  0.40937568  0.36953208  1  0.118586  0  0.125827  0.096816  0  1.002896  0
H  H36  1  0.45039380  0.40688964  0.36498137  1  0.13995  0  0.1264  0.142615  0  0.970446  0
H  H37  1  0.32949421  0.32809066  0.13368449  1  0.166762  0  0.126735  0.146385  0  0.97988  0
H  H38  1  0.21412014  0.30325548  0.04311176  1  0.153146  0  0.12288  0.14028  0  0.992792  0
H  H39  1  0.95644533  0.26327446  0.97729065  1  0.17348  0  0.135819  0.154537  0  0.96223  0
H  H40  1  0.98312880  0.30598028  0.10895286  1  0.117248  0  0.128201  0.101712  0  0.994638  0
H  H41  1  0.50405925  0.76474040  0.27289864  1  0.123467  0  0.125287  0.095586  0  1.005129  0
H  H42  1  0.51281695  0.63121534  0.27805090  1  0.13287  0  0.121627  0.135623  0  0.977002  0
H  H43  1  0.73214016  0.67031862  0.24756944  1  0.167129  0  0.137111  0.159555  0  0.95731  0
H  H44  1  0.45992701  0.05421534  0.86951160  1  0.097326  0  0.125767  0.09704  0  1.003514  0
H  H45  1  0.45799758  0.91444401  0.86490214  1  0.15801  0  0.126497  0.14231  0  0.970621  0
H  H46  1  0.30588374  0.80442601  0.63362359  1  0.168415  0  0.126412  0.146436  0  0.979758  0
H  H47  1  0.24033575  0.82931628  0.54309264  1  0.138149  0  0.122659  0.140704  0  0.991733  0
H  H48  1  0.21431132  0.02111590  0.47711282  1  0.155659  0  0.136284  0.154715  0  0.962053  0
H  H49  1  0.30310147  0.12598705  0.60880370  1  0.100887  0  0.128638  0.102186  0  0.994385  0
H  H50  1  0.00801878  0.76896656  0.77296503  1  0.116741  0  0.124521  0.094539  0  1.005685  0
H  H51  1  0.14667595  0.76533348  0.77800090  1  0.132979  0  0.121633  0.135939  0  0.976297  0
H  H52  1  0.07714092  0.51558344  0.74751161  1  0.164995  0  0.137208  0.159415  0  0.957158  0
H  H53  1  0.90937332  0.81516130  0.86953041  1  0.118613  0  0.125825  0.096797  0  1.002901  0
H  H54  1  0.90688757  0.95038912  0.86498037  1  0.140014  0  0.126355  0.142536  0  0.970522  0
H  H55  1  0.82809225  0.82949477  0.63368517  1  0.166776  0  0.126735  0.146352  0  0.979894  0
H  H56  1  0.80325423  0.71412108  0.54311132  1  0.153111  0  0.12287  0.140238  0  0.992818  0
H  H57  1  0.76327353  0.45644610  0.47729058  1  0.1735  0  0.135823  0.15455  0  0.962219  0
H  H58  1  0.80597788  0.48313010  0.60895301  1  0.117138  0  0.128223  0.101736  0  0.994619  0
H  H59  1  0.26474485  0.00406187  0.77289666  1  0.123463  0  0.125272  0.095558  0  1.005133  0
H  H60  1  0.13121976  0.01281728  0.77804759  1  0.133014  0  0.12165  0.135687  0  0.97697  0
H  H61  1  0.17032028  0.23214316  0.74757310  1  0.167074  0  0.137134  0.159571  0  0.957385  0
H  H62  1  0.44578379  0.04007420  0.63048638  1  0.097236  0  0.125751  0.100052  0  0.999533  0
H  H63  1  0.58555487  0.04200141  0.63509541  1  0.157953  0  0.126495  0.142307  0  0.970457  0
H  H64  1  0.69557167  0.19411199  0.86637581  1  0.168445  0  0.126442  0.146423  0  0.97977  0
H  H65  1  0.67068230  0.25966316  0.95690337  1  0.138442  0  0.122679  0.14071  0  0.991789  0
H  H66  1  0.47888100  0.28568584  0.02288235  1  0.155771  0  0.136254  0.154686  0  0.962012  0
H  H67  1  0.37401132  0.19689571  0.89119315  1  0.100866  0  0.128678  0.102266  0  0.994394  0
H  H68  1  0.73103016  0.49198293  0.72703278  1  0.116653  0  0.124504  0.094544  0  1.005744  0
H  H69  1  0.73465975  0.35332313  0.72199418  1  0.133415  0  0.121544  0.135841  0  0.976345  0
H  H70  1  0.98441550  0.42285820  0.75248814  1  0.165049  0  0.137171  0.159351  0  0.957135  0
H  H71  1  0.68483497  0.59062763  0.63046868  1  0.118576  0  0.125843  0.096818  0  1.002932  0
H  H72  1  0.54960926  0.59311504  0.63502092  1  0.139945  0  0.126371  0.142662  0  0.970495  0
H  H73  1  0.67050614  0.67190957  0.86631509  1  0.166775  0  0.126719  0.146367  0  0.979902  0
H  H74  1  0.78588013  0.69674565  0.95688835  1  0.153122  0  0.122859  0.140179  0  0.992772  0
H  H75  1  0.04355458  0.73672843  0.02271405  1  0.173518  0  0.135853  0.154582  0  0.962151  0
H  H76  1  0.01687273  0.69402234  0.89104975  1  0.117185  0  0.12821  0.10175  0  0.994625  0
H  H77  1  0.49593961  0.23525608  0.72710132  1  0.123479  0  0.12529  0.095617  0  1.005137  0
H  H78  1  0.48718310  0.36878075  0.72194961  1  0.132919  0  0.121638  0.135645  0  0.977057  0
H  H79  1  0.26785973  0.32968254  0.75243091  1  0.167107  0  0.137126  0.159566  0  0.957335  0
C  C80  1  0.57292937  0.00193501  0.18190885  1  0.400623  0  0.050204  0.072408  0  3.935804  0
C  C81  1  0.57431587  0.07887656  0.18443483  1  0.049659  0  -0.061497  -0.120701  0  3.901039  0
C  C82  1  0.61784716  0.14958030  0.25168214  1  -0.017997  0  0.029294  0.068263  0  3.877954  0
C  C83  1  0.65940669  0.14028728  0.31423581  1  0.008404  0  -0.056633  -0.147157  0  3.864817  0
C  C84  1  0.65520812  0.06155930  0.30876635  1  0.384408  0  0.118017  0.149648  0  4.007388  0
C  C85  1  0.69474484  0.04436336  0.37062661  1  0.418955  0  0.115016  0.145695  0  4.014764  0
C  C86  1  0.74492265  0.10482829  0.44210413  1  0.008796  0  -0.060439  -0.153984  0  3.889155  0
C  C87  1  0.77833227  0.08213466  0.49794548  1  0.0458  0  0.028726  0.057086  0  3.871591  0
C  C88  1  0.76068673  0.99789622  0.47980903  1  0.007706  0  -0.05374  -0.113528  0  3.87758  0
C  C89  1  0.71121156  0.93991058  0.40719062  1  0.428761  0  0.052199  0.075115  0  3.918823  0
C  C90  1  0.62064732  0.23459193  0.25660942  1  1.668387  0  0.187568  0.548621  0  4.29044  0
C  C91  1  0.83157478  0.14972743  0.57645415  1  1.668063  0  0.212412  0.58549  0  4.257902  0
C  C92  1  0.97475067  0.28582949  0.23181891  1  0.399598  0  0.047369  0.070885  0  3.946902  0
C  C93  1  0.89865352  0.28809202  0.22948522  1  0.033318  0  -0.059839  -0.122877  0  3.912942  0
C  C94  1  0.87998147  0.36055881  0.23797169  1  -0.002891  0  0.033215  0.07761  0  3.868492  0
C  C95  1  0.93767335  0.42795427  0.24574324  1  0.020615  0  -0.042782  -0.12795  0  3.82423  0
C  C96  1  0.01249479  0.42187150  0.24613079  1  0.429137  0  0.119965  0.147548  0  3.993376  0
C  C97  1  0.80043884  0.36722176  0.24194586  1  1.663862  0  0.190383  0.543947  0  4.306877  0
C  C98  1  0.10909981  0.18000570  0.18187452  1  0.400254  0  0.05011  0.072866  0  3.936388  0
C  C99  1  0.11010022  0.10554224  0.18437314  1  0.017679  0  -0.060583  -0.121178  0  3.901373  0
C  C100  1  0.13367185  0.10199605  0.25162246  1  -0.021505  0  0.029292  0.070197  0  3.875328  0
C  C101  1  0.15457562  0.17375407  0.31418001  1  -0.013472  0  -0.056995  -0.148182  0  3.864614  0
C  C102  1  0.15338567  0.24702099  0.30871616  1  0.429048  0  0.117921  0.15078  0  4.007343  0
C  C103  1  0.17558315  0.32597618  0.37057512  1  0.423514  0  0.114448  0.142956  0  4.015018  0
C  C104  1  0.19670916  0.33692533  0.44205695  1  -0.038378  0  -0.059893  -0.15151  0  3.889843  0
C  C105  1  0.21918975  0.41543512  0.49786843  1  0.076005  0  0.027625  0.056584  0  3.870583  0
C  C106  1  0.21863364  0.48149784  0.47965852  1  -0.01233  0  -0.053444  -0.11434  0  3.879912  0
C  C107  1  0.19563220  0.46694163  0.40704680  1  0.408251  0  0.053692  0.07711  0  3.918186  0
C  C108  1  0.13589823  0.02196405  0.25663412  1  1.659026  0  0.186989  0.548177  0  4.289307  0
C  C109  1  0.24477291  0.42646040  0.57647745  1  1.681972  0  0.212778  0.584664  0  4.260272  0
C  C110  1  0.75721371  0.94586503  0.23180904  1  0.363157  0  0.046394  0.068795  0  3.948068  0
C  C111  1  0.83094731  0.94121686  0.22942607  1  0.014243  0  -0.060507  -0.122493  0  3.911294  0
C  C112  1  0.85806427  0.87719750  0.23787664  1  0.05016  0  0.033494  0.077892  0  3.867035  0
C  C113  1  0.80815626  0.81759942  0.24569596  1  0.012843  0  -0.042998  -0.128291  0  3.823269  0
C  C114  1  0.73373653  0.82411855  0.24610277  1  0.390317  0  0.120019  0.147714  0  3.991517  0
C  C115  1  0.94155070  0.87451684  0.24183949  1  1.653773  0  0.191448  0.543539  0  4.309448  0
C  C116  1  0.49806489  0.92707057  0.31809470  1  0.401085  0  0.050217  0.070325  0  3.935341  0
C  C117  1  0.42112188  0.92568356  0.31556749  1  0.049537  0  -0.061428  -0.120753  0  3.901763  0
C  C118  1  0.35041879  0.88215010  0.24831663  1  -0.018774  0  0.029244  0.068263  0  3.877802  0
C  C119  1  0.35971517  0.84059321  0.18576566  1  0.008963  0  -0.056609  -0.147175  0  3.864888  0
C  C120  1  0.43844296  0.84479187  0.19123670  1  0.384266  0  0.118007  0.149668  0  4.007532  0
C  C121  1  0.45563772  0.80525560  0.12937502  1  0.419216  0  0.114985  0.145806  0  4.014471  0
C  C122  1  0.39516993  0.75507823  0.05789806  1  0.009065  0  -0.060448  -0.154047  0  3.889196  0
C  C123  1  0.41786142  0.72166612  0.00205584  1  0.045393  0  0.028746  0.057272  0  3.87144  0
C  C124  1  0.50209877  0.73931424  0.02019089  1  0.00793  0  -0.053817  -0.113673  0  3.877609  0
C  C125  1  0.56008544  0.78878857  0.09280809  1  0.428807  0  0.052284  0.075418  0  3.91836  0
C  C126  1  0.26540353  0.87934383  0.24338471  1  1.668171  0  0.187638  0.548564  0  4.290391  0
C  C127  1  0.35026385  0.66842250  0.92354743  1  1.668296  0  0.212271  0.585119  0  4.258256  0
C  C128  1  0.21417116  0.52525208  0.26818493  1  0.399755  0  0.047365  0.070859  0  3.946804  0
C  C129  1  0.21190777  0.60134861  0.27051817  1  0.033308  0  -0.0599  -0.122936  0  3.9129  0
C  C130  1  0.13943769  0.62001780  0.26202553  1  -0.002728  0  0.033263  0.077616  0  3.868438  0
C  C131  1  0.07204334  0.56232631  0.25425622  1  0.020619  0  -0.04281  -0.12805  0  3.824249  0
C  C132  1  0.07812646  0.48750367  0.25386626  1  0.404516  0  0.120034  0.147748  0  3.993175  0
C  C133  1  0.13277564  0.69955960  0.25805087  1  1.6644  0  0.190356  0.544004  0  4.306909  0
C  C134  1  0.31999362  0.39090191  0.31812659  1  0.400231  0  0.050166  0.072933  0  3.936315  0
C  C135  1  0.39445684  0.38990170  0.31562841  1  0.017715  0  -0.060674  -0.121208  0  3.901466  0
C  C136  1  0.39800642  0.36633380  0.24838085  1  -0.02147  0  0.029248  0.070126  0  3.875344  0
C  C137  1  0.32624858  0.34542755  0.18582243  1  -0.013308  0  -0.056913  -0.148057  0  3.864518  0
C  C138  1  0.25298110  0.34661542  0.19128668  1  0.429158  0  0.1179  0.15076  0  4.007279  0
C  C139  1  0.17402645  0.32441737  0.12942630  1  0.423501  0  0.114402  0.142845  0  4.015067  0
C  C140  1  0.16307560  0.30328992  0.05794342  1  -0.038344  0  -0.059861  -0.151536  0  3.889889  0
C  C141  1  0.08456717  0.28081369  0.00213316  1  0.076003  0  0.02762  0.056672  0  3.870479  0
C  C142  1  0.01850385  0.28136803  0.02034106  1  -0.012186  0  -0.053387  -0.11428  0  3.879865  0
C  C143  1  0.03306034  0.30436958  0.09295133  1  0.408171  0  0.053647  0.077006  0  3.918238  0
C  C144  1  0.47803883  0.36410588  0.24336931  1  1.659119  0  0.186987  0.547979  0  4.289447  0
C  C145  1  0.07354386  0.25522792  0.92352413  1  1.681613  0  0.212748  0.584631  0  4.260208  0
C  C146  1  0.55413360  0.74278427  0.26818956  1  0.363136  0  0.046383  0.068831  0  3.94816  0
C  C147  1  0.55878096  0.66905015  0.27057053  1  0.014447  0  -0.060495  -0.122582  0  3.911532  0
C  C148  1  0.62279949  0.64193135  0.26212010  1  0.049984  0  0.033528  0.078044  0  3.866909  0
C  C149  1  0.68239826  0.69184220  0.25430166  1  0.012948  0  -0.042994  -0.128308  0  3.823036  0
C  C150  1  0.67588036  0.76626292  0.25389845  1  0.452895  0  0.120027  0.14769  0  3.991628  0
C  C151  1  0.62548204  0.55844732  0.25815912  1  1.653795  0  0.191397  0.54343  0  4.309589  0
C  C152  1  0.42707045  0.99806458  0.81809268  1  0.401107  0  0.050246  0.072419  0  3.935777  0
C  C153  1  0.42568462  0.92112386  0.81556675  1  0.049524  0  -0.061498  -0.120644  0  3.90107  0
C  C154  1  0.38215298  0.85042094  0.74831909  1  -0.018144  0  0.02923  0.068054  0  3.878058  0
C  C155  1  0.34059412  0.85971481  0.68576546  1  0.008519  0  -0.056578  -0.147023  0  3.86483  0
C  C156  1  0.34479349  0.93844243  0.69123572  1  0.384161  0  0.118062  0.149669  0  4.007621  0
C  C157  1  0.30525686  0.95563746  0.62937493  1  0.419168  0  0.114925  0.145642  0  4.014966  0
C  C158  1  0.25507906  0.89517145  0.55789929  1  0.009021  0  -0.060447  -0.154097  0  3.889152  0
C  C159  1  0.22166636  0.91786206  0.50205671  1  0.045409  0  0.028758  0.057294  0  3.871469  0
C  C160  1  0.23931315  0.00209887  0.52019007  1  0.007732  0  -0.053804  -0.113646  0  3.877562  0
C  C161  1  0.28879097  0.06008646  0.59280743  1  0.428842  0  0.052312  0.0754  0  3.918581  0
C  C162  1  0.37934797  0.76540743  0.74338880  1  1.668338  0  0.187603  0.548656  0  4.290429  0
C  C163  1  0.16842268  0.85026394  0.42354935  1  1.668272  0  0.212299  0.58515  0  4.258144  0
C  C164  1  0.02524917  0.71416761  0.76818326  1  0.400034  0  0.047363  0.07078  0  3.946736  0
C  C165  1  0.10134863  0.71190880  0.77052049  1  0.033424  0  -0.059854  -0.122873  0  3.912847  0
C  C166  1  0.12002092  0.63944317  0.76203302  1  -0.002549  0  0.033232  0.077593  0  3.868552  0
C  C167  1  0.06232984  0.57204314  0.75425856  1  0.020412  0  -0.042873  -0.128053  0  3.824051  0
C  C168  1  0.98750638  0.57812588  0.75387023  1  0.424844  0  0.120096  0.147692  0  3.993138  0
C  C169  1  0.19956030  0.63278087  0.75805622  1  1.663632  0  0.19028  0.543902  0  4.307083  0
C  C170  1  0.89090156  0.81999205  0.81812608  1  0.400286  0  0.050133  0.072954  0  3.936388  0
C  C171  1  0.88990055  0.89445439  0.81562871  1  0.017591  0  -0.060627  -0.121157  0  3.901385  0
C  C172  1  0.86633057  0.89800531  0.74838042  1  -0.021522  0  0.029205  0.07008  0  3.875231  0
C  C173  1  0.84542512  0.82624644  0.68582243  1  -0.013281  0  -0.056947  -0.148097  0  3.864678  0
C  C174  1  0.84661410  0.75298029  0.69128532  1  0.429086  0  0.117966  0.150528  0  4.007063  0
C  C175  1  0.82441945  0.67402663  0.62942547  1  0.42356  0  0.114418  0.143987  0  4.013648  0
C  C176  1  0.80329424  0.66307713  0.55794444  1  -0.038126  0  -0.059883  -0.15185  0  3.889545  0
C  C177  1  0.78081461  0.58456765  0.50213206  1  0.075673  0  0.027605  0.056543  0  3.870559  0
C  C178  1  0.78136891  0.51850527  0.52034078  1  -0.012163  0  -0.053405  -0.114293  0  3.879854  0
C  C179  1  0.80436839  0.53305976  0.59295178  1  0.408288  0  0.053668  0.077019  0  3.918262  0
C  C180  1  0.86410386  0.97803705  0.74337029  1  1.659019  0  0.186905  0.547851  0  4.289464  0
C  C181  1  0.75522681  0.57353977  0.42352150  1  1.681669  0  0.212763  0.584666  0  4.260156  0
C  C182  1  0.24278604  0.05413593  0.76818931  1  0.363136  0  0.046436  0.069026  0  3.947933  0
C  C183  1  0.16905523  0.05878485  0.77057199  1  0.014554  0  -0.060521  -0.122739  0  3.911475  0
C  C184  1  0.14193424  0.12280088  0.76212109  1  0.049921  0  0.033462  0.078012  0  3.86701  0
C  C185  1  0.19184530  0.18240260  0.75430482  1  0.012567  0  -0.04296  -0.12825  0  3.823299  0
C  C186  1  0.26626390  0.17588357  0.75389875  1  0.390292  0  0.119983  0.147641  0  3.991611  0
C  C187  1  0.05845004  0.12548087  0.75816049  1  1.653372  0  0.191419  0.543438  0  4.309633  0
C  C188  1  0.50193529  0.07293147  0.68190595  1  0.401133  0  0.050267  0.070443  0  3.935436  0
C  C189  1  0.57887562  0.07431621  0.68443109  1  0.049518  0  -0.061473  -0.120712  0  3.901762  0
C  C190  1  0.64957891  0.11784724  0.75167906  1  -0.018022  0  0.029201  0.067957  0  3.877934  0
C  C191  1  0.64028498  0.15940384  0.81423186  1  0.008428  0  -0.056563  -0.146973  0  3.864778  0
C  C192  1  0.56155761  0.15520625  0.80876310  1  0.384187  0  0.118016  0.149607  0  4.007515  0
C  C193  1  0.54436306  0.19474289  0.87062436  1  0.41923  0  0.114944  0.145805  0  4.014453  0
C  C194  1  0.60482967  0.24492206  0.94210201  1  0.008739  0  -0.06045  -0.154071  0  3.889218  0
C  C195  1  0.58213640  0.27833531  0.99794244  1  0.045247  0  0.028744  0.057199  0  3.871393  0
C  C196  1  0.49789902  0.26068499  0.97980675  1  0.007786  0  -0.053723  -0.113458  0  3.877439  0
C  C197  1  0.43991177  0.21120892  0.90718897  1  0.428782  0  0.052187  0.075201  0  3.91844  0
C  C198  1  0.73459232  0.12064840  0.75661037  1  1.668387  0  0.187536  0.548576  0  4.290411  0
C  C199  1  0.64973326  0.33158118  0.07645200  1  1.668228  0  0.212292  0.585257  0  4.258258  0
C  C200  1  0.78582910  0.47475045  0.73181642  1  0.400054  0  0.04735  0.070788  0  3.946761  0
C  C201  1  0.78808827  0.39864928  0.72947833  1  0.03291  0  -0.05976  -0.12276  0  3.912717  0
C  C202  1  0.86055660  0.37998060  0.73796736  1  -0.002706  0  0.033196  0.077539  0  3.868425  0
C  C203  1  0.92795514  0.43767268  0.74574333  1  0.020564  0  -0.04275  -0.127868  0  3.824047  0
C  C204  1  0.92187486  0.51249438  0.74613305  1  0.409851  0  0.119981  0.147575  0  3.993257  0
C  C205  1  0.86721940  0.30044014  0.74194277  1  1.663681  0  0.190305  0.543864  0  4.306957  0
C  C206  1  0.68000556  0.60909871  0.68187242  1  0.400252  0  0.050139  0.072918  0  3.936443  0
C  C207  1  0.60554236  0.61010111  0.68437126  1  0.017654  0  -0.060613  -0.121263  0  3.90133  0
C  C208  1  0.60199524  0.63367337  0.75162065  1  -0.021394  0  0.029263  0.070156  0  3.875261  0
C  C209  1  0.67375233  0.65457689  0.81417708  1  -0.013098  0  -0.056957  -0.148147  0  3.864746  0
C  C210  1  0.74702055  0.65338709  0.80871482  1  0.428874  0  0.117896  0.150453  0  4.006931  0
C  C211  1  0.82597443  0.67558054  0.87057567  1  0.423936  0  0.114428  0.14397  0  4.013608  0
C  C212  1  0.83692591  0.69670664  0.94205794  1  -0.038753  0  -0.059874  -0.151713  0  3.889517  0
C  C213  1  0.91543388  0.71918241  0.99786774  1  0.07581  0  0.027652  0.056523  0  3.870715  0
C  C214  1  0.98149680  0.71863059  0.97965945  1  -0.012275  0  -0.053458  -0.114318  0  3.879899  0
C  C215  1  0.96694018  0.69563163  0.90704965  1  0.408233  0  0.053636  0.076957  0  3.918419  0
C  C216  1  0.52196229  0.63589894  0.75662979  1  1.659247  0  0.187047  0.548126  0  4.28928  0
C  C217  1  0.92645758  0.74477421  0.07647777  1  1.681972  0  0.212801  0.584671  0  4.260227  0
C  C218  1  0.44586660  0.25721388  0.73181049  1  0.363081  0  0.046408  0.068881  0  3.94797  0
C  C219  1  0.44121878  0.33094754  0.72942905  1  0.014487  0  -0.060509  -0.122617  0  3.911493  0
C  C220  1  0.37720057  0.35806660  0.73787795  1  0.049905  0  0.033539  0.078063  0  3.86698  0
C  C221  1  0.31760071  0.30815804  0.74569777  1  0.012618  0  -0.043003  -0.128308  0  3.823049  0
C  C222  1  0.32411807  0.23373777  0.74610105  1  0.453191  0  0.120051  0.147773  0  3.991485  0
C  C223  1  0.37451969  0.44155008  0.74183813  1  1.653355  0  0.191291  0.543251  0  4.309927  0
N  N224  1  0.61210649  0.99313179  0.24291026  1  -1.181212  0  -0.331356  -0.212711  0  3.650278  0
N  N225  1  0.67821333  0.96236413  0.35347608  1  -1.18287  0  -0.330201  -0.215546  0  3.645722  0
N  N226  1  0.03073435  0.35135274  0.24014077  1  -1.17199  0  -0.33262  -0.212255  0  3.662594  0
N  N227  1  0.13086071  0.24972082  0.24288096  1  -1.170533  0  -0.331349  -0.212752  0  3.651667  0
N  N228  1  0.17505209  0.39083535  0.35340420  1  -1.183119  0  -0.330696  -0.214244  0  3.645852  0
N  N229  1  0.70951787  0.88866449  0.24013309  1  -1.167532  0  -0.331984  -0.211502  0  3.662237  0
N  N230  1  0.50686969  0.88789473  0.25709305  1  -1.181536  0  -0.331349  -0.21296  0  3.65156  0
N  N231  1  0.53763617  0.82178499  0.14652394  1  -1.182903  0  -0.330174  -0.215164  0  3.644756  0
N  N232  1  0.14864726  0.46926713  0.25986097  1  -1.17196  0  -0.33262  -0.212252  0  3.662467  0
N  N233  1  0.25027928  0.36914018  0.25711995  1  -1.170601  0  -0.331392  -0.212796  0  3.651679  0
N  N234  1  0.10916549  0.32494917  0.14659540  1  -1.183084  0  -0.330644  -0.214147  0  3.645892  0
N  N235  1  0.61133517  0.79048265  0.25986859  1  -1.167651  0  -0.331972  -0.211483  0  3.662358  0
N  N236  1  0.38789450  0.00686988  0.75709119  1  -1.181531  0  -0.331363  -0.212722  0  3.650283  0
N  N237  1  0.32178693  0.03763559  0.64652279  1  -1.182935  0  -0.330209  -0.215635  0  3.6458  0
N  N238  1  0.96926809  0.64864614  0.75986275  1  -1.172483  0  -0.332681  -0.21221  0  3.662452  0
N  N239  1  0.86914070  0.75027773  0.75711906  1  -1.170584  0  -0.331359  -0.212746  0  3.651728  0
N  N240  1  0.82495025  0.60916598  0.64659428  1  -1.18312  0  -0.33065  -0.21452  0  3.645712  0
N  N241  1  0.29048222  0.11133705  0.75986685  1  -1.167542  0  -0.332013  -0.211607  0  3.662248  0
N  N242  1  0.49313049  0.11210590  0.74290635  1  -1.181518  0  -0.331384  -0.213027  0  3.651698  0
N  N243  1  0.46236360  0.17821209  0.85347383  1  -1.182928  0  -0.330133  -0.215081  0  3.644755  0
N  N244  1  0.85135415  0.53073282  0.74014029  1  -1.172488  0  -0.332633  -0.212238  0  3.662394  0
N  N245  1  0.74971860  0.63085955  0.74287839  1  -1.170546  0  -0.331391  -0.212798  0  3.651719  0
N  N246  1  0.89083445  0.67505170  0.85340625  1  -1.183157  0  -0.330637  -0.214528  0  3.645693  0
N  N247  1  0.38866460  0.20951863  0.74013288  1  -1.167532  0  -0.332038  -0.211625  0  3.662288  0
O  O248  1  0.57364792  0.23647007  0.19877844  1  -1.165049  0  -0.355132  -0.58028  0  2.152141  0
O  O249  1  0.67033547  0.29615751  0.31712641  1  -1.165449  0  -0.347385  -0.579289  0  2.114465  0
O  O250  1  0.84612750  0.22256470  0.58508691  1  -1.132146  0  -0.335381  -0.549337  0  2.032815  0
O  O251  1  0.85353680  0.12130112  0.62333021  1  -1.193535  0  -0.393362  -0.611228  0  2.271048  0
O  O252  1  0.74356506  0.30083421  0.21964181  1  -1.166423  0  -0.340852  -0.584113  0  2.160441  0
O  O253  1  0.79871206  0.43982728  0.26968319  1  -1.157494  0  -0.350515  -0.567011  0  2.14643  0
O  O254  1  0.12520667  0.96232263  0.19882521  1  -1.165289  0  -0.355664  -0.58076  0  2.152322  0
O  O255  1  0.14671058  0.02086774  0.31716873  1  -1.155262  0  -0.346706  -0.578993  0  2.11399  0
O  O256  1  0.23901614  0.36236789  0.58529873  1  -1.145907  0  -0.33534  -0.548391  0  2.034897  0
O  O257  1  0.26986154  0.50177280  0.62325856  1  -1.19286  0  -0.393153  -0.611624  0  2.272968  0
O  O258  1  0.97620942  0.91878549  0.21967777  1  -1.164254  0  -0.341693  -0.584263  0  2.162641  0
O  O259  1  0.97093845  0.82950667  0.26946709  1  -1.155308  0  -0.350658  -0.566195  0  2.14683  0
O  O260  1  0.26352248  0.92633423  0.30121723  1  -1.164418  0  -0.355283  -0.580323  0  2.152277  0
O  O261  1  0.20384242  0.82966518  0.18286102  1  -1.165648  0  -0.34732  -0.579219  0  2.114268  0
O  O262  1  0.27742500  0.65386692  0.91491306  1  -1.132534  0  -0.335391  -0.549217  0  2.032926  0
O  O263  1  0.37869108  0.64646445  0.87667149  1  -1.193366  0  -0.393222  -0.611044  0  2.271077  0
O  O264  1  0.19916336  0.75643164  0.28035385  1  -1.167025  0  -0.340826  -0.584121  0  2.160545  0
O  O265  1  0.06016999  0.70128830  0.23031411  1  -1.157443  0  -0.350515  -0.567044  0  2.1464  0
O  O266  1  0.53767850  0.37479460  0.30117772  1  -1.165479  0  -0.355604  -0.580612  0  2.152468  0
O  O267  1  0.47913629  0.35329066  0.18283376  1  -1.155161  0  -0.34675  -0.578951  0  2.114042  0
O  O268  1  0.13763942  0.26098803  0.91470644  1  -1.145735  0  -0.335334  -0.548395  0  2.03472  0
O  O269  1  0.99823418  0.23014100  0.87673967  1  -1.19272  0  -0.393123  -0.611603  0  2.273096  0
O  O270  1  0.58121738  0.52379047  0.28032444  1  -1.16429  0  -0.341658  -0.584225  0  2.162706  0
O  O271  1  0.67049237  0.52905950  0.23053295  1  -1.15534  0  -0.350655  -0.56616  0  2.146923  0
O  O272  1  0.42634278  0.76352640  0.80121952  1  -1.164914  0  -0.355193  -0.580308  0  2.15215  0
O  O273  1  0.32966282  0.70384484  0.68286864  1  -1.165504  0  -0.347346  -0.579236  0  2.114451  0
O  O274  1  0.15386971  0.77742799  0.41491695  1  -1.132527  0  -0.335365  -0.54918  0  2.032971  0
O  O275  1  0.14646387  0.87869034  0.37667093  1  -1.19332  0  -0.393257  -0.611068  0  2.270916  0
O  O276  1  0.25643108  0.69916464  0.78035169  1  -1.166413  0  -0.340825  -0.584119  0  2.16065  0
O  O277  1  0.20128348  0.56017216  0.73031591  1  -1.157328  0  -0.350463  -0.567007  0  2.146307  0
O  O278  1  0.87479297  0.03767691  0.80117984  1  -1.16546  0  -0.355614  -0.580576  0  2.152372  0
O  O279  1  0.85329451  0.97913729  0.68283745  1  -1.155013  0  -0.346647  -0.578842  0  2.114008  0
O  O280  1  0.76098408  0.63763633  0.41470257  1  -1.145665  0  -0.335343  -0.548419  0  2.034724  0
O  O281  1  0.73013960  0.49823140  0.37673872  1  -1.192767  0  -0.393124  -0.611577  0  2.272972  0
O  O282  1  0.02379409  0.08121778  0.78032744  1  -1.163914  0  -0.341707  -0.584279  0  2.1627  0
O  O283  1  0.02906079  0.17048837  0.73053138  1  -1.155183  0  -0.350577  -0.566064  0  2.146916  0
O  O284  1  0.73647401  0.07365231  0.69878034  1  -1.165002  0  -0.35516  -0.580254  0  2.1521  0
O  O285  1  0.79615478  0.17033386  0.81713046  1  -1.165495  0  -0.347312  -0.579211  0  2.114428  0
O  O286  1  0.72257105  0.34613844  0.08508592  1  -1.132429  0  -0.335412  -0.549303  0  2.033038  0
O  O287  1  0.62130677  0.35353916  0.12332745  1  -1.19329  0  -0.393236  -0.611102  0  2.27114  0
O  O288  1  0.80083443  0.24356900  0.71964502  1  -1.166441  0  -0.340831  -0.584046  0  2.16061  0
O  O289  1  0.93982877  0.29871872  0.76968511  1  -1.157326  0  -0.350493  -0.56706  0  2.146238  0
O  O290  1  0.46232020  0.62520803  0.69882019  1  -1.165484  0  -0.355664  -0.580685  0  2.152347  0
O  O291  1  0.52086269  0.64671005  0.81716198  1  -1.155283  0  -0.346734  -0.578987  0  2.114067  0
O  O292  1  0.86236745  0.73902301  0.08530089  1  -1.145751  0  -0.335331  -0.548361  0  2.03489  0
O  O293  1  0.00176972  0.76986130  0.12326036  1  -1.192757  0  -0.393168  -0.611639  0  2.272933  0
O  O294  1  0.41878452  0.47620512  0.71967174  1  -1.163981  0  -0.341614  -0.584134  0  2.162747  0
O  O295  1  0.32951209  0.47093988  0.76946765  1  -1.15514  0  -0.350559  -0.566055  0  2.146967  0
