# generated using pymatgen
data_CdH13C17S3(NO)5
_symmetry_space_group_name_H-M   'P 1'
_cell_length_a   9.40721827
_cell_length_b   9.59274908
_cell_length_c   12.45035077
_cell_angle_alpha   69.30540811
_cell_angle_beta   71.79582540
_cell_angle_gamma   81.22102206
_symmetry_Int_Tables_number   1
_chemical_formula_structural   CdH13C17S3(NO)5
_chemical_formula_sum   'Cd2 H26 C34 S6 N10 O10'
_cell_volume   997.30690366
_cell_formula_units_Z   2
loop_
 _symmetry_equiv_pos_site_id
 _symmetry_equiv_pos_as_xyz
  1  'x, y, z'
loop_
 _atom_site_type_symbol
 _atom_site_label
 _atom_site_symmetry_multiplicity
 _atom_site_fract_x
 _atom_site_fract_y
 _atom_site_fract_z
 _atom_site_occupancy
 _atom_site_pbe_bader_spin_density
 _atom_site_pbe_cm5_charge
 _atom_site_pbe_ddec_charge
 _atom_site_pbe_ddec_spin_density
 _atom_site_pbe_ddec_sum_bond_order
 _atom_site_pbe_magmom
Cd  Cd0  1  0.84607726  0.36828941  0.61692657  1  0  0.780473  0.877934  0  2.112293  0
Cd  Cd1  1  0.15392318  0.63171052  0.38307539  1  0  0.780472  0.877936  0  2.112288  0
H  H2  1  0.87184815  0.56958512  0.78698725  1  0  0.100783  0.137855  0  1.035704  0
H  H3  1  0.12815040  0.43041033  0.21301963  1  0  0.100796  0.137906  0  1.035698  0
H  H4  1  0.81569362  0.75786809  0.72288064  1  0  0.116515  0.160995  0  0.960022  0
H  H5  1  0.18430151  0.24212843  0.27712680  1  0  0.116497  0.161013  0  0.959995  0
H  H6  1  0.23707892  0.87455833  0.59886966  1  0  0.30172  0.283617  0  0.999453  0
H  H7  1  0.76291889  0.12544603  0.40112692  1  0  0.301704  0.283556  0  0.999426  0
H  H8  1  0.55690241  0.12212723  0.01839763  1  0  0.112194  0.150938  0  0.965565  0
H  H9  1  0.44309925  0.87787162  0.98160593  1  0  0.112215  0.15095  0  0.965582  0
H  H10  1  0.42351998  0.16162508  0.93579414  1  0  0.108041  0.139247  0  0.994295  0
H  H11  1  0.57648371  0.83837715  0.06420800  1  0  0.108054  0.139253  0  0.994172  0
H  H12  1  0.09075801  0.10822154  0.56707333  1  0  0.119988  0.106702  0  0.987024  0
H  H13  1  0.90924854  0.89178741  0.43292304  1  0  0.119981  0.106671  0  0.987121  0
H  H14  1  0.96547005  0.29807015  0.83717987  1  0  0.104957  0.072895  0  1.061627  0
H  H15  1  0.03453140  0.70193204  0.16282283  1  0  0.104972  0.072932  0  1.06163  0
H  H16  1  0.14618856  0.12800021  0.94100751  1  0  0.103672  0.107717  0  1.010916  0
H  H17  1  0.85381528  0.87199754  0.05899020  1  0  0.103656  0.107687  0  1.010935  0
H  H18  1  0.30971275  0.94242745  0.84783508  1  0  0.105351  0.117013  0  1.039177  0
H  H19  1  0.69028443  0.05756907  0.15216381  1  0  0.105343  0.117015  0  1.039169  0
H  H20  1  0.61796319  0.60901495  0.69998284  1  0  0.117905  0.101296  0  1.022323  0
H  H21  1  0.38203475  0.39098717  0.30001432  1  0  0.117912  0.101291  0  1.022378  0
H  H22  1  0.73561284  0.51554254  0.38074476  1  0  0.112182  0.081263  0  1.057056  0
H  H23  1  0.26439050  0.48446413  0.61925303  1  0  0.112212  0.0813  0  1.057045  0
H  H24  1  0.55844441  0.71563544  0.30021768  1  0  0.105963  0.116291  0  1.047804  0
H  H25  1  0.44155904  0.28436900  0.69977989  1  0  0.105978  0.116288  0  1.04777  0
H  H26  1  0.40592464  0.86945978  0.42373531  1  0  0.116195  0.127013  0  0.982851  0
H  H27  1  0.59406886  0.13054227  0.57626378  1  0  0.116204  0.127025  0  0.982829  0
C  C28  1  0.91342735  0.68180863  0.73742160  1  0  -0.150629  -0.341829  0  3.891431  0
C  C29  1  0.08656887  0.31818678  0.26258185  1  0  -0.150637  -0.341913  0  3.891478  0
C  C30  1  0.12308667  0.61396619  0.85952463  1  0  0.104753  0.048487  0  4.115675  0
C  C31  1  0.87691512  0.38602930  0.14047661  1  0  0.104864  0.048763  0  4.115578  0
C  C32  1  0.30915190  0.44783673  0.94115255  1  0  0.112782  0.051934  0  4.12244  0
C  C33  1  0.69084983  0.55216100  0.05885131  1  0  0.112729  0.051909  0  4.122336  0
C  C34  1  0.50780921  0.21068686  0.95388954  1  0  -0.14481  -0.322119  0  3.874966  0
C  C35  1  0.49219229  0.78931421  0.04611265  1  0  -0.144854  -0.322098  0  3.874948  0
C  C36  1  0.63173438  0.27252155  0.83790576  1  0  0.186995  0.61466  0  4.192606  0
C  C37  1  0.36826717  0.72747840  0.16209593  1  0  0.186892  0.614431  0  4.192922  0
C  C38  1  0.10731901  0.11037777  0.64943054  1  0  0.045391  -0.002972  0  3.90969  0
C  C39  1  0.89268761  0.88963007  0.35056612  1  0  0.045307  -0.003059  0  3.90964  0
C  C40  1  0.03671715  0.21486427  0.80151722  1  0  0.036072  0.076307  0  3.945281  0
C  C41  1  0.96328315  0.78513678  0.19848206  1  0  0.036017  0.076207  0  3.945374  0
C  C42  1  0.13791049  0.11993396  0.85806565  1  0  -0.082446  -0.102137  0  3.99488  0
C  C43  1  0.86209010  0.88006262  0.14193478  1  0  -0.082404  -0.10205  0  3.994936  0
C  C44  1  0.22819723  0.01746510  0.80723887  1  0  -0.076247  -0.134378  0  3.930983  0
C  C45  1  0.77180318  0.98253370  0.19275940  1  0  -0.07623  -0.134392  0  3.931012  0
C  C46  1  0.21312387  0.01195146  0.70017109  1  0  0.098953  0.194231  0  4.064318  0
C  C47  1  0.78687616  0.98805292  0.29982414  1  0  0.099015  0.194319  0  4.064214  0
C  C48  1  0.43140932  0.84529967  0.65120012  1  0  0.238916  0.482913  0  4.124597  0
C  C49  1  0.56859103  0.15470139  0.34880076  1  0  0.239001  0.483019  0  4.124424  0
C  C50  1  0.50130222  0.75196833  0.57251580  1  0  -0.012011  -0.076064  0  3.973911  0
C  C51  1  0.49869562  0.24803490  0.42747947  1  0  -0.011994  -0.076054  0  3.973942  0
C  C52  1  0.60205294  0.63612030  0.61166044  1  0  0.052097  0.076525  0  3.896403  0
C  C53  1  0.39794838  0.36388187  0.38833668  1  0  0.052128  0.076584  0  3.896595  0
C  C54  1  0.66629030  0.58272086  0.43429297  1  0  0.043644  0.092693  0  3.913039  0
C  C55  1  0.33370662  0.41728013  0.56570556  1  0  0.043649  0.092631  0  3.912932  0
C  C56  1  0.56755927  0.69504634  0.38942403  1  0  -0.082606  -0.114125  0  3.950925  0
C  C57  1  0.43243667  0.30495240  0.61057537  1  0  -0.082575  -0.114026  0  3.950757  0
C  C58  1  0.48192013  0.78004263  0.45960774  1  0  -0.05833  -0.039928  0  3.894242  0
C  C59  1  0.51807794  0.21995726  0.54038921  1  0  -0.058348  -0.03999  0  3.894082  0
C  C60  1  0.01956462  0.68503330  0.61577602  1  0  0.203034  0.638346  0  4.174703  0
C  C61  1  0.98042724  0.31495981  0.38422754  1  0  0.203068  0.638318  0  4.174693  0
S  S62  1  0.98080943  0.74747612  0.83046729  1  0  0.039528  0.069651  0  2.830804  0
S  S63  1  0.01919339  0.25252049  0.16953259  1  0  0.039517  0.069603  0  2.8308  0
S  S64  1  0.20657094  0.60622790  0.96853808  1  0  0.106093  0.107744  0  2.859765  0
S  S65  1  0.79342951  0.39377092  0.03146178  1  0  0.106101  0.1077  0  2.859748  0
S  S66  1  0.42020926  0.34188866  0.03189668  1  0  0.053604  0.084568  0  2.918848  0
S  S67  1  0.57979330  0.65811355  0.96810574  1  0  0.053621  0.084555  0  2.918862  0
N  N68  1  0.02226221  0.20906060  0.69899316  1  0  -0.329977  -0.21604  0  3.555895  0
N  N69  1  0.97774228  0.79094497  0.30100305  1  0  -0.329937  -0.215996  0  3.555827  0
N  N70  1  0.68119850  0.55254642  0.54465210  1  0  -0.333171  -0.23568  0  3.541794  0
N  N71  1  0.31880259  0.44745910  0.45534335  1  0  -0.333275  -0.235775  0  3.541791  0
N  N72  1  0.29439004  0.91196076  0.64165721  1  0  -0.398069  -0.398528  0  3.607984  0
N  N73  1  0.70560804  0.08803913  0.35834053  1  0  -0.398059  -0.398419  0  3.607948  0
N  N74  1  0.17551948  0.51074798  0.80834422  1  0  -0.22116  -0.189174  0  3.325635  0
N  N75  1  0.82448583  0.48924533  0.19165755  1  0  -0.221181  -0.189337  0  3.325886  0
N  N76  1  0.28196298  0.41576361  0.85527794  1  0  -0.22072  -0.192865  0  3.319263  0
N  N77  1  0.71804319  0.58423418  0.14472319  1  0  -0.220762  -0.192878  0  3.31927  0
O  O78  1  0.70020515  0.38579087  0.82165820  1  0  -0.334463  -0.584952  0  2.234363  0
O  O79  1  0.29979639  0.61420908  0.17834268  1  0  -0.334432  -0.58486  0  2.234369  0
O  O80  1  0.66026694  0.20180518  0.76364478  1  0  -0.334499  -0.546715  0  2.137889  0
O  O81  1  0.33973346  0.79819588  0.23635850  1  0  -0.334406  -0.546597  0  2.13812  0
O  O82  1  0.99407189  0.58760940  0.57555869  1  0  -0.331745  -0.566347  0  2.331367  0
O  O83  1  0.00592086  0.41238707  0.42444292  1  0  -0.331771  -0.566349  0  2.331182  0
O  O84  1  0.11758677  0.78024039  0.55668891  1  0  -0.322564  -0.567155  0  2.154545  0
O  O85  1  0.88240234  0.21976049  0.44331239  1  0  -0.322559  -0.567089  0  2.154631  0
O  O86  1  0.49916247  0.86248969  0.71643999  1  0  -0.294378  -0.487828  0  2.13232  0
O  O87  1  0.50083470  0.13750571  0.28355600  1  0  -0.294457  -0.487977  0  2.132057  0
