# generated using pymatgen
data_CdH8C7N4O3
_symmetry_space_group_name_H-M   'P 1'
_cell_length_a   6.51296256
_cell_length_b   7.10099580
_cell_length_c   20.07616136
_cell_angle_alpha   89.99962540
_cell_angle_beta   90.00088750
_cell_angle_gamma   97.43791335
_symmetry_Int_Tables_number   1
_chemical_formula_structural   CdH8C7N4O3
_chemical_formula_sum   'Cd4 H32 C28 N16 O12'
_cell_volume   920.68014725
_cell_formula_units_Z   4
loop_
 _symmetry_equiv_pos_site_id
 _symmetry_equiv_pos_as_xyz
  1  'x, y, z'
loop_
 _atom_site_type_symbol
 _atom_site_label
 _atom_site_symmetry_multiplicity
 _atom_site_fract_x
 _atom_site_fract_y
 _atom_site_fract_z
 _atom_site_occupancy
 _atom_site_hle17_bader_spin_density
 _atom_site_hle17_ddec_charge
 _atom_site_hle17_ddec_spin_density
 _atom_site_hle17_ddec_sum_bond_order
 _atom_site_hle17_magmom
 _atom_site_hse06_10hf_bader_spin_density
 _atom_site_hse06_10hf_ddec_charge
 _atom_site_hse06_10hf_ddec_spin_density
 _atom_site_hse06_10hf_ddec_sum_bond_order
 _atom_site_hse06_10hf_magmom
 _atom_site_hse06_bader_spin_density
 _atom_site_hse06_ddec_charge
 _atom_site_hse06_ddec_spin_density
 _atom_site_hse06_ddec_sum_bond_order
 _atom_site_hse06_magmom
 _atom_site_pbe_bader_spin_density
 _atom_site_pbe_cm5_charge
 _atom_site_pbe_ddec_charge
 _atom_site_pbe_ddec_spin_density
 _atom_site_pbe_ddec_sum_bond_order
 _atom_site_pbe_magmom
Cd  Cd0  1  0.78087584  0.29810247  0.02849959  1  0  1.164033  0  1.672771  0  0  0.990515  0  2.117444  0  0  1.041639  0  2.06842  0  0  0.795823  0.95486  0  2.150684  0
Cd  Cd1  1  0.28084436  0.79811014  0.47149927  1  0  1.163939  0  1.673072  0  0  0.990374  0  2.117784  0  0  1.041499  0  2.068758  0  0  0.795799  0.954727  0  2.151038  0
Cd  Cd2  1  0.21915283  0.70188816  0.97149870  1  0  1.163992  0  1.672911  0  0  0.990453  0  2.117593  0  0  1.041578  0  2.068566  0  0  0.795822  0.954801  0  2.150839  0
Cd  Cd3  1  0.71911911  0.20189743  0.52850001  1  0  1.16397  0  1.672903  0  0  0.990443  0  2.117592  0  0  1.041561  0  2.068572  0  0  0.795811  0.95479  0  2.150835  0
H  H4  1  0.94458551  0.95583387  0.07788567  1  0  0.432766  0  0.866427  0  0  0.399318  0  0.932883  0  0  0.410568  0  0.916666  0  0  0.291092  0.391316  0  0.944418  0
H  H5  1  0.44456711  0.45584656  0.42211465  1  0  0.432771  0  0.866448  0  0  0.399346  0  0.932849  0  0  0.410598  0  0.91663  0  0  0.291085  0.391347  0  0.944379  0
H  H6  1  0.05543989  0.04415533  0.92211212  1  0  0.432863  0  0.866289  0  0  0.399431  0  0.932708  0  0  0.410682  0  0.916489  0  0  0.291129  0.391426  0  0.944251  0
H  H7  1  0.55541251  0.54416671  0.57788464  1  0  0.432796  0  0.8664  0  0  0.399333  0  0.932882  0  0  0.410586  0  0.916659  0  0  0.291083  0.391327  0  0.944425  0
H  H8  1  0.47537831  0.48480701  0.19801259  1  0  0.103022  0  0.95958  0  0  0.113259  0  1.020554  0  0  0.115991  0  1.020184  0  0  0.102233  0.111208  0  1.021153  0
H  H9  1  0.97536350  0.98480982  0.30198334  1  0  0.10288  0  0.959406  0  0  0.113124  0  1.020403  0  0  0.115863  0  1.020026  0  0  0.102165  0.111076  0  1.020996  0
H  H10  1  0.52462821  0.51521198  0.80198272  1  0  0.103112  0  0.959752  0  0  0.113347  0  1.020729  0  0  0.116077  0  1.020362  0  0  0.10231  0.111299  0  1.021318  0
H  H11  1  0.02462503  0.01517933  0.69800798  1  0  0.102846  0  0.959378  0  0  0.11307  0  1.020383  0  0  0.115829  0  1.019984  0  0  0.102206  0.111016  0  1.020979  0
H  H12  1  0.12659802  0.44148468  0.18290678  1  0  0.104326  0  0.949664  0  0  0.115643  0  1.007622  0  0  0.118351  0  1.007478  0  0  0.101999  0.113666  0  1.008033  0
H  H13  1  0.62658168  0.94150433  0.31709197  1  0  0.104463  0  0.94998  0  0  0.11579  0  1.007896  0  0  0.118497  0  1.007755  0  0  0.102038  0.113803  0  1.008329  0
H  H14  1  0.87341331  0.55849172  0.81709549  1  0  0.104363  0  0.949827  0  0  0.1157  0  1.007754  0  0  0.118414  0  1.007595  0  0  0.102019  0.11371  0  1.008187  0
H  H15  1  0.37340760  0.05852316  0.68291180  1  0  0.104468  0  0.949876  0  0  0.115728  0  1.007884  0  0  0.118442  0  1.007725  0  0  0.102026  0.113745  0  1.008306  0
H  H16  1  0.93192955  0.61284580  0.10183434  1  0  0.307309  0  0.939191  0  0  0.289686  0  1.006224  0  0  0.296303  0  1.002132  0  0  0.290018  0.285029  0  1.009033  0
H  H17  1  0.43191347  0.11285029  0.39816572  1  0  0.307405  0  0.939144  0  0  0.289836  0  1.006122  0  0  0.296444  0  1.002039  0  0  0.29005  0.285178  0  1.008949  0
H  H18  1  0.06808872  0.38713629  0.89816694  1  0  0.307386  0  0.939048  0  0  0.289827  0  1.006021  0  0  0.296441  0  1.001927  0  0  0.290063  0.285168  0  1.008847  0
H  H19  1  0.56805768  0.88715729  0.60183407  1  0  0.307311  0  0.939127  0  0  0.289661  0  1.006194  0  0  0.296275  0  1.002113  0  0  0.289994  0.285005  0  1.009009  0
H  H20  1  0.67339956  0.60053928  0.10588229  1  0  0.316421  0  0.927186  0  0  0.298545  0  0.993457  0  0  0.305443  0  0.988788  0  0  0.292281  0.293648  0  0.996759  0
H  H21  1  0.17337428  0.10054522  0.39411450  1  0  0.316454  0  0.927007  0  0  0.298601  0  0.993271  0  0  0.305503  0  0.988592  0  0  0.292219  0.293702  0  0.996572  0
H  H22  1  0.32662702  0.39945845  0.89411501  1  0  0.316476  0  0.927131  0  0  0.29862  0  0.993393  0  0  0.305522  0  0.988714  0  0  0.292265  0.293721  0  0.996701  0
H  H23  1  0.82659053  0.89946093  0.60588179  1  0  0.316371  0  0.927075  0  0  0.298493  0  0.993392  0  0  0.305396  0  0.988712  0  0  0.29224  0.293592  0  0.996699  0
H  H24  1  0.13430399  0.35938328  0.30275003  1  0  0.089335  0  0.967473  0  0  0.100718  0  1.029255  0  0  0.10342  0  1.02711  0  0  0.102633  0.09868  0  1.030961  0
H  H25  1  0.63430835  0.85938322  0.19725294  1  0  0.089272  0  0.96746  0  0  0.100663  0  1.029238  0  0  0.103366  0  1.027093  0  0  0.102615  0.09861  0  1.030952  0
H  H26  1  0.86568396  0.64060160  0.69725424  1  0  0.089309  0  0.9675  0  0  0.100707  0  1.029277  0  0  0.103409  0  1.027132  0  0  0.102604  0.098672  0  1.030974  0
H  H27  1  0.36570332  0.14062868  0.80275232  1  0  0.089286  0  0.967484  0  0  0.100651  0  1.02929  0  0  0.103352  0  1.027146  0  0  0.102623  0.098609  0  1.030993  0
H  H28  1  0.48321673  0.40546186  0.31759084  1  0  0.090024  0  0.979557  0  0  0.100208  0  1.043263  0  0  0.103392  0  1.040369  0  0  0.100758  0.09781  0  1.045552  0
H  H29  1  0.98322324  0.90544921  0.18240680  1  0  0.090103  0  0.979713  0  0  0.100271  0  1.043423  0  0  0.103455  0  1.040527  0  0  0.100768  0.097877  0  1.045703  0
H  H30  1  0.51677696  0.59456422  0.68240696  1  0  0.089939  0  0.979636  0  0  0.100105  0  1.043389  0  0  0.103291  0  1.040491  0  0  0.100699  0.09771  0  1.045675  0
H  H31  1  0.01678368  0.09452861  0.81758750  1  0  0.090213  0  0.979629  0  0  0.100415  0  1.043297  0  0  0.103605  0  1.040388  0  0  0.100815  0.098015  0  1.045588  0
H  H32  1  0.69549572  0.93106449  0.08285764  1  0  0.425666  0  0.878934  0  0  0.394537  0  0.94355  0  0  0.404892  0  0.928612  0  0  0.290674  0.387201  0  0.954125  0
H  H33  1  0.19547377  0.43106447  0.41714647  1  0  0.425644  0  0.878905  0  0  0.394496  0  0.943575  0  0  0.404853  0  0.928635  0  0  0.290673  0.38716  0  0.95415  0
H  H34  1  0.30452988  0.06892613  0.91714613  1  0  0.425729  0  0.878835  0  0  0.394604  0  0.943454  0  0  0.404958  0  0.928518  0  0  0.290761  0.387268  0  0.954031  0
H  H35  1  0.80450233  0.56893460  0.58285581  1  0  0.425663  0  0.878952  0  0  0.394556  0  0.943524  0  0  0.404909  0  0.92859  0  0  0.290685  0.387225  0  0.954094  0
C  C36  1  0.80929343  0.37506888  0.31884641  1  0  -0.115524  0  3.798257  0  0  -0.097816  0  4.046551  0  0  -0.110281  0  4.071421  0  0  -0.035751  -0.089741  0  4.029686  0
C  C37  1  0.30931342  0.87506052  0.18116188  1  0  -0.115337  0  3.798448  0  0  -0.09759  0  4.046657  0  0  -0.110043  0  4.071527  0  0  -0.035795  -0.089507  0  4.029772  0
C  C38  1  0.19070630  0.62493448  0.68115437  1  0  -0.115419  0  3.798295  0  0  -0.097645  0  4.04645  0  0  -0.110108  0  4.071322  0  0  -0.035742  -0.089564  0  4.029576  0
C  C39  1  0.69068820  0.12493433  0.81884388  1  0  -0.115557  0  3.798572  0  0  -0.09778  0  4.046755  0  0  -0.110238  0  4.071628  0  0  -0.035866  -0.089708  0  4.029886  0
C  C40  1  0.80122019  0.47236856  0.18315650  1  0  0.313313  0  3.785068  0  0  0.309108  0  4.028016  0  0  0.319838  0  4.049005  0  0  0.097212  0.301911  0  4.013555  0
C  C41  1  0.30116318  0.97237819  0.31684456  1  0  0.313491  0  3.785306  0  0  0.309139  0  4.028503  0  0  0.319862  0  4.049502  0  0  0.097286  0.301938  0  4.014051  0
C  C42  1  0.19880887  0.52762491  0.81684678  1  0  0.31345  0  3.784889  0  0  0.309187  0  4.027988  0  0  0.319916  0  4.048981  0  0  0.097362  0.301982  0  4.013536  0
C  C43  1  0.69880777  0.02762797  0.68315573  1  0  0.31351  0  3.784816  0  0  0.309012  0  4.028194  0  0  0.319737  0  4.049194  0  0  0.097289  0.301815  0  4.01373  0
C  C44  1  0.61917942  0.45623561  0.22120616  1  0  -0.175097  0  3.725655  0  0  -0.190119  0  3.973771  0  0  -0.198317  0  3.995672  0  0  -0.096469  -0.184705  0  3.959048  0
C  C45  1  0.11921375  0.95624161  0.27880049  1  0  -0.17531  0  3.725656  0  0  -0.190292  0  3.973874  0  0  -0.198504  0  3.995782  0  0  -0.096587  -0.184873  0  3.959145  0
C  C46  1  0.38082705  0.54377203  0.77879462  1  0  -0.175359  0  3.725653  0  0  -0.190383  0  3.973841  0  0  -0.198589  0  3.995754  0  0  -0.0966  -0.184966  0  3.959105  0
C  C47  1  0.88077444  0.04375605  0.72119680  1  0  -0.175123  0  3.725499  0  0  -0.190024  0  3.973747  0  0  -0.198249  0  3.995648  0  0  -0.096597  -0.184606  0  3.959017  0
C  C48  1  0.98606714  0.43302506  0.21283300  1  0  -0.17352  0  3.712546  0  0  -0.18776  0  3.958946  0  0  -0.196164  0  3.981074  0  0  -0.096676  -0.182291  0  3.944107  0
C  C49  1  0.48609552  0.93302953  0.28717007  1  0  -0.173443  0  3.711099  0  0  -0.18767  0  3.95756  0  0  -0.196065  0  3.979682  0  0  -0.096529  -0.182205  0  3.942724  0
C  C50  1  0.01391892  0.56696834  0.78716778  1  0  -0.1734  0  3.712031  0  0  -0.187657  0  3.958476  0  0  -0.196058  0  3.980607  0  0  -0.096623  -0.182185  0  3.943629  0
C  C51  1  0.51390407  0.06698378  0.71283270  1  0  -0.173604  0  3.711309  0  0  -0.187749  0  3.957838  0  0  -0.196144  0  3.979958  0  0  -0.096604  -0.182286  0  3.942999  0
C  C52  1  0.98963603  0.38613594  0.27981399  1  0  -0.031608  0  3.746236  0  0  -0.055642  0  3.9931  0  0  -0.051662  0  4.013042  0  0  -0.079553  -0.057882  0  3.97945  0
C  C53  1  0.48961847  0.88613127  0.22018223  1  0  -0.031697  0  3.746764  0  0  -0.05572  0  3.993608  0  0  -0.051751  0  4.013561  0  0  -0.07961  -0.057934  0  3.979935  0
C  C54  1  0.01035791  0.61385890  0.72018978  1  0  -0.031718  0  3.74629  0  0  -0.055783  0  3.993164  0  0  -0.051808  0  4.013113  0  0  -0.079561  -0.05802  0  3.979498  0
C  C55  1  0.51038012  0.11387493  0.77981905  1  0  -0.031498  0  3.746628  0  0  -0.055494  0  3.993415  0  0  -0.051523  0  4.013365  0  0  -0.079561  -0.057726  0  3.979747  0
C  C56  1  0.62415371  0.41048448  0.28822302  1  0  -0.033333  0  3.748525  0  0  -0.058387  0  3.996254  0  0  -0.054628  0  4.016204  0  0  -0.083034  -0.060488  0  3.982611  0
C  C57  1  0.12414533  0.91047142  0.21176483  1  0  -0.033351  0  3.747492  0  0  -0.058412  0  3.99518  0  0  -0.054649  0  4.015115  0  0  -0.082956  -0.060515  0  3.981536  0
C  C58  1  0.37584146  0.58953023  0.71177178  1  0  -0.033177  0  3.748224  0  0  -0.058248  0  3.995926  0  0  -0.054484  0  4.015869  0  0  -0.082984  -0.060343  0  3.982272  0
C  C59  1  0.87586258  0.08951350  0.78822798  1  0  -0.033444  0  3.747417  0  0  -0.058552  0  3.995091  0  0  -0.054793  0  4.015039  0  0  -0.082957  -0.060653  0  3.981454  0
C  C60  1  0.81352724  0.32128563  0.39006976  1  0  0.658882  0  3.88656  0  0  0.599432  0  4.190669  0  0  0.635092  0  4.182656  0  0  0.206688  0.575234  0  4.195348  0
C  C61  1  0.31351363  0.82128098  0.10992971  1  0  0.65872  0  3.88571  0  0  0.599305  0  4.18975  0  0  0.634956  0  4.181747  0  0  0.206675  0.575096  0  4.194422  0
C  C62  1  0.18645119  0.67871912  0.60993451  1  0  0.658369  0  3.88658  0  0  0.598962  0  4.190601  0  0  0.634615  0  4.182603  0  0  0.206433  0.574757  0  4.195267  0
C  C63  1  0.68649948  0.17870821  0.89006808  1  0  0.658666  0  3.886183  0  0  0.599228  0  4.190262  0  0  0.634879  0  4.182261  0  0  0.206641  0.575032  0  4.19494  0
N  N64  1  0.69879316  0.68643598  0.94913260  1  0  0.435546  0  4.22217  0  0  0.467113  0  4.495712  0  0  0.485743  0  4.523895  0  0  0.091678  0.454602  0  4.477083  0
N  N65  1  0.19877609  0.18644214  0.55086356  1  0  0.435154  0  4.222769  0  0  0.466927  0  4.495996  0  0  0.485553  0  4.524183  0  0  0.091825  0.454421  0  4.477355  0
N  N66  1  0.30122535  0.31355889  0.05086619  1  0  0.435534  0  4.222926  0  0  0.467289  0  4.496179  0  0  0.485917  0  4.524362  0  0  0.091916  0.454778  0  4.477547  0
N  N67  1  0.80120214  0.81356120  0.44913573  1  0  0.435555  0  4.221825  0  0  0.467119  0  4.495371  0  0  0.485746  0  4.523556  0  0  0.091652  0.454611  0  4.476737  0
N  N68  1  0.83891321  0.60957941  0.96908058  1  0  -0.575889  0  2.668559  0  0  -0.539345  0  2.958576  0  0  -0.561518  0  2.963958  0  0  -0.290003  -0.52458  0  2.955187  0
N  N69  1  0.33887952  0.10959432  0.53091696  1  0  -0.575636  0  2.669459  0  0  -0.539145  0  2.959314  0  0  -0.561298  0  2.964692  0  0  -0.289965  -0.524395  0  2.95593  0
N  N70  1  0.16111947  0.39040696  0.03091971  1  0  -0.575844  0  2.669409  0  0  -0.539356  0  2.959263  0  0  -0.561518  0  2.964641  0  0  -0.290018  -0.524595  0  2.955877  0
N  N71  1  0.66108281  0.89041609  0.46908283  1  0  -0.575853  0  2.668491  0  0  -0.539294  0  2.958503  0  0  -0.561458  0  2.963883  0  0  -0.289937  -0.524533  0  2.955116  0
N  N72  1  0.79812134  0.52966631  0.11607686  1  0  -0.691256  0  3.180309  0  0  -0.636157  0  3.419218  0  0  -0.660478  0  3.4194  0  0  -0.609505  -0.61884  0  3.418343  0
N  N73  1  0.29811818  0.02965822  0.38391723  1  0  -0.691494  0  3.180719  0  0  -0.636461  0  3.419654  0  0  -0.66077  0  3.41985  0  0  -0.609572  -0.619148  0  3.418801  0
N  N74  1  0.20190277  0.47033567  0.88391894  1  0  -0.691449  0  3.180709  0  0  -0.636395  0  3.419509  0  0  -0.660711  0  3.419697  0  0  -0.609617  -0.619081  0  3.418658  0
N  N75  1  0.70186253  0.97034085  0.61607906  1  0  -0.69129  0  3.180268  0  0  -0.636102  0  3.419326  0  0  -0.660426  0  3.419518  0  0  -0.609487  -0.618784  0  3.418456  0
N  N76  1  0.56095077  0.76149121  0.92864717  1  0  -0.457757  0  2.564508  0  0  -0.438287  0  2.832227  0  0  -0.452775  0  2.838452  0  0  -0.239044  -0.428641  0  2.828397  0
N  N77  1  0.06091051  0.26151126  0.57135310  1  0  -0.457661  0  2.564117  0  0  -0.438325  0  2.831805  0  0  -0.45282  0  2.838032  0  0  -0.239297  -0.428667  0  2.827971  0
N  N78  1  0.43907597  0.23849658  0.07135311  1  0  -0.45783  0  2.564333  0  0  -0.438501  0  2.832042  0  0  -0.452997  0  2.838266  0  0  -0.239297  -0.428847  0  2.828217  0
N  N79  1  0.93905202  0.73850057  0.42864968  1  0  -0.457783  0  2.564276  0  0  -0.438309  0  2.832008  0  0  -0.4528  0  2.838237  0  0  -0.239077  -0.428662  0  2.82818  0
O  O80  1  0.82283423  0.02528420  0.08410377  1  0  -0.836996  0  1.867235  0  0  -0.771197  0  2.067581  0  0  -0.793944  0  2.034071  0  0  -0.590871  -0.755185  0  2.090888  0
O  O81  1  0.32281863  0.52529261  0.41589843  1  0  -0.836957  0  1.867253  0  0  -0.771149  0  2.067578  0  0  -0.793892  0  2.034055  0  0  -0.590861  -0.755133  0  2.09088  0
O  O82  1  0.17720578  0.97471070  0.91589751  1  0  -0.837172  0  1.86718  0  0  -0.771365  0  2.067508  0  0  -0.794108  0  2.03398  0  0  -0.591009  -0.755354  0  2.090816  0
O  O83  1  0.67717194  0.47472210  0.58410235  1  0  -0.837009  0  1.867264  0  0  -0.771212  0  2.067627  0  0  -0.793958  0  2.034114  0  0  -0.59085  -0.755198  0  2.090936  0
O  O84  1  0.97538882  0.27034315  0.41644928  1  0  -0.664872  0  2.029022  0  0  -0.602261  0  2.264201  0  0  -0.628743  0  2.25508  0  0  -0.320004  -0.583674  0  2.269779  0
O  O85  1  0.47541948  0.77033464  0.08355063  1  0  -0.664931  0  2.028122  0  0  -0.602303  0  2.263239  0  0  -0.628771  0  2.254093  0  0  -0.319996  -0.583708  0  2.268827  0
O  O86  1  0.02458654  0.72966160  0.58355300  1  0  -0.66449  0  2.028806  0  0  -0.601915  0  2.263971  0  0  -0.62836  0  2.254795  0  0  -0.319783  -0.583326  0  2.269556  0
O  O87  1  0.52461458  0.22966168  0.91645214  1  0  -0.664807  0  2.028188  0  0  -0.602249  0  2.263388  0  0  -0.628715  0  2.254242  0  0  -0.319988  -0.58366  0  2.268964  0
O  O88  1  0.64573485  0.31995353  0.42499086  1  0  -0.684766  0  2.106204  0  0  -0.601066  0  2.347297  0  0  -0.632128  0  2.337158  0  0  -0.322141  -0.579069  0  2.352973  0
O  O89  1  0.14575665  0.81993944  0.07501027  1  0  -0.684489  0  2.106565  0  0  -0.600837  0  2.347677  0  0  -0.631905  0  2.337571  0  0  -0.322079  -0.578898  0  2.353493  0
O  O90  1  0.35424725  0.68005549  0.57500743  1  0  -0.684682  0  2.106058  0  0  -0.600931  0  2.347023  0  0  -0.63203  0  2.336968  0  0  -0.322163  -0.578993  0  2.352844  0
O  O91  1  0.85427083  0.18004267  0.92498952  1  0  -0.684687  0  2.106498  0  0  -0.601004  0  2.347565  0  0  -0.63208  0  2.33747  0  0  -0.322112  -0.579004  0  2.353231  0
