# generated using pymatgen
data_HgH24C28I2N4O3
_symmetry_space_group_name_H-M   'P 1'
_cell_length_a   8.74700142
_cell_length_b   13.13001807
_cell_length_c   13.07649258
_cell_angle_alpha   95.78257567
_cell_angle_beta   99.74498869
_cell_angle_gamma   96.40313190
_symmetry_Int_Tables_number   1
_chemical_formula_structural   HgH24C28I2N4O3
_chemical_formula_sum   'Hg2 H48 C56 I4 N8 O6'
_cell_volume   1459.89593803
_cell_formula_units_Z   2
loop_
 _symmetry_equiv_pos_site_id
 _symmetry_equiv_pos_as_xyz
  1  'x, y, z'
loop_
 _atom_site_type_symbol
 _atom_site_label
 _atom_site_symmetry_multiplicity
 _atom_site_fract_x
 _atom_site_fract_y
 _atom_site_fract_z
 _atom_site_occupancy
 _atom_site_hle17_bader_spin_density
 _atom_site_hle17_ddec_charge
 _atom_site_hle17_ddec_spin_density
 _atom_site_hle17_ddec_sum_bond_order
 _atom_site_hle17_magmom
 _atom_site_hse06_10hf_bader_spin_density
 _atom_site_hse06_10hf_ddec_charge
 _atom_site_hse06_10hf_ddec_spin_density
 _atom_site_hse06_10hf_ddec_sum_bond_order
 _atom_site_hse06_10hf_magmom
 _atom_site_hse06_bader_spin_density
 _atom_site_hse06_ddec_charge
 _atom_site_hse06_ddec_spin_density
 _atom_site_hse06_ddec_sum_bond_order
 _atom_site_hse06_magmom
 _atom_site_pbe_bader_spin_density
 _atom_site_pbe_cm5_charge
 _atom_site_pbe_ddec_charge
 _atom_site_pbe_ddec_spin_density
 _atom_site_pbe_ddec_sum_bond_order
 _atom_site_pbe_magmom
Hg  Hg0  1  0.44624802  0.36869884  0.35802190  1  0  0.5558  0  2.177967  0  0  0.416069  0  2.677271  0  0  0.46001  0  2.651802  0  0  0.409445  0.3868  0  2.69391  0
Hg  Hg1  1  0.55375707  0.63130066  0.64197825  1  0  0.555773  0  2.178009  0  0  0.416033  0  2.677315  0  0  0.459977  0  2.651847  0  0  0.409444  0.386766  0  2.693953  0
H  H2  1  0.81358501  0.43211627  0.45003329  1  0  0.060223  0  0.981941  0  0  0.064997  0  1.056665  0  0  0.067787  0  1.053504  0  0  0.091534  0.06291  0  1.058963  0
H  H3  1  0.18642488  0.56788400  0.54996365  1  0  0.060226  0  0.981923  0  0  0.065017  0  1.056629  0  0  0.067805  0  1.053469  0  0  0.091511  0.062922  0  1.058932  0
H  H4  1  0.02996023  0.42288068  0.60028209  1  0  0.099632  0  0.983399  0  0  0.105228  0  1.054804  0  0  0.108946  0  1.052714  0  0  0.091123  0.102575  0  1.056442  0
H  H5  1  0.97004762  0.57712654  0.39971915  1  0  0.099699  0  0.983384  0  0  0.105247  0  1.054836  0  0  0.108964  0  1.052748  0  0  0.091155  0.102595  0  1.056472  0
H  H6  1  0.68853660  0.25818691  0.74672856  1  0  0.109224  0  0.947659  0  0  0.119704  0  1.008745  0  0  0.123214  0  1.007075  0  0  0.108319  0.117196  0  1.010069  0
H  H7  1  0.31147029  0.74181568  0.25326905  1  0  0.109295  0  0.947853  0  0  0.119774  0  1.008919  0  0  0.123286  0  1.007252  0  0  0.108343  0.117265  0  1.010247  0
H  H8  1  0.48425272  0.27798018  0.59220210  1  0  0.067891  0  0.952018  0  0  0.072902  0  1.024027  0  0  0.075447  0  1.021639  0  0  0.102653  0.071054  0  1.025734  0
H  H9  1  0.51575633  0.72202164  0.40779414  1  0  0.067812  0  0.952094  0  0  0.072846  0  1.024094  0  0  0.075393  0  1.021705  0  0  0.102599  0.070998  0  1.025802  0
H  H10  1  0.11744961  0.36134363  0.76533393  1  0  0.063961  0  0.973058  0  0  0.075718  0  1.042625  0  0  0.076835  0  1.041181  0  0  0.090236  0.074901  0  1.043711  0
H  H11  1  0.88255481  0.63865819  0.23466943  1  0  0.063915  0  0.97311  0  0  0.075723  0  1.042598  0  0  0.07684  0  1.041154  0  0  0.090281  0.074909  0  1.043683  0
H  H12  1  0.97942534  0.37724796  0.84850944  1  0  0.086687  0  0.918459  0  0  0.105007  0  0.97227  0  0  0.105094  0  0.972502  0  0  0.116748  0.104882  0  0.972168  0
H  H13  1  0.02057772  0.62275852  0.15148889  1  0  0.086709  0  0.918404  0  0  0.105041  0  0.972191  0  0  0.105128  0  0.972425  0  0  0.116785  0.104914  0  0.972096  0
H  H14  1  0.15458981  0.25630079  0.64560884  1  0  0.096252  0  0.997953  0  0  0.102712  0  1.07033  0  0  0.105968  0  1.068598  0  0  0.089425  0.10042  0  1.071626  0
H  H15  1  0.84540812  0.74370337  0.35439556  1  0  0.096315  0  0.997896  0  0  0.102794  0  1.070241  0  0  0.106051  0  1.068508  0  0  0.089413  0.100498  0  1.071543  0
H  H16  1  0.23293903  0.11680866  0.53675432  1  0  0.077303  0  0.968971  0  0  0.087365  0  1.036047  0  0  0.090537  0  1.033467  0  0  0.087973  0.085086  0  1.037883  0
H  H17  1  0.76705970  0.88319937  0.46324980  1  0  0.077358  0  0.969126  0  0  0.087398  0  1.03617  0  0  0.090575  0  1.033584  0  0  0.088003  0.085123  0  1.037998  0
H  H18  1  0.02780590  0.89325074  0.70919177  1  0  0.100186  0  0.970203  0  0  0.106816  0  1.039844  0  0  0.110661  0  1.03637  0  0  0.095074  0.104035  0  1.042361  0
H  H19  1  0.97218408  0.10675424  0.29080417  1  0  0.100187  0  0.970127  0  0  0.106766  0  1.039835  0  0  0.110615  0  1.036348  0  0  0.095077  0.103992  0  1.042351  0
H  H20  1  0.20464409  0.93079542  0.47273397  1  0  0.101053  0  0.953031  0  0  0.122088  0  1.014594  0  0  0.122976  0  1.015463  0  0  0.083986  0.121421  0  1.014  0
H  H21  1  0.79535221  0.06920644  0.52726465  1  0  0.101046  0  0.953006  0  0  0.122078  0  1.014577  0  0  0.122966  0  1.015445  0  0  0.083985  0.121411  0  1.013984  0
H  H22  1  0.09772298  0.83931574  0.53373269  1  0  0.105635  0  0.972515  0  0  0.125484  0  1.037056  0  0  0.126441  0  1.03784  0  0  0.078085  0.124728  0  1.036592  0
H  H23  1  0.90227480  0.16068766  0.46626703  1  0  0.105667  0  0.972427  0  0  0.125521  0  1.036975  0  0  0.126479  0  1.037759  0  0  0.078083  0.124761  0  1.036512  0
H  H24  1  0.29634811  0.88356332  0.58709697  1  0  0.099679  0  0.989594  0  0  0.117883  0  1.055664  0  0  0.118091  0  1.05817  0  0  0.080553  0.117675  0  1.053964  0
H  H25  1  0.70364667  0.11644240  0.41290341  1  0  0.099627  0  0.989672  0  0  0.117815  0  1.055759  0  0  0.118022  0  1.058264  0  0  0.080507  0.117607  0  1.054052  0
H  H26  1  0.88911403  0.73936935  0.85633726  1  0  0.101043  0  0.95511  0  0  0.110365  0  1.018774  0  0  0.114096  0  1.015472  0  0  0.098173  0.107643  0  1.021237  0
H  H27  1  0.11088395  0.26062941  0.14366354  1  0  0.101042  0  0.95507  0  0  0.110364  0  1.01874  0  0  0.114097  0  1.01544  0  0  0.098186  0.107652  0  1.02119  0
H  H28  1  0.62996211  0.54543461  0.03074031  1  0  0.086075  0  0.96805  0  0  0.097692  0  1.030977  0  0  0.100457  0  1.029116  0  0  0.089687  0.095723  0  1.032298  0
H  H29  1  0.37002828  0.45456109  0.96925319  1  0  0.086151  0  0.967927  0  0  0.097757  0  1.030874  0  0  0.100528  0  1.029  0  0  0.089713  0.095786  0  1.032197  0
H  H30  1  0.54010380  0.69702487  0.11552998  1  0  0.098875  0  0.977933  0  0  0.107999  0  1.043812  0  0  0.111399  0  1.042091  0  0  0.095139  0.105606  0  1.045111  0
H  H31  1  0.45988891  0.30297082  0.88446761  1  0  0.098876  0  0.977922  0  0  0.10803  0  1.043766  0  0  0.111442  0  1.042031  0  0  0.09515  0.105634  0  1.045061  0
H  H32  1  0.82896412  0.54424204  0.80472514  1  0  0.096074  0  0.980255  0  0  0.112399  0  1.053174  0  0  0.113239  0  1.054126  0  0  0.077634  0.111741  0  1.052546  0
H  H33  1  0.17104197  0.45575669  0.19527504  1  0  0.096065  0  0.980295  0  0  0.112403  0  1.0532  0  0  0.113246  0  1.054148  0  0  0.077643  0.111747  0  1.052572  0
H  H34  1  0.75104223  0.46710885  0.89276929  1  0  0.102988  0  0.950516  0  0  0.124045  0  1.011233  0  0  0.125665  0  1.010774  0  0  0.084497  0.122805  0  1.011649  0
H  H35  1  0.24896354  0.53288834  0.10723069  1  0  0.102979  0  0.95054  0  0  0.124038  0  1.011258  0  0  0.125657  0  1.010802  0  0  0.084507  0.122802  0  1.011677  0
H  H36  1  0.94601648  0.53202855  0.92612310  1  0  0.099705  0  0.952744  0  0  0.122595  0  1.011924  0  0  0.123778  0  1.011603  0  0  0.086945  0.121718  0  1.012157  0
H  H37  1  0.05398478  0.46797483  0.07388083  1  0  0.099687  0  0.952759  0  0  0.122585  0  1.011934  0  0  0.123768  0  1.011613  0  0  0.086939  0.121709  0  1.012169  0
H  H38  1  0.58349408  0.84632394  0.22062013  1  0  0.059719  0  0.940845  0  0  0.074063  0  1.007513  0  0  0.073674  0  1.008304  0  0  0.10188  0.074364  0  1.006954  0
H  H39  1  0.41650590  0.15367327  0.77938226  1  0  0.05975  0  0.940843  0  0  0.0741  0  1.007509  0  0  0.073708  0  1.008306  0  0  0.101888  0.074399  0  1.006949  0
H  H40  1  0.41025698  0.84934006  0.12493829  1  0  0.079741  0  0.917295  0  0  0.090868  0  0.983477  0  0  0.092145  0  0.980847  0  0  0.11043  0.089952  0  0.98541  0
H  H41  1  0.58974316  0.15065791  0.87506573  1  0  0.079761  0  0.917308  0  0  0.090897  0  0.983486  0  0  0.092175  0  0.980854  0  0  0.110457  0.089978  0  0.985415  0
H  H42  1  0.65987752  0.07384131  0.10595065  1  0  0.132533  0  0.957399  0  0  0.130016  0  1.033784  0  0  0.135515  0  1.029308  0  0  0.111059  0.126049  0  1.037132  0
H  H43  1  0.34012294  0.92615821  0.89405127  1  0  0.132519  0  0.957459  0  0  0.130009  0  1.03383  0  0  0.135501  0  1.029365  0  0  0.111063  0.126041  0  1.037182  0
H  H44  1  0.62630832  0.25108956  0.18681920  1  0  0.070895  0  0.942216  0  0  0.079369  0  1.005945  0  0  0.081921  0  1.003809  0  0  0.106327  0.077496  0  1.007513  0
H  H45  1  0.37368982  0.74890997  0.81318398  1  0  0.070894  0  0.942235  0  0  0.079385  0  1.005944  0  0  0.08194  0  1.003803  0  0  0.106326  0.077512  0  1.007517  0
H  H46  1  0.34403503  0.12807875  0.37997090  1  0  0.06165  0  0.961745  0  0  0.068602  0  1.035087  0  0  0.070985  0  1.03228  0  0  0.098775  0.06684  0  1.0371  0
H  H47  1  0.65596495  0.87191845  0.62003149  1  0  0.061724  0  0.961667  0  0  0.068634  0  1.035041  0  0  0.07102  0  1.032231  0  0  0.098778  0.066861  0  1.037077  0
H  H48  1  0.37224395  0.94719283  0.31282485  1  0  0.102725  0  0.946304  0  0  0.116518  0  1.002422  0  0  0.119152  0  1.002677  0  0  0.106251  0.114636  0  1.002404  0
H  H49  1  0.62775966  0.05280513  0.68717650  1  0  0.1027  0  0.946402  0  0  0.116548  0  1.002453  0  0  0.119144  0  1.002751  0  0  0.106248  0.114665  0  1.002438  0
C  C50  1  0.79103804  0.39475618  0.51790001  1  0  0.131669  0  3.73472  0  0  0.103217  0  3.981809  0  0  0.110887  0  4.000302  0  0  0.038895  0.098359  0  3.969232  0
C  C51  1  0.20897085  0.60524487  0.48209690  1  0  0.131549  0  3.734716  0  0  0.103058  0  3.981834  0  0  0.110722  0  4.000342  0  0  0.038875  0.098211  0  3.96925  0
C  C52  1  0.91062591  0.38930942  0.60149815  1  0  -0.160467  0  3.720286  0  0  -0.174592  0  3.958899  0  0  -0.182829  0  3.980407  0  0  -0.088498  -0.169289  0  3.944477  0
C  C53  1  0.08938131  0.61069472  0.39850041  1  0  -0.160507  0  3.720334  0  0  -0.174547  0  3.958966  0  0  -0.182787  0  3.98048  0  0  -0.088514  -0.169243  0  3.944538  0
C  C54  1  0.87583471  0.33957481  0.68567463  1  0  0.116086  0  3.71882  0  0  0.133238  0  3.950697  0  0  0.136961  0  3.973167  0  0  0.007121  0.130947  0  3.935374  0
C  C55  1  0.12417250  0.66042933  0.31432393  1  0  0.116197  0  3.7187  0  0  0.133251  0  3.950684  0  0  0.136973  0  3.973157  0  0  0.00713  0.130961  0  3.935359  0
C  C56  1  0.72033229  0.29751375  0.68231835  1  0  -0.160179  0  3.705335  0  0  -0.179232  0  3.951152  0  0  -0.186512  0  3.971718  0  0  -0.085536  -0.174607  0  3.937416  0
C  C57  1  0.27967660  0.70248730  0.31767779  1  0  -0.160258  0  3.705513  0  0  -0.179272  0  3.951335  0  0  -0.186555  0  3.971906  0  0  -0.085528  -0.174646  0  3.937598  0
C  C58  1  0.60734636  0.30735530  0.59664038  1  0  0.116492  0  3.750148  0  0  0.088746  0  4.002802  0  0  0.095659  0  4.02205  0  0  0.036609  0.084287  0  3.989717  0
C  C59  1  0.39266269  0.69264651  0.40335586  1  0  0.116583  0  3.750385  0  0  0.088796  0  4.003055  0  0  0.09571  0  4.022301  0  0  0.036665  0.084338  0  3.989967  0
C  C60  1  0.00058461  0.33165090  0.77843873  1  0  0.038212  0  3.624876  0  0  -0.022747  0  3.875425  0  0  -0.015173  0  3.879509  0  0  -0.059699  -0.027845  0  3.872426  0
C  C61  1  0.99941928  0.66835402  0.22156183  1  0  0.03821  0  3.624896  0  0  -0.022809  0  3.87541  0  0  -0.015247  0  3.8795  0  0  -0.059791  -0.02791  0  3.872417  0
C  C62  1  0.04467989  0.15561239  0.74176522  1  0  0.257517  0  3.766117  0  0  0.238895  0  4.028997  0  0  0.250877  0  4.044854  0  0  0.08908  0.230717  0  4.018184  0
C  C63  1  0.95531657  0.84439024  0.25823579  1  0  0.25788  0  3.765975  0  0  0.239165  0  4.028876  0  0  0.251143  0  4.044731  0  0  0.089178  0.23098  0  4.018069  0
C  C64  1  0.12721183  0.17730593  0.66203592  1  0  -0.214944  0  3.802677  0  0  -0.234145  0  4.061684  0  0  -0.24043  0  4.082291  0  0  -0.116888  -0.229986  0  4.047791  0
C  C65  1  0.87278595  0.82269746  0.33796685  1  0  -0.215055  0  3.80271  0  0  -0.23428  0  4.061732  0  0  -0.240566  0  4.082341  0  0  -0.116854  -0.230116  0  4.047842  0
C  C66  1  0.17271883  0.09724379  0.60021059  1  0  -0.091992  0  3.75449  0  0  -0.110825  0  3.997605  0  0  -0.110419  0  4.017207  0  0  -0.092945  -0.110813  0  3.984204  0
C  C67  1  0.82727580  0.90276117  0.39978970  1  0  -0.092101  0  3.754637  0  0  -0.110879  0  3.997723  0  0  -0.11048  0  4.017319  0  0  -0.092987  -0.11087  0  3.984314  0
C  C68  1  0.13817240  0.99376706  0.61529634  1  0  0.122008  0  3.777143  0  0  0.149867  0  4.011576  0  0  0.148295  0  4.03751  0  0  -0.020143  0.150712  0  3.993973  0
C  C69  1  0.86182338  0.00623789  0.38470255  1  0  0.122033  0  3.776987  0  0  0.149872  0  4.011428  0  0  0.148299  0  4.037365  0  0  -0.020162  0.15072  0  3.993821  0
C  C70  1  0.05700139  0.97303332  0.69563351  1  0  -0.118836  0  3.686954  0  0  -0.151345  0  3.93716  0  0  -0.150554  0  3.955573  0  0  -0.089523  -0.15156  0  3.924593  0
C  C71  1  0.94298944  0.02697011  0.30436160  1  0  -0.118858  0  3.686836  0  0  -0.151332  0  3.937095  0  0  -0.150537  0  3.955508  0  0  -0.089548  -0.151562  0  3.924534  0
C  C72  1  0.00923810  0.05154520  0.75954744  1  0  -0.112157  0  3.788847  0  0  -0.102826  0  4.038411  0  0  -0.109082  0  4.059081  0  0  -0.02176  -0.098792  0  4.024541  0
C  C73  1  0.99075688  0.94845589  0.24045095  1  0  -0.112315  0  3.789004  0  0  -0.102993  0  4.03863  0  0  -0.109255  0  4.059303  0  0  -0.021837  -0.098961  0  4.02476  0
C  C74  1  0.18678372  0.90749572  0.54861195  1  0  -0.332997  0  3.734589  0  0  -0.410143  0  3.964897  0  0  -0.412915  0  3.976806  0  0  -0.24981  -0.407947  0  3.956689  0
C  C75  1  0.81320990  0.09251001  0.45138753  1  0  -0.332891  0  3.734575  0  0  -0.410019  0  3.964839  0  0  -0.412793  0  3.976752  0  0  -0.249679  -0.407813  0  3.956624  0
C  C76  1  0.92378914  0.02383848  0.84066295  1  0  0.357944  0  3.72316  0  0  0.321286  0  4.014434  0  0  0.33907  0  4.022397  0  0  0.21206  0.309314  0  4.009079  0
C  C77  1  0.07620453  0.97616184  0.15933598  1  0  0.357864  0  3.723113  0  0  0.321142  0  4.014417  0  0  0.338926  0  4.022382  0  0  0.212027  0.309182  0  4.009047  0
C  C78  1  0.81384243  0.91853475  0.93169186  1  0  0.369326  0  3.694676  0  0  0.333822  0  3.981387  0  0  0.351734  0  3.989844  0  0  0.216492  0.321713  0  3.975759  0
C  C79  1  0.18615308  0.08146325  0.06830705  1  0  0.369486  0  3.694445  0  0  0.333825  0  3.981317  0  0  0.351735  0  3.989779  0  0  0.216452  0.321738  0  3.975668  0
C  C80  1  0.76408354  0.81831492  0.96098061  1  0  -0.108585  0  3.790145  0  0  -0.102811  0  4.045279  0  0  -0.109721  0  4.066607  0  0  -0.020071  -0.098281  0  4.030939  0
C  C81  1  0.23591164  0.18168154  0.03901657  1  0  -0.108694  0  3.790162  0  0  -0.102906  0  4.045332  0  0  -0.109822  0  4.066662  0  0  -0.020111  -0.098397  0  4.031007  0
C  C82  1  0.81330437  0.72988994  0.91373866  1  0  -0.109353  0  3.685347  0  0  -0.143578  0  3.936129  0  0  -0.142204  0  3.95409  0  0  -0.08749  -0.144202  0  3.923924  0
C  C83  1  0.18669113  0.27010806  0.08626024  1  0  -0.109321  0  3.685255  0  0  -0.143533  0  3.936087  0  0  -0.142162  0  3.954053  0  0  -0.087493  -0.144159  0  3.923872  0
C  C84  1  0.76775552  0.63120142  0.93775230  1  0  0.110893  0  3.794831  0  0  0.140546  0  4.030565  0  0  0.137764  0  4.05729  0  0  -0.025658  0.142186  0  4.012459  0
C  C85  1  0.23223650  0.36879659  0.06224468  1  0  0.11102  0  3.794724  0  0  0.140605  0  4.030559  0  0  0.137824  0  4.057285  0  0  -0.025597  0.14224  0  4.012455  0
C  C86  1  0.66826253  0.62165632  0.01057293  1  0  -0.088576  0  3.758226  0  0  -0.110609  0  4.004547  0  0  -0.109786  0  4.025043  0  0  -0.095657  -0.110841  0  3.9905  0
C  C87  1  0.33172802  0.37834015  0.98942297  1  0  -0.088733  0  3.758129  0  0  -0.110745  0  4.004502  0  0  -0.109929  0  4.025004  0  0  -0.0957  -0.110977  0  3.990449  0
C  C88  1  0.61690118  0.70771778  0.05899243  1  0  -0.21499  0  3.796504  0  0  -0.235213  0  4.055768  0  0  -0.241845  0  4.075857  0  0  -0.119983  -0.23082  0  4.042146  0
C  C89  1  0.38309037  0.29227792  0.94100350  1  0  -0.214923  0  3.796458  0  0  -0.23516  0  4.055671  0  0  -0.241807  0  4.075767  0  0  -0.119945  -0.230756  0  4.042035  0
C  C90  1  0.66492003  0.80652006  0.03539537  1  0  0.268363  0  3.772712  0  0  0.246801  0  4.036774  0  0  0.259878  0  4.051992  0  0  0.094567  0.238001  0  4.026323  0
C  C91  1  0.33507632  0.19347639  0.96460271  1  0  0.268306  0  3.772767  0  0  0.246829  0  4.036769  0  0  0.259878  0  4.051978  0  0  0.094556  0.238021  0  4.026323  0
C  C92  1  0.82598192  0.53859229  0.88763147  1  0  -0.33552  0  3.76869  0  0  -0.416038  0  4.004508  0  0  -0.418285  0  4.015689  0  0  -0.246883  -0.414161  0  3.996837  0
C  C93  1  0.17401970  0.46140723  0.11236905  1  0  -0.335536  0  3.768782  0  0  -0.416057  0  4.004624  0  0  -0.418305  0  4.015802  0  0  -0.246935  -0.414178  0  3.996957  0
C  C94  1  0.52928360  0.88888368  0.15831672  1  0  0.046311  0  3.638703  0  0  -0.017809  0  3.894827  0  0  -0.009824  0  3.899142  0  0  -0.05271  -0.023219  0  3.891728  0
C  C95  1  0.47071638  0.11111352  0.84168567  1  0  0.046279  0  3.63871  0  0  -0.017847  0  3.89488  0  0  -0.009891  0  3.899186  0  0  -0.052737  -0.023256  0  3.891782  0
C  C96  1  0.51825522  0.99688193  0.20335246  1  0  0.134256  0  3.700377  0  0  0.146592  0  3.940785  0  0  0.151457  0  3.961726  0  0  0.015465  0.143561  0  3.926539  0
C  C97  1  0.48174576  0.00311450  0.79664920  1  0  0.134193  0  3.70033  0  0  0.146568  0  3.940718  0  0  0.15143  0  3.961659  0  0  0.015392  0.143528  0  3.926479  0
C  C98  1  0.59112891  0.08338775  0.16780666  1  0  -0.135128  0  3.645003  0  0  -0.154057  0  3.894878  0  0  -0.160884  0  3.913198  0  0  -0.075999  -0.149722  0  3.882721  0
C  C99  1  0.40887107  0.91660946  0.83219496  1  0  -0.135023  0  3.644832  0  0  -0.153975  0  3.894716  0  0  -0.160797  0  3.913048  0  0  -0.075947  -0.149635  0  3.882558  0
C  C100  1  0.57221383  0.18110167  0.21204486  1  0  0.123593  0  3.711024  0  0  0.096139  0  3.957565  0  0  0.102987  0  3.977053  0  0  0.044084  0.091764  0  3.944299  0
C  C101  1  0.42778599  0.81889477  0.78795514  1  0  0.123542  0  3.711002  0  0  0.096075  0  3.957559  0  0  0.102923  0  3.977045  0  0  0.044074  0.091702  0  3.944296  0
C  C102  1  0.41588214  0.11253627  0.32094802  1  0  0.117241  0  3.746988  0  0  0.085731  0  4.001718  0  0  0.093669  0  4.01947  0  0  0.034425  0.080649  0  3.989596  0
C  C103  1  0.58411768  0.88746016  0.67905427  1  0  0.117245  0  3.746864  0  0  0.085776  0  4.001598  0  0  0.093715  0  4.019335  0  0  0.034469  0.080702  0  3.989467  0
C  C104  1  0.43085455  0.01230636  0.28254989  1  0  -0.170331  0  3.725535  0  0  -0.18775  0  3.970957  0  0  -0.196124  0  3.992975  0  0  -0.086445  -0.182363  0  3.956152  0
C  C105  1  0.56914675  0.98769162  0.71745273  1  0  -0.170344  0  3.725437  0  0  -0.187808  0  3.970818  0  0  -0.19615  0  3.992848  0  0  -0.086418  -0.182415  0  3.956007  0
I  I106  1  0.61788915  0.50020444  0.26223762  1  0  -0.370628  0  1.132268  0  0  -0.328041  0  1.464831  0  0  -0.345282  0  1.445463  0  0  -0.167611  -0.316491  0  1.477977  0
I  I107  1  0.38211755  0.49978039  0.73774897  1  0  -0.370637  0  1.132298  0  0  -0.328033  0  1.464856  0  0  -0.345277  0  1.445494  0  0  -0.16761  -0.316484  0  1.477999  0
I  I108  1  0.16237352  0.31803595  0.40784914  1  0  -0.353541  0  1.136522  0  0  -0.309013  0  1.472798  0  0  -0.326701  0  1.453894  0  0  -0.153273  -0.297023  0  1.485614  0
I  I109  1  0.83763757  0.68195889  0.59215809  1  0  -0.353541  0  1.136494  0  0  -0.308992  0  1.472725  0  0  -0.326677  0  1.453823  0  0  -0.15328  -0.297  0  1.485542  0
N  N110  1  0.86153095  0.08005238  0.90778131  1  0  -0.283417  0  2.919118  0  0  -0.274871  0  3.219807  0  0  -0.281752  0  3.227854  0  0  -0.235574  -0.270317  0  3.214564  0
N  N111  1  0.13846571  0.91994561  0.09222079  1  0  -0.283313  0  2.919033  0  0  -0.274764  0  3.21974  0  0  -0.281646  0  3.227786  0  0  -0.235574  -0.27021  0  3.214498  0
N  N112  1  0.79122345  0.01236278  0.96647893  1  0  -0.265725  0  2.915735  0  0  -0.2506  0  3.212642  0  0  -0.258221  0  3.221584  0  0  -0.222311  -0.245495  0  3.206753  0
N  N113  1  0.20877437  0.98763520  0.03352330  1  0  -0.265857  0  2.915793  0  0  -0.250696  0  3.212738  0  0  -0.258319  0  3.221684  0  0  -0.222331  -0.245606  0  3.206852  0
N  N114  1  0.48533167  0.19554842  0.28650496  1  0  -0.296999  0  3.278585  0  0  -0.221553  0  3.544273  0  0  -0.24209  0  3.566708  0  0  -0.319747  -0.207644  0  3.528548  0
N  N115  1  0.51466699  0.80444802  0.71349567  1  0  -0.297031  0  3.278692  0  0  -0.2216  0  3.544375  0  0  -0.242141  0  3.566822  0  0  -0.319797  -0.207702  0  3.528663  0
N  N116  1  0.64245217  0.35485704  0.51546517  1  0  -0.295668  0  3.262508  0  0  -0.221318  0  3.525908  0  0  -0.241623  0  3.547811  0  0  -0.316284  -0.20761  0  3.510723  0
N  N117  1  0.35755788  0.64514400  0.48453110  1  0  -0.295605  0  3.262618  0  0  -0.22123  0  3.52602  0  0  -0.241537  0  3.547921  0  0  -0.316245  -0.207519  0  3.510826  0
O  O118  1  0.89820602  0.92072381  0.85206027  1  0  -0.278834  0  2.332493  0  0  -0.200995  0  2.551291  0  0  -0.220053  0  2.554434  0  0  -0.105009  -0.188044  0  2.548943  0
O  O119  1  0.10178533  0.07927652  0.14793687  1  0  -0.278841  0  2.332288  0  0  -0.200825  0  2.551009  0  0  -0.219883  0  2.554154  0  0  -0.10491  -0.187882  0  2.548652  0
O  O120  1  0.62261640  0.89458944  0.07946596  1  0  -0.261901  0  2.416748  0  0  -0.184488  0  2.650105  0  0  -0.204894  0  2.656957  0  0  -0.158331  -0.170227  0  2.64502  0
O  O121  1  0.37738226  0.10540700  0.92053544  1  0  -0.261842  0  2.416704  0  0  -0.184555  0  2.650151  0  0  -0.204866  0  2.65693  0  0  -0.158324  -0.170285  0  2.645058  0
O  O122  1  0.99498968  0.22852497  0.80567152  1  0  -0.264672  0  2.363887  0  0  -0.196793  0  2.602925  0  0  -0.216083  0  2.608117  0  0  -0.166932  -0.183177  0  2.598921  0
O  O123  1  0.00500710  0.77147920  0.19433352  1  0  -0.264956  0  2.364145  0  0  -0.196894  0  2.603078  0  0  -0.21616  0  2.60825  0  0  -0.167024  -0.183278  0  2.599081  0
