# generated using pymatgen
data_BaH3C6NO3
_symmetry_space_group_name_H-M   'P 1'
_cell_length_a   4.30971332
_cell_length_b   10.13299144
_cell_length_c   15.83248912
_cell_angle_alpha   92.84345831
_cell_angle_beta   89.99993915
_cell_angle_gamma   89.99985965
_symmetry_Int_Tables_number   1
_chemical_formula_structural   BaH3C6NO3
_chemical_formula_sum   'Ba4 H12 C24 N4 O12'
_cell_volume   690.55809821
_cell_formula_units_Z   4
loop_
 _symmetry_equiv_pos_site_id
 _symmetry_equiv_pos_as_xyz
  1  'x, y, z'
loop_
 _atom_site_type_symbol
 _atom_site_label
 _atom_site_symmetry_multiplicity
 _atom_site_fract_x
 _atom_site_fract_y
 _atom_site_fract_z
 _atom_site_occupancy
 _atom_site_hle17_bader_spin_density
 _atom_site_hle17_ddec_charge
 _atom_site_hle17_ddec_spin_density
 _atom_site_hle17_ddec_sum_bond_order
 _atom_site_hle17_magmom
 _atom_site_hse06_10hf_bader_spin_density
 _atom_site_hse06_10hf_ddec_charge
 _atom_site_hse06_10hf_ddec_spin_density
 _atom_site_hse06_10hf_ddec_sum_bond_order
 _atom_site_hse06_10hf_magmom
 _atom_site_hse06_bader_spin_density
 _atom_site_hse06_ddec_charge
 _atom_site_hse06_ddec_spin_density
 _atom_site_hse06_ddec_sum_bond_order
 _atom_site_hse06_magmom
 _atom_site_pbe_bader_spin_density
 _atom_site_pbe_cm5_charge
 _atom_site_pbe_ddec_charge
 _atom_site_pbe_ddec_spin_density
 _atom_site_pbe_ddec_sum_bond_order
 _atom_site_pbe_magmom
Ba  Ba0  1  0.97069143  0.41641986  0.36209074  1  0  1.609184  0  1.219776  0  0  1.457108  0  1.614587  0  0  1.499946  0  1.573274  0  0  1.036891  1.425777  0  1.643858  0
Ba  Ba1  1  0.47069293  0.58357987  0.13790970  1  0  1.609172  0  1.219764  0  0  1.45711  0  1.614552  0  0  1.499949  0  1.57324  0  0  1.036867  1.425779  0  1.643823  0
Ba  Ba2  1  0.02930762  0.58358101  0.63790891  1  0  1.609193  0  1.219767  0  0  1.45713  0  1.61456  0  0  1.499968  0  1.57325  0  0  1.036895  1.425799  0  1.643833  0
Ba  Ba3  1  0.52930612  0.41642000  0.86209054  1  0  1.609195  0  1.219736  0  0  1.457144  0  1.614508  0  0  1.499982  0  1.573196  0  0  1.036882  1.425812  0  1.643779  0
H  H4  1  0.71395581  0.07629241  0.50173039  1  0  0.090956  0  0.955158  0  0  0.102472  0  1.018259  0  0  0.105046  0  1.01579  0  0  0.108313  0.100626  0  1.019988  0
H  H5  1  0.21395163  0.92370642  0.99827083  1  0  0.090927  0  0.955163  0  0  0.102443  0  1.018274  0  0  0.105018  0  1.015805  0  0  0.108308  0.100599  0  1.020002  0
H  H6  1  0.28604788  0.92370944  0.49826929  1  0  0.090964  0  0.955142  0  0  0.102471  0  1.018257  0  0  0.105045  0  1.015787  0  0  0.108317  0.100627  0  1.019983  0
H  H7  1  0.78604974  0.07629345  0.00172941  1  0  0.090952  0  0.955156  0  0  0.102468  0  1.018269  0  0  0.105042  0  1.0158  0  0  0.108303  0.100622  0  1.019998  0
H  H8  1  0.97778264  0.96247603  0.62096467  1  0  0.101566  0  0.958747  0  0  0.112707  0  1.019461  0  0  0.11624  0  1.018703  0  0  0.109429  0.110126  0  1.020348  0
H  H9  1  0.47778171  0.03752252  0.87903646  1  0  0.101562  0  0.958689  0  0  0.112708  0  1.0194  0  0  0.116238  0  1.018649  0  0  0.109427  0.110131  0  1.020281  0
H  H10  1  0.02221641  0.03752385  0.37903431  1  0  0.101564  0  0.958754  0  0  0.112734  0  1.019435  0  0  0.116265  0  1.018682  0  0  0.109432  0.110136  0  1.02034  0
H  H11  1  0.52221966  0.96247636  0.12096375  1  0  0.101571  0  0.958686  0  0  0.112717  0  1.019394  0  0  0.116246  0  1.018645  0  0  0.109423  0.110139  0  1.020278  0
H  H12  1  0.98100321  0.07979397  0.76455642  1  0  0.060172  0  0.955444  0  0  0.069356  0  1.022771  0  0  0.071542  0  1.020621  0  0  0.113752  0.067732  0  1.024287  0
H  H13  1  0.48100240  0.92020557  0.73544537  1  0  0.060211  0  0.955441  0  0  0.069393  0  1.022763  0  0  0.071577  0  1.020614  0  0  0.113764  0.067768  0  1.02428  0
H  H14  1  0.01899584  0.92020591  0.23544382  1  0  0.06022  0  0.955561  0  0  0.069401  0  1.022887  0  0  0.071586  0  1.020739  0  0  0.113785  0.067777  0  1.024403  0
H  H15  1  0.51899666  0.07979332  0.26455484  1  0  0.0602  0  0.955422  0  0  0.069384  0  1.022744  0  0  0.071568  0  1.020596  0  0  0.113763  0.067759  0  1.024261  0
C  C16  1  0.60948384  0.30859387  0.66242771  1  0  0.508919  0  3.899597  0  0  0.476056  0  4.16658  0  0  0.500081  0  4.17464  0  0  0.206774  0.460005  0  4.160448  0
C  C17  1  0.10948163  0.69140606  0.83757105  1  0  0.508909  0  3.899607  0  0  0.476079  0  4.166535  0  0  0.500106  0  4.174593  0  0  0.206772  0.46003  0  4.160401  0
C  C18  1  0.39051753  0.69140699  0.33757193  1  0  0.508951  0  3.899668  0  0  0.476087  0  4.166637  0  0  0.500114  0  4.174699  0  0  0.206795  0.460037  0  4.160505  0
C  C19  1  0.89051743  0.30859283  0.16242853  1  0  0.508877  0  3.899684  0  0  0.476038  0  4.166634  0  0  0.500063  0  4.174696  0  0  0.206786  0.459989  0  4.160501  0
C  C20  1  0.58437579  0.24553531  0.57964100  1  0  -0.235216  0  3.696659  0  0  -0.212193  0  3.935155  0  0  -0.228791  0  3.955663  0  0  -0.016518  -0.201708  0  3.921678  0
C  C21  1  0.08437289  0.75446564  0.92035969  1  0  -0.235408  0  3.696773  0  0  -0.21234  0  3.935229  0  0  -0.228942  0  3.955738  0  0  -0.01651  -0.201854  0  3.921751  0
C  C22  1  0.41562559  0.75446654  0.42035930  1  0  -0.235313  0  3.696806  0  0  -0.212266  0  3.935288  0  0  -0.228867  0  3.955798  0  0  -0.016513  -0.201781  0  3.921813  0
C  C23  1  0.91562617  0.24553522  0.07964059  1  0  -0.235286  0  3.696713  0  0  -0.212254  0  3.935211  0  0  -0.228853  0  3.955719  0  0  -0.016519  -0.201769  0  3.921733  0
C  C24  1  0.72418593  0.12230625  0.56539314  1  0  0.012231  0  3.737932  0  0  -0.018322  0  3.990556  0  0  -0.009694  0  4.007682  0  0  -0.063087  -0.023639  0  3.978849  0
C  C25  1  0.22417995  0.87769356  0.93460747  1  0  0.012412  0  3.737924  0  0  -0.018178  0  3.990579  0  0  -0.009548  0  4.007702  0  0  -0.063087  -0.023498  0  3.978874  0
C  C26  1  0.27581776  0.87769560  0.43460653  1  0  0.012283  0  3.737909  0  0  -0.018279  0  3.990554  0  0  -0.009651  0  4.007679  0  0  -0.063113  -0.023597  0  3.978843  0
C  C27  1  0.77581679  0.12230631  0.06539277  1  0  0.012259  0  3.73794  0  0  -0.018327  0  3.990614  0  0  -0.009698  0  4.007739  0  0  -0.063111  -0.023645  0  3.978908  0
C  C28  1  0.87039061  0.05930725  0.63091097  1  0  -0.182262  0  3.789687  0  0  -0.199976  0  4.057121  0  0  -0.211801  0  4.080072  0  0  -0.106318  -0.192371  0  4.041749  0
C  C29  1  0.37038451  0.94069141  0.86908957  1  0  -0.182293  0  3.789652  0  0  -0.200009  0  4.057109  0  0  -0.211835  0  4.080058  0  0  -0.106312  -0.192407  0  4.041736  0
C  C30  1  0.12961077  0.94069361  0.36908868  1  0  -0.182227  0  3.789653  0  0  -0.199965  0  4.057073  0  0  -0.21179  0  4.080023  0  0  -0.106278  -0.192344  0  4.041708  0
C  C31  1  0.62961454  0.05930846  0.13091004  1  0  -0.182296  0  3.789658  0  0  -0.200001  0  4.057106  0  0  -0.211827  0  4.080055  0  0  -0.106307  -0.192399  0  4.041733  0
C  C32  1  0.87403552  0.12467958  0.71034635  1  0  0.16483  0  3.78903  0  0  0.13447  0  4.051862  0  0  0.145614  0  4.067548  0  0  0.053599  0.127583  0  4.040644  0
C  C33  1  0.37403243  0.87532106  0.78965425  1  0  0.164783  0  3.789053  0  0  0.134436  0  4.051876  0  0  0.145581  0  4.06756  0  0  0.053582  0.127548  0  4.040659  0
C  C34  1  0.12596585  0.87532128  0.28965330  1  0  0.164711  0  3.789189  0  0  0.134356  0  4.052025  0  0  0.1455  0  4.067712  0  0  0.053532  0.12747  0  4.040802  0
C  C35  1  0.62596662  0.12467881  0.21034536  1  0  0.164837  0  3.789007  0  0  0.134481  0  4.051834  0  0  0.145625  0  4.067519  0  0  0.053596  0.127593  0  4.040618  0
C  C36  1  0.42314460  0.30832444  0.50866377  1  0  0.69909  0  3.908752  0  0  0.650964  0  4.196792  0  0  0.687068  0  4.186862  0  0  0.220456  0.626447  0  4.202946  0
C  C37  1  0.92314334  0.69167516  0.99133678  1  0  0.699144  0  3.908732  0  0  0.650984  0  4.196817  0  0  0.687089  0  4.186887  0  0  0.220459  0.626467  0  4.202969  0
C  C38  1  0.57685677  0.69167643  0.49133651  1  0  0.699093  0  3.908754  0  0  0.650944  0  4.196821  0  0  0.687049  0  4.186893  0  0  0.22045  0.626428  0  4.202976  0
C  C39  1  0.07685572  0.30832570  0.00866349  1  0  0.69915  0  3.908704  0  0  0.651028  0  4.196743  0  0  0.687132  0  4.186814  0  0  0.220496  0.626511  0  4.202896  0
N  N40  1  0.75066499  0.24475198  0.72592966  1  0  -0.523813  0  3.114671  0  0  -0.466001  0  3.379969  0  0  -0.485879  0  3.391443  0  0  -0.391545  -0.452403  0  3.371655  0
N  N41  1  0.25066033  0.75524780  0.77407031  1  0  -0.523796  0  3.114648  0  0  -0.466  0  3.379933  0  0  -0.485879  0  3.391406  0  0  -0.39157  -0.452402  0  3.37162  0
N  N42  1  0.24933406  0.75524789  0.27407058  1  0  -0.523752  0  3.114667  0  0  -0.46594  0  3.379954  0  0  -0.485818  0  3.391428  0  0  -0.391528  -0.452341  0  3.37164  0
N  N43  1  0.74933640  0.24475109  0.22592927  1  0  -0.523769  0  3.11466  0  0  -0.46596  0  3.379948  0  0  -0.485836  0  3.391421  0  0  -0.391545  -0.452363  0  3.371635  0
O  O44  1  0.50242854  0.27461544  0.43240492  1  0  -0.755873  0  1.917389  0  0  -0.692042  0  2.154825  0  0  -0.719154  0  2.144293  0  0  -0.400539  -0.673031  0  2.161783  0
O  O45  1  0.00242718  0.72538281  0.06759498  1  0  -0.755883  0  1.917346  0  0  -0.692062  0  2.154812  0  0  -0.719174  0  2.144281  0  0  -0.40055  -0.673052  0  2.161771  0
O  O46  1  0.49757283  0.72538443  0.56759469  1  0  -0.755872  0  1.917329  0  0  -0.692043  0  2.154777  0  0  -0.719155  0  2.144247  0  0  -0.400554  -0.673032  0  2.161738  0
O  O47  1  0.99757188  0.27461706  0.93240527  1  0  -0.755891  0  1.917345  0  0  -0.692074  0  2.154791  0  0  -0.719186  0  2.144261  0  0  -0.400559  -0.673063  0  2.16175  0
O  O48  1  0.20818571  0.39234944  0.52493810  1  0  -0.734535  0  2.02059  0  0  -0.671793  0  2.271401  0  0  -0.699432  0  2.262678  0  0  -0.410723  -0.652468  0  2.277112  0
O  O49  1  0.70818500  0.60764939  0.97506312  1  0  -0.734544  0  2.020612  0  0  -0.67179  0  2.271438  0  0  -0.699429  0  2.262716  0  0  -0.41072  -0.652464  0  2.277148  0
O  O50  1  0.79181334  0.60765043  0.47506214  1  0  -0.734521  0  2.02061  0  0  -0.671768  0  2.271431  0  0  -0.699406  0  2.262709  0  0  -0.410718  -0.652443  0  2.277141  0
O  O51  1  0.29181406  0.39235048  0.02493775  1  0  -0.734553  0  2.020597  0  0  -0.671812  0  2.271407  0  0  -0.69945  0  2.262686  0  0  -0.41074  -0.652486  0  2.277117  0
O  O52  1  0.51693438  0.42948258  0.68191835  1  0  -0.815265  0  2.042749  0  0  -0.742832  0  2.297902  0  0  -0.770811  0  2.291166  0  0  -0.460474  -0.722704  0  2.301835  0
O  O53  1  0.01692597  0.57051844  0.81808047  1  0  -0.815216  0  2.042804  0  0  -0.742802  0  2.29794  0  0  -0.770779  0  2.291203  0  0  -0.46045  -0.722673  0  2.301871  0
O  O54  1  0.48306467  0.57051730  0.31808315  1  0  -0.815281  0  2.042785  0  0  -0.742847  0  2.297936  0  0  -0.770826  0  2.291202  0  0  -0.460501  -0.722719  0  2.301868  0
O  O55  1  0.98307076  0.42948143  0.18191978  1  0  -0.815219  0  2.042763  0  0  -0.742792  0  2.297905  0  0  -0.77077  0  2.291169  0  0  -0.460456  -0.722663  0  2.301837  0
