# generated using pymatgen
data_U3P6H34C18O29
_symmetry_space_group_name_H-M   'P 1'
_cell_length_a   9.87495306
_cell_length_b   10.23032158
_cell_length_c   25.84663944
_cell_angle_alpha   89.98198677
_cell_angle_beta   90.02340038
_cell_angle_gamma   104.69872697
_symmetry_Int_Tables_number   1
_chemical_formula_structural   U3P6H34C18O29
_chemical_formula_sum   'U6 P12 H68 C36 O58'
_cell_volume   2525.67580797
_cell_formula_units_Z   2
loop_
 _symmetry_equiv_pos_site_id
 _symmetry_equiv_pos_as_xyz
  1  'x, y, z'
loop_
 _atom_site_type_symbol
 _atom_site_label
 _atom_site_symmetry_multiplicity
 _atom_site_fract_x
 _atom_site_fract_y
 _atom_site_fract_z
 _atom_site_occupancy
 _atom_site_pbe_bader_charge
 _atom_site_pbe_bader_spin_density
 _atom_site_pbe_cm5_charge
 _atom_site_pbe_ddec_charge
 _atom_site_pbe_ddec_spin_density
 _atom_site_pbe_ddec_sum_bond_order
 _atom_site_pbe_magmom
U  U0  1  0.53085333  0.61786678  0.24874708  1  2.95996  0  2.242492  2.646908  0  4.736947  0
U  U1  1  0.46913582  0.38201340  0.74880851  1  2.961379  0  2.243412  2.648408  0  4.734852  0
U  U2  1  0.82432198  0.48731140  0.41389495  1  2.945135  0  2.20096  2.593949  0  4.724611  0
U  U3  1  0.17561393  0.51278307  0.91391323  1  2.944362  0  2.20109  2.593442  0  4.725512  0
U  U4  1  0.17756921  0.51627802  0.58541049  1  2.938482  0  2.202074  2.595652  0  4.722185  0
U  U5  1  0.82243244  0.48364746  0.08543608  1  2.937916  0  2.201934  2.595565  0  4.722307  0
P  P6  1  0.37567397  0.26638105  0.61416654  1  3.362921  0  0.402595  1.404143  0  5.240077  0
P  P7  1  0.62446393  0.73370248  0.11412386  1  3.364063  0  0.40293  1.405094  0  5.2388  0
P  P8  1  0.62528646  0.73882408  0.38385539  1  3.333829  0  0.398208  1.399833  0  5.249993  0
P  P9  1  0.37457901  0.26127520  0.88390707  1  3.322747  0  0.398455  1.40029  0  5.249045  0
P  P10  1  0.49620984  0.32798847  0.34454946  1  3.30776  0  0.414832  1.413155  0  5.203248  0
P  P11  1  0.50344784  0.67213435  0.84447702  1  3.301775  0  0.415131  1.413865  0  5.202615  0
P  P12  1  0.50535316  0.67463731  0.65530231  1  3.311486  0  0.415438  1.413345  0  5.209934  0
P  P13  1  0.49475195  0.32530878  0.15534542  1  3.313306  0  0.415578  1.413852  0  5.211233  0
P  P14  1  0.01787682  0.81792659  0.47279302  1  3.311858  0  0.398879  1.37386  0  5.205212  0
P  P15  1  0.98211541  0.18218547  0.97282971  1  3.313149  0  0.398708  1.373717  0  5.20443  0
P  P16  1  0.98177270  0.18439090  0.52668450  1  3.309966  0  0.398845  1.374596  0  5.201744  0
P  P17  1  0.01821813  0.81557578  0.02669418  1  3.310169  0  0.399126  1.375425  0  5.201142  0
H  H18  1  0.56876238  0.93636437  0.26807844  1  0.615962  0  0.341149  0.42381  0  0.854773  0
H  H19  1  0.43193358  0.06175153  0.76690268  1  0.620574  0  0.341441  0.424755  0  0.853291  0
H  H20  1  0.71245312  0.90302165  0.26072761  1  0.653404  0  0.346098  0.429928  0  0.847711  0
H  H21  1  0.28811357  0.09575356  0.76059405  1  0.61669  0  0.346762  0.431085  0  0.845972  0
H  H22  1  0.06503963  0.40700157  0.47108571  1  0.651739  0  0.307911  0.396857  0  0.944293  0
H  H23  1  0.93492462  0.59297068  0.97110563  1  0.6518  0  0.307882  0.39664  0  0.944541  0
H  H24  1  0.93385788  0.59454425  0.52887928  1  0.650625  0  0.308748  0.397298  0  0.942715  0
H  H25  1  0.06611484  0.40549192  0.02890925  1  0.650756  0  0.308675  0.397363  0  0.942721  0
H  H26  1  0.13123109  0.54405390  0.44536640  1  0.622394  0  0.329179  0.4154  0  0.879849  0
H  H27  1  0.86871363  0.45604167  0.94529058  1  0.62562  0  0.32916  0.415089  0  0.880201  0
H  H28  1  0.86965487  0.45769442  0.55521545  1  0.606699  0  0.329732  0.414615  0  0.879315  0
H  H29  1  0.13028562  0.54233545  0.05525226  1  0.60693  0  0.329725  0.414649  0  0.879188  0
H  H30  1  0.16863393  0.12888539  0.59978412  1  0.664895  0  0.31318  0.401533  0  0.934065  0
H  H31  1  0.83150303  0.87117136  0.09971183  1  0.664024  0  0.313079  0.401614  0  0.934013  0
H  H32  1  0.83213344  0.87703985  0.39910402  1  0.665743  0  0.312742  0.405716  0  0.927177  0
H  H33  1  0.16776466  0.12309106  0.89915873  1  0.665115  0  0.312884  0.405968  0  0.926935  0
H  H34  1  0.78248553  0.20764828  0.37579245  1  0.61176  0  0.330814  0.418204  0  0.872204  0
H  H35  1  0.21746460  0.79247254  0.87584335  1  0.611718  0  0.330817  0.418013  0  0.872521  0
H  H36  1  0.21320749  0.79660125  0.62620759  1  0.631126  0  0.335789  0.424174  0  0.861197  0
H  H37  1  0.78714215  0.20324033  0.12635176  1  0.634396  0  0.335644  0.424271  0  0.860984  0
H  H38  1  0.91062856  0.21875557  0.41445326  1  0.659789  0  0.307489  0.408544  0  0.916052  0
H  H39  1  0.08929648  0.78133074  0.91445990  1  0.659203  0  0.307508  0.408325  0  0.91633  0
H  H40  1  0.08885497  0.78380003  0.58570865  1  0.642913  0  0.309558  0.409905  0  0.913135  0
H  H41  1  0.91121780  0.21616723  0.08575541  1  0.641732  0  0.309453  0.40983  0  0.913225  0
H  H42  1  0.42308867  0.11047257  0.34656381  1  0.619978  0  0.326197  0.370847  0  0.923953  0
H  H43  1  0.57619868  0.88971460  0.84641208  1  0.623231  0  0.326355  0.371704  0  0.922491  0
H  H44  1  0.55824687  0.89434886  0.65516772  1  0.620137  0  0.336581  0.387598  0  0.889108  0
H  H45  1  0.44312145  0.10553752  0.15549753  1  0.623171  0  0.338151  0.389595  0  0.886499  0
H  H46  1  0.03465249  0.95580572  0.54222257  1  0.664218  0  0.309547  0.397917  0  0.951779  0
H  H47  1  0.96535751  0.04421516  0.04222978  1  0.664709  0  0.309519  0.397846  0  0.951866  0
H  H48  1  0.96567076  0.04709197  0.45718338  1  0.658039  0  0.309583  0.397507  0  0.952344  0
H  H49  1  0.03434464  0.95297604  0.95721557  1  0.657944  0  0.309629  0.39779  0  0.951935  0
H  H50  1  0.46800141  0.36563232  0.48614280  1  0.072925  0  0.111847  0.119589  0  0.995727  0
H  H51  1  0.53195265  0.63446640  0.98604857  1  0.071319  0  0.111886  0.119763  0  0.995521  0
H  H52  1  0.53312107  0.63451466  0.51302275  1  0.072569  0  0.111237  0.118095  0  0.997344  0
H  H53  1  0.46678768  0.36547472  0.01307694  1  0.07263  0  0.111175  0.118001  0  0.996413  0
H  H54  1  0.21787807  0.06040707  0.38660479  1  0.051073  0  0.106355  0.119935  0  0.988841  0
H  H55  1  0.78190568  0.93984142  0.88651889  1  0.04968  0  0.106103  0.120075  0  0.988928  0
H  H56  1  0.77989025  0.94014588  0.61313423  1  0.061662  0  0.106074  0.120328  0  0.988263  0
H  H57  1  0.22029064  0.05969693  0.11319926  1  0.066484  0  0.106131  0.120363  0  0.988556  0
H  H58  1  0.34716644  0.95117099  0.53605550  1  0.062219  0  0.10365  0.112226  0  0.997469  0
H  H59  1  0.65291680  0.04886359  0.03597358  1  0.063807  0  0.104006  0.11274  0  0.997286  0
H  H60  1  0.65358285  0.04909743  0.46317887  1  0.047183  0  0.102618  0.110895  0  0.999176  0
H  H61  1  0.34634607  0.95092578  0.96323595  1  0.047525  0  0.102645  0.110796  0  0.999313  0
H  H62  1  0.57762455  0.29010924  0.56250533  1  0.060667  0  0.114533  0.15753  0  0.981887  0
H  H63  1  0.42248424  0.70982389  0.06239523  1  0.061542  0  0.114574  0.157853  0  0.981848  0
H  H64  1  0.42415162  0.70977589  0.43634534  1  0.069328  0  0.11437  0.158242  0  0.977807  0
H  H65  1  0.57570516  0.29031149  0.93643890  1  0.068843  0  0.114279  0.157995  0  0.978226  0
H  H66  1  0.51692817  0.12259995  0.58665580  1  0.049007  0  0.109942  0.150745  0  0.987312  0
H  H67  1  0.48302472  0.87733123  0.08653188  1  0.050841  0  0.110029  0.151109  0  0.987216  0
H  H68  1  0.48163796  0.87858694  0.41335446  1  0.05051  0  0.106408  0.146308  0  0.994579  0
H  H69  1  0.51826839  0.12152281  0.91344160  1  0.050034  0  0.106671  0.146739  0  0.994438  0
H  H70  1  0.38045651  0.43218516  0.40640726  1  0.093196  0  0.121306  0.168473  0  0.96924  0
H  H71  1  0.61948938  0.56800371  0.90630457  1  0.092276  0  0.121481  0.16839  0  0.969121  0
H  H72  1  0.61857211  0.56840687  0.59335236  1  0.053151  0  0.121091  0.167205  0  0.971936  0
H  H73  1  0.38124277  0.43145597  0.09340729  1  0.052399  0  0.120962  0.167054  0  0.971789  0
H  H74  1  0.25947730  0.31524146  0.36728047  1  0.080105  0  0.126882  0.180185  0  0.946421  0
H  H75  1  0.74029978  0.68511230  0.86717319  1  0.07932  0  0.126679  0.180511  0  0.946209  0
H  H76  1  0.74114798  0.68546467  0.63194651  1  0.09059  0  0.127349  0.181004  0  0.946423  0
H  H77  1  0.25888381  0.31424049  0.13200038  1  0.089953  0  0.127059  0.18084  0  0.946479  0
H  H78  1  0.24243245  0.77536368  0.47330701  1  0.086589  0  0.113617  0.166578  0  1.025165  0
H  H79  1  0.75757545  0.22475180  0.97324119  1  0.086457  0  0.113674  0.166599  0  1.025163  0
H  H80  1  0.75653002  0.22505200  0.52625182  1  0.111001  0  0.113787  0.164652  0  1.024277  0
H  H81  1  0.24344832  0.77490096  0.02633526  1  0.110474  0  0.113798  0.164962  0  1.024103  0
H  H82  1  0.19306205  0.81730915  0.40987987  1  0.064831  0  0.122399  0.1702  0  0.956172  0
H  H83  1  0.80700753  0.18290215  0.90983984  1  0.063475  0  0.122434  0.17025  0  0.956172  0
H  H84  1  0.80611390  0.18285280  0.58960355  1  0.071873  0  0.123262  0.171845  0  0.952938  0
H  H85  1  0.19389141  0.81705911  0.08966462  1  0.071216  0  0.123426  0.172004  0  0.952739  0
C  C86  1  0.41366907  0.16341634  0.51694284  1  -0.024912  0  -0.002527  0.180375  0  4.008335  0
C  C87  1  0.58634575  0.83663847  0.01685534  1  -0.025411  0  -0.002492  0.180669  0  4.008024  0
C  C88  1  0.58746472  0.83683314  0.48219175  1  0.000804  0  -0.005297  0.177604  0  4.00773  0
C  C89  1  0.41245970  0.16316667  0.98225471  1  0.006021  0  -0.005712  0.175938  0  4.009459  0
C  C90  1  0.41348793  0.26048171  0.47888150  1  -0.078356  0  -0.083112  -0.185599  0  3.884692  0
C  C91  1  0.58647746  0.73962370  0.97879348  1  -0.074183  0  -0.083342  -0.186268  0  3.884168  0
C  C92  1  0.58755098  0.73971625  0.52026585  1  -0.058516  0  -0.082615  -0.185897  0  3.884869  0
C  C93  1  0.41239601  0.26023466  0.02032780  1  -0.062989  0  -0.08225  -0.185159  0  3.885224  0
C  C94  1  0.34618083  0.22486942  0.43148621  1  -0.015586  0  -0.007315  0.173462  0  4.040471  0
C  C95  1  0.65369988  0.77529839  0.93140003  1  -0.016342  0  -0.006908  0.174288  0  4.038908  0
C  C96  1  0.65414951  0.77561117  0.56780654  1  -0.015143  0  -0.007011  0.173176  0  4.037707  0
C  C97  1  0.34585947  0.22428598  0.06785248  1  -0.016473  0  -0.007229  0.173193  0  4.03904  0
C  C98  1  0.27686755  0.08910187  0.42245754  1  -0.021395  0  -0.106764  -0.254867  0  3.973341  0
C  C99  1  0.72301585  0.91107380  0.92237528  1  -0.021771  0  -0.107185  -0.256104  0  3.973587  0
C  C100  1  0.72313985  0.91138287  0.57687503  1  -0.044591  0  -0.104071  -0.246742  0  3.964883  0
C  C101  1  0.27690369  0.08850544  0.07691865  1  -0.048252  0  -0.10414  -0.246604  0  3.965251  0
C  C102  1  0.27686886  0.98991895  0.45987710  1  -0.045598  0  -0.013914  0.165497  0  4.047815  0
C  C103  1  0.72309429  0.01020393  0.95980067  1  -0.047705  0  -0.013403  0.166803  0  4.046254  0
C  C104  1  0.72355656  0.01044524  0.53940405  1  -0.065686  0  -0.013983  0.164469  0  4.046071  0
C  C105  1  0.27643434  0.98949521  0.03945415  1  -0.06874  0  -0.014507  0.163626  0  4.047656  0
C  C106  1  0.34585424  0.02816444  0.50694199  1  -0.008095  0  -0.094894  -0.206511  0  3.924446  0
C  C107  1  0.65414887  0.97190116  0.00685746  1  -0.006466  0  -0.09555  -0.207572  0  3.924427  0
C  C108  1  0.65506042  0.97207331  0.49225410  1  -0.012975  0  -0.097497  -0.210443  0  3.930851  0
C  C109  1  0.34488411  0.02792360  0.99231722  1  -0.012094  0  -0.097211  -0.209314  0  3.932046  0
C  C110  1  0.48426294  0.20594944  0.56782622  1  -0.522661  0  -0.159838  -0.510088  0  3.93702  0
C  C111  1  0.51579806  0.79403698  0.06773259  1  -0.525092  0  -0.159855  -0.511095  0  3.936871  0
C  C112  1  0.51646569  0.79523138  0.43124483  1  -0.507825  0  -0.159006  -0.506272  0  3.933186  0
C  C113  1  0.48342410  0.20483147  0.93131797  1  -0.495819  0  -0.159154  -0.506214  0  3.933851  0
C  C114  1  0.35625492  0.32977876  0.39003983  1  -0.509017  0  -0.150574  -0.522755  0  3.936587  0
C  C115  1  0.64358760  0.67044297  0.88994278  1  -0.504747  0  -0.150653  -0.523442  0  3.936477  0
C  C116  1  0.64397121  0.67114813  0.60945330  1  -0.477064  0  -0.151642  -0.523126  0  3.936841  0
C  C117  1  0.35601571  0.32867516  0.10949934  1  -0.473524  0  -0.151034  -0.52266  0  3.936858  0
C  C118  1  0.19702060  0.84541683  0.45106366  1  -0.508689  0  -0.163105  -0.544531  0  3.964377  0
C  C119  1  0.80299948  0.15471851  0.95101879  1  -0.508578  0  -0.163177  -0.54496  0  3.963866  0
C  C120  1  0.80251533  0.15521730  0.54837604  1  -0.544565  0  -0.163113  -0.54396  0  3.963125  0
C  C121  1  0.19746667  0.84471852  0.04843228  1  -0.544227  0  -0.163174  -0.544328  0  3.963364  0
O  O122  1  0.46216947  0.30499313  0.66262363  1  -1.429356  0  -0.420699  -0.820767  0  2.275716  0
O  O123  1  0.53810628  0.69522249  0.16260278  1  -1.429698  0  -0.420885  -0.821446  0  2.275092  0
O  O124  1  0.54035030  0.70563929  0.33472875  1  -1.441711  0  -0.422552  -0.848754  0  2.28632  0
O  O125  1  0.45948918  0.29453912  0.83479231  1  -1.440524  0  -0.422049  -0.848022  0  2.286215  0
O  O126  1  0.61778378  0.88480431  0.24670789  1  -1.207299  0  -0.562277  -0.782921  0  1.989722  0
O  O127  1  0.38266832  0.11504897  0.74645142  1  -1.176232  0  -0.562491  -0.785452  0  1.988684  0
O  O128  1  0.06455740  0.45793138  0.43812462  1  -1.231815  0  -0.591929  -0.793594  0  2.044584  0
O  O129  1  0.93541287  0.54219186  0.93812081  1  -1.235012  0  -0.591721  -0.792877  0  2.045084  0
O  O130  1  0.93583955  0.54441269  0.56188494  1  -1.214123  0  -0.590418  -0.789869  0  2.044616  0
O  O131  1  0.06413741  0.45559228  0.06191295  1  -1.214552  0  -0.590347  -0.790029  0  2.044756  0
O  O132  1  0.24566678  0.14456538  0.62667275  1  -1.416635  0  -0.377866  -0.660962  0  2.168546  0
O  O133  1  0.75448517  0.85552733  0.12659420  1  -1.415848  0  -0.377655  -0.660848  0  2.167511  0
O  O134  1  0.75503430  0.86275678  0.37217195  1  -1.426704  0  -0.386125  -0.679237  0  2.164588  0
O  O135  1  0.24480797  0.13737587  0.87222731  1  -1.426396  0  -0.386333  -0.679464  0  2.16406  0
O  O136  1  0.32946297  0.38235455  0.58704148  1  -1.404396  0  -0.448632  -0.843799  0  2.305953  0
O  O137  1  0.67062224  0.61765441  0.08706780  1  -1.404042  0  -0.448794  -0.843827  0  2.305494  0
O  O138  1  0.67254335  0.62197658  0.40953243  1  -1.412396  0  -0.443987  -0.838565  0  2.303016  0
O  O139  1  0.32738655  0.37815195  0.90956166  1  -1.411542  0  -0.444559  -0.838758  0  2.302543  0
O  O140  1  0.87245549  0.26553892  0.38643789  1  -1.222479  0  -0.595485  -0.796105  0  2.012067  0
O  O141  1  0.12745803  0.73460151  0.88644748  1  -1.221569  0  -0.595576  -0.79576  0  2.012833  0
O  O142  1  0.12693528  0.73632304  0.61346561  1  -1.222319  0  -0.595478  -0.798285  0  2.01273  0
O  O143  1  0.87322134  0.26363113  0.11351360  1  -1.224518  0  -0.595013  -0.798239  0  2.012551  0
O  O144  1  0.45635685  0.17818098  0.31956950  1  -1.364712  0  -0.382331  -0.6225  0  2.129166  0
O  O145  1  0.54313018  0.82192817  0.81943460  1  -1.36674  0  -0.382048  -0.623597  0  2.127613  0
O  O146  1  0.54567791  0.82285414  0.68111076  1  -1.357658  0  -0.376876  -0.621829  0  2.134893  0
O  O147  1  0.45460264  0.17724547  0.18128916  1  -1.360998  0  -0.377617  -0.623293  0  2.134607  0
O  O148  1  0.63413572  0.34385049  0.37404863  1  -1.428521  0  -0.4449  -0.859531  0  2.317983  0
O  O149  1  0.36566753  0.65630862  0.87401997  1  -1.427092  0  -0.444795  -0.85928  0  2.317942  0
O  O150  1  0.36731164  0.65873955  0.62583642  1  -1.426471  0  -0.444006  -0.860408  0  2.314038  0
O  O151  1  0.63273513  0.34119852  0.12588721  1  -1.427711  0  -0.444012  -0.860535  0  2.314299  0
O  O152  1  0.49706249  0.42794831  0.30217992  1  -1.420568  0  -0.410588  -0.798273  0  2.322557  0
O  O153  1  0.50244148  0.57214028  0.80212799  1  -1.420378  0  -0.411086  -0.798876  0  2.322638  0
O  O154  1  0.50552886  0.57562607  0.69799184  1  -1.418444  0  -0.414855  -0.800448  0  2.328565  0
O  O155  1  0.49450418  0.42440971  0.19797142  1  -1.419034  0  -0.415114  -0.800558  0  2.329452  0
O  O156  1  0.94353589  0.66772986  0.46879221  1  -1.446827  0  -0.418737  -0.849641  0  2.384285  0
O  O157  1  0.05647238  0.33238598  0.96885232  1  -1.446373  0  -0.418694  -0.849379  0  2.383416  0
O  O158  1  0.05511567  0.33474840  0.53082257  1  -1.449475  0  -0.415725  -0.849295  0  2.379259  0
O  O159  1  0.94483385  0.66522117  0.03082604  1  -1.449512  0  -0.415763  -0.849395  0  2.378957  0
O  O160  1  0.94792269  0.91125561  0.44263423  1  -1.450867  0  -0.347066  -0.728911  0  2.252112  0
O  O161  1  0.05209535  0.08888634  0.94271297  1  -1.451056  0  -0.347065  -0.729149  0  2.252224  0
O  O162  1  0.05262826  0.09129746  0.55650133  1  -1.44979  0  -0.346677  -0.72617  0  2.255052  0
O  O163  1  0.94739449  0.90867569  0.05648007  1  -1.450236  0  -0.346679  -0.72657  0  2.255419  0
O  O164  1  0.02495411  0.85278329  0.53254616  1  -1.428764  0  -0.367071  -0.674669  0  2.275537  0
O  O165  1  0.97497811  0.14724276  0.03258375  1  -1.429612  0  -0.366933  -0.67443  0  2.275477  0
O  O166  1  0.97502200  0.14988716  0.46682303  1  -1.421903  0  -0.367373  -0.674899  0  2.276523  0
O  O167  1  0.02497943  0.85015971  0.96683413  1  -1.422456  0  -0.367491  -0.675176  0  2.275906  0
O  O168  1  0.34791820  0.61581272  0.24921763  1  -0.838487  0  -0.768464  -0.710193  0  1.664102  0
O  O169  1  0.65212599  0.38431612  0.74938219  1  -0.838147  0  -0.768776  -0.710511  0  1.663466  0
O  O170  1  0.71743052  0.63936788  0.24903934  1  -0.838035  0  -0.75442  -0.701235  0  1.725534  0
O  O171  1  0.28252292  0.36018032  0.74894727  1  -0.837974  0  -0.754808  -0.701083  0  1.724629  0
O  O172  1  0.90922900  0.57098333  0.35714973  1  -0.807675  0  -0.744694  -0.664476  0  1.706118  0
O  O173  1  0.09061804  0.42915529  0.85717096  1  -0.80785  0  -0.744919  -0.664582  0  1.706099  0
O  O174  1  0.09513076  0.43148469  0.64233241  1  -0.806372  0  -0.7437  -0.662993  0  1.709211  0
O  O175  1  0.90496250  0.56839850  0.14234754  1  -0.806294  0  -0.743618  -0.662971  0  1.709283  0
O  O176  1  0.75825117  0.40684472  0.47517628  1  -0.912568  0  -0.768812  -0.766594  0  1.838433  0
O  O177  1  0.24179022  0.59323224  0.97518828  1  -0.912907  0  -0.768769  -0.76649  0  1.838683  0
O  O178  1  0.24155200  0.59723255  0.52394984  1  -0.913868  0  -0.768354  -0.769356  0  1.843197  0
O  O179  1  0.75835335  0.40271132  0.02397977  1  -0.913253  0  -0.768448  -0.769285  0  1.842958  0
