# generated using pymatgen
data_DyCuH15C25(N3O4)2
_symmetry_space_group_name_H-M   'P 1'
_cell_length_a   7.60621275
_cell_length_b   12.17085363
_cell_length_c   14.09253687
_cell_angle_alpha   69.31853338
_cell_angle_beta   87.55861760
_cell_angle_gamma   82.64622404
_symmetry_Int_Tables_number   1
_chemical_formula_structural   DyCuH15C25(N3O4)2
_chemical_formula_sum   'Dy2 Cu2 H30 C50 N12 O16'
_cell_volume   1210.48910510
_cell_formula_units_Z   2
loop_
 _symmetry_equiv_pos_site_id
 _symmetry_equiv_pos_as_xyz
  1  'x, y, z'
loop_
 _atom_site_type_symbol
 _atom_site_label
 _atom_site_symmetry_multiplicity
 _atom_site_fract_x
 _atom_site_fract_y
 _atom_site_fract_z
 _atom_site_occupancy
 _atom_site_hle17_bader_spin_density
 _atom_site_hle17_ddec_charge
 _atom_site_hle17_ddec_spin_density
 _atom_site_hle17_ddec_sum_bond_order
 _atom_site_hle17_magmom
 _atom_site_hse06_10hf_bader_spin_density
 _atom_site_hse06_10hf_ddec_charge
 _atom_site_hse06_10hf_ddec_spin_density
 _atom_site_hse06_10hf_ddec_sum_bond_order
 _atom_site_hse06_10hf_magmom
 _atom_site_hse06_bader_spin_density
 _atom_site_hse06_ddec_charge
 _atom_site_hse06_ddec_spin_density
 _atom_site_hse06_ddec_sum_bond_order
 _atom_site_hse06_magmom
 _atom_site_pbe_bader_spin_density
 _atom_site_pbe_cm5_charge
 _atom_site_pbe_ddec_charge
 _atom_site_pbe_ddec_spin_density
 _atom_site_pbe_ddec_sum_bond_order
 _atom_site_pbe_magmom
Dy  Dy0  1  0.70632163  0.91205618  0.15231328  1  0  2.210885  0  1.632678  0  0  2.0629  0  2.1102  0  0  2.113695  0  2.067981  0  0  1.504162  2.02399  0  2.143914  0
Dy  Dy1  1  0.29367733  0.08794186  0.84768408  1  0  2.210857  0  1.632795  0  0  2.062867  0  2.110343  0  0  2.11369  0  2.06807  0  0  1.504223  2.023927  0  2.144115  0
Cu  Cu2  1  0.78792314  0.35532705  0.30224760  1  0  0.428345  0  1.841484  0  0  0.293371  0  2.317344  0  0  0.302091  0  2.271217  0  0  0.516221  0.290891  0  2.346505  0
Cu  Cu3  1  0.21208107  0.64467104  0.69775175  1  0  0.428354  0  1.841479  0  0  0.293397  0  2.317374  0  0  0.302073  0  2.271175  0  0  0.51627  0.29093  0  2.346583  0
H  H4  1  0.86799844  0.60057761  0.15113950  1  0  0.110184  0  0.992191  0  0  0.118444  0  1.05495  0  0  0.122422  0  1.049912  0  0  0.138774  0.115473  0  1.058603  0
H  H5  1  0.13199096  0.39942210  0.84886113  1  0  0.110286  0  0.992026  0  0  0.118478  0  1.054873  0  0  0.122454  0  1.049842  0  0  0.138789  0.11551  0  1.058525  0
H  H6  1  0.67003365  0.22216005  0.14169918  1  0  0.130725  0  0.949572  0  0  0.137738  0  1.016234  0  0  0.141831  0  1.012528  0  0  0.114784  0.134738  0  1.018969  0
H  H7  1  0.32992883  0.77784909  0.85830561  1  0  0.130707  0  0.949679  0  0  0.137746  0  1.016316  0  0  0.141859  0  1.012585  0  0  0.114795  0.134731  0  1.019078  0
H  H8  1  0.60147777  0.38578289  0.81836689  1  0  0.089087  0  0.983465  0  0  0.099672  0  1.047701  0  0  0.101914  0  1.046704  0  0  0.100618  0.098001  0  1.048534  0
H  H9  1  0.39851712  0.61422219  0.18163128  1  0  0.08907  0  0.983444  0  0  0.099641  0  1.047702  0  0  0.101883  0  1.04671  0  0  0.100631  0.097976  0  1.048517  0
H  H10  1  0.69640658  0.57457113  0.81852008  1  0  0.104109  0  0.942575  0  0  0.120216  0  0.994162  0  0  0.123518  0  0.992066  0  0  0.106214  0.117761  0  0.995905  0
H  H11  1  0.30359279  0.42543134  0.18147807  1  0  0.104119  0  0.942551  0  0  0.120241  0  0.994118  0  0  0.123525  0  0.992045  0  0  0.106211  0.11778  0  0.995859  0
H  H12  1  0.36778406  0.77748579  0.47815224  1  0  0.10294  0  0.971729  0  0  0.111411  0  1.039893  0  0  0.115046  0  1.03664  0  0  0.103041  0.108717  0  1.042386  0
H  H13  1  0.63224086  0.22252047  0.52184772  1  0  0.102926  0  0.971709  0  0  0.111428  0  1.039869  0  0  0.115062  0  1.036615  0  0  0.10308  0.108734  0  1.042345  0
H  H14  1  0.01521558  0.85417647  0.76274618  1  0  0.09514  0  0.912375  0  0  0.106504  0  0.970245  0  0  0.10971  0  0.965468  0  0  0.142747  0.103955  0  0.973937  0
H  H15  1  0.98480249  0.14581820  0.23725672  1  0  0.095183  0  0.912331  0  0  0.10661  0  0.970129  0  0  0.109776  0  0.965401  0  0  0.142809  0.104075  0  0.973791  0
H  H16  1  0.19420178  0.19545540  0.46732607  1  0  0.101348  0  0.961825  0  0  0.112135  0  1.024764  0  0  0.115242  0  1.02295  0  0  0.101791  0.109867  0  1.026236  0
H  H17  1  0.80579555  0.80455059  0.53267177  1  0  0.101271  0  0.961962  0  0  0.112029  0  1.02493  0  0  0.115136  0  1.023115  0  0  0.101759  0.109768  0  1.026411  0
H  H18  1  0.38614599  0.15225174  0.33138172  1  0  0.096561  0  0.944964  0  0  0.107541  0  1.004779  0  0  0.111341  0  1.001902  0  0  0.101292  0.104713  0  1.00701  0
H  H19  1  0.61384627  0.84775333  0.66861438  1  0  0.096496  0  0.945055  0  0  0.107477  0  1.004869  0  0  0.111271  0  1.001992  0  0  0.101269  0.104653  0  1.007106  0
H  H20  1  0.11438232  0.53125913  0.26379479  1  0  0.089059  0  0.983511  0  0  0.096353  0  1.055318  0  0  0.099445  0  1.052874  0  0  0.099562  0.094058  0  1.057205  0
H  H21  1  0.88561832  0.46873715  0.73620661  1  0  0.089022  0  0.98356  0  0  0.096323  0  1.055361  0  0  0.099418  0  1.052924  0  0  0.099552  0.094032  0  1.057248  0
H  H22  1  0.30677269  0.36483546  0.38815128  1  0  0.104069  0  0.952441  0  0  0.118397  0  1.007432  0  0  0.121759  0  1.005341  0  0  0.104488  0.115879  0  1.009198  0
H  H23  1  0.69324036  0.63516449  0.61184802  1  0  0.104107  0  0.952496  0  0  0.118454  0  1.00745  0  0  0.121816  0  1.005358  0  0  0.10455  0.115942  0  1.009226  0
H  H24  1  0.40916744  0.38940114  0.73116993  1  0  0.092829  0  0.953956  0  0  0.101711  0  1.019131  0  0  0.104954  0  1.014305  0  0  0.141985  0.099311  0  1.022555  0
H  H25  1  0.59081983  0.61058967  0.26883342  1  0  0.092829  0  0.953914  0  0  0.101702  0  1.019113  0  0  0.104934  0  1.014295  0  0  0.141991  0.099296  0  1.022538  0
H  H26  1  0.06064093  0.72788790  0.46658522  1  0  0.111624  0  0.955319  0  0  0.120215  0  1.022293  0  0  0.124015  0  1.018691  0  0  0.107741  0.11742  0  1.02501  0
H  H27  1  0.93935595  0.27210743  0.53341868  1  0  0.11154  0  0.955392  0  0  0.120191  0  1.022303  0  0  0.12399  0  1.018704  0  0  0.107748  0.117398  0  1.025012  0
H  H28  1  0.81283552  0.67392635  0.96391667  1  0  0.325508  0  0.832328  0  0  0.320013  0  0.869072  0  0  0.326364  0  0.865492  0  0  0.351951  0.315443  0  0.871827  0
H  H29  1  0.18716458  0.32607259  0.03608252  1  0  0.325572  0  0.832193  0  0  0.319998  0  0.869046  0  0  0.326353  0  0.865465  0  0  0.351981  0.315433  0  0.871796  0
H  H30  1  0.04671563  0.06951948  0.66038681  1  0  0.336495  0  0.911525  0  0  0.315782  0  0.972726  0  0  0.325049  0  0.964947  0  0  0.322842  0.30929  0  0.978139  0
H  H31  1  0.95328991  0.93047859  0.33961819  1  0  0.336468  0  0.911572  0  0  0.315811  0  0.972682  0  0  0.32508  0  0.964899  0  0  0.32285  0.309318  0  0.97811  0
H  H32  1  0.42830435  0.29030630  0.60708671  1  0  0.328278  0  0.918095  0  0  0.30808  0  0.979585  0  0  0.317451  0  0.971995  0  0  0.314229  0.301502  0  0.984887  0
H  H33  1  0.57170022  0.70969002  0.39291245  1  0  0.328268  0  0.918151  0  0  0.308047  0  0.979668  0  0  0.317423  0  0.97207  0  0  0.314199  0.301465  0  0.984987  0
C  C34  1  0.82448511  0.54671070  0.11110516  1  0  0.254179  0  3.63667  0  0  0.190949  0  3.91633  0  0  0.208175  0  3.92403  0  0  0.156555  0.179632  0  3.911062  0
C  C35  1  0.17550471  0.45329343  0.88889412  1  0  0.253991  0  3.63652  0  0  0.19081  0  3.916173  0  0  0.208039  0  3.923875  0  0  0.156517  0.179494  0  3.910916  0
C  C36  1  0.74142185  0.50179514  0.98147565  1  0  0.162437  0  3.80921  0  0  0.150453  0  4.059439  0  0  0.155769  0  4.083413  0  0  0.096317  0.146998  0  4.043185  0
C  C37  1  0.25858164  0.49820648  0.01852265  1  0  0.162387  0  3.809415  0  0  0.150414  0  4.059602  0  0  0.155736  0  4.083573  0  0  0.096329  0.146953  0  4.043358  0
C  C38  1  0.73534131  0.40339268  0.07309680  1  0  0.123079  0  3.806074  0  0  0.124674  0  4.051735  0  0  0.124716  0  4.076872  0  0  0.079012  0.124553  0  4.034886  0
C  C39  1  0.26464887  0.59660969  0.92690372  1  0  0.122994  0  3.806155  0  0  0.124596  0  4.051802  0  0  0.124635  0  4.076941  0  0  0.078973  0.124472  0  4.034973  0
C  C40  1  0.67924712  0.29836650  0.07236982  1  0  -0.127286  0  3.661143  0  0  -0.159227  0  3.911428  0  0  -0.157715  0  3.928782  0  0  -0.078034  -0.160039  0  3.899838  0
C  C41  1  0.32073876  0.70163760  0.92762885  1  0  -0.127289  0  3.661256  0  0  -0.159263  0  3.911518  0  0  -0.157748  0  3.92885  0  0  -0.078064  -0.160073  0  3.899949  0
C  C42  1  0.62928112  0.29483279  0.97889436  1  0  -0.074908  0  3.722913  0  0  -0.055974  0  3.962264  0  0  -0.065293  0  3.986458  0  0  -0.020984  -0.050077  0  3.946171  0
C  C43  1  0.37071861  0.70516792  0.02110430  1  0  -0.074859  0  3.722885  0  0  -0.055905  0  3.962216  0  0  -0.065254  0  3.986454  0  0  -0.020956  -0.049983  0  3.946082  0
C  C44  1  0.63770751  0.39393448  0.88903483  1  0  -0.054017  0  3.750819  0  0  -0.083982  0  4.007067  0  0  -0.083209  0  4.02938  0  0  -0.087357  -0.084277  0  3.992073  0
C  C45  1  0.36229538  0.60606360  0.11096313  1  0  -0.054065  0  3.750871  0  0  -0.084045  0  4.007157  0  0  -0.083263  0  4.029467  0  0  -0.087428  -0.084342  0  3.992136  0
C  C46  1  0.69288843  0.49853062  0.88835790  1  0  -0.166659  0  3.788329  0  0  -0.182471  0  4.043064  0  0  -0.1875  0  4.063567  0  0  -0.097178  -0.179224  0  4.029344  0
C  C47  1  0.30711691  0.50146837  0.11163973  1  0  -0.166597  0  3.788339  0  0  -0.182424  0  4.043075  0  0  -0.187433  0  4.063574  0  0  -0.097133  -0.179166  0  4.029337  0
C  C48  1  0.55982258  0.18755413  0.97151169  1  0  0.736085  0  3.832957  0  0  0.691678  0  4.119771  0  0  0.728184  0  4.107374  0  0  0.240352  0.666885  0  4.127223  0
C  C49  1  0.44016522  0.81245350  0.02849226  1  0  0.736176  0  3.832838  0  0  0.691749  0  4.119706  0  0  0.728265  0  4.107301  0  0  0.240271  0.666956  0  4.127145  0
C  C50  1  0.03285777  0.03141168  0.03465450  1  0  0.567024  0  3.923978  0  0  0.527799  0  4.218055  0  0  0.557947  0  4.208673  0  0  0.212363  0.507441  0  4.223459  0
C  C51  1  0.96713101  0.96858460  0.96532305  1  0  0.566905  0  3.924049  0  0  0.527716  0  4.218086  0  0  0.557867  0  4.208705  0  0  0.212347  0.507352  0  4.223494  0
C  C52  1  0.49494289  0.94387857  0.31303558  1  0  0.646886  0  3.917605  0  0  0.604138  0  4.203168  0  0  0.638813  0  4.193901  0  0  0.195798  0.580734  0  4.208515  0
C  C53  1  0.50506210  0.05612216  0.68696793  1  0  0.647002  0  3.917542  0  0  0.604155  0  4.2032  0  0  0.638829  0  4.19394  0  0  0.195732  0.580759  0  4.208519  0
C  C54  1  0.38363150  0.96406434  0.39612692  1  0  -0.066235  0  3.773473  0  0  -0.045914  0  4.009879  0  0  -0.055017  0  4.035072  0  0  -0.02575  -0.040073  0  3.993  0
C  C55  1  0.61638291  0.03594181  0.60387332  1  0  -0.066542  0  3.77371  0  0  -0.04611  0  4.010047  0  0  -0.055213  0  4.035241  0  0  -0.025851  -0.040268  0  3.993155  0
C  C56  1  0.33028919  0.86766862  0.47587205  1  0  -0.136905  0  3.718214  0  0  -0.168853  0  3.970944  0  0  -0.167867  0  3.988575  0  0  -0.087514  -0.16933  0  3.959123  0
C  C57  1  0.66972577  0.13233487  0.52413110  1  0  -0.136777  0  3.718183  0  0  -0.168796  0  3.97084  0  0  -0.16781  0  3.988466  0  0  -0.08748  -0.169268  0  3.958993  0
C  C58  1  0.23018609  0.89064791  0.55320919  1  0  0.130766  0  3.82661  0  0  0.132148  0  4.069488  0  0  0.13307  0  4.092981  0  0  0.080964  0.131422  0  4.053825  0
C  C59  1  0.76982528  0.10935379  0.44679174  1  0  0.13083  0  3.826345  0  0  0.13227  0  4.069171  0  0  0.133208  0  4.09265  0  0  0.081007  0.131538  0  4.053503  0
C  C60  1  0.07834883  0.88393761  0.68902813  1  0  0.282735  0  3.656566  0  0  0.217994  0  3.93714  0  0  0.236189  0  3.944717  0  0  0.16911  0.206185  0  3.931671  0
C  C61  1  0.92166231  0.11605876  0.31097513  1  0  0.282688  0  3.656562  0  0  0.2179  0  3.937157  0  0  0.236131  0  3.944735  0  0  0.169071  0.20609  0  3.931653  0
C  C62  1  0.17882072  0.00863314  0.54833335  1  0  0.176604  0  3.770636  0  0  0.16554  0  4.013114  0  0  0.171469  0  4.035605  0  0  0.1033  0.161601  0  3.998028  0
C  C63  1  0.82119085  0.99136764  0.45167211  1  0  0.176661  0  3.770631  0  0  0.16552  0  4.013172  0  0  0.171445  0  4.035663  0  0  0.103296  0.161582  0  3.998104  0
C  C64  1  0.23211721  0.10537797  0.46924115  1  0  -0.151417  0  3.75865  0  0  -0.170889  0  4.017916  0  0  -0.175607  0  4.039078  0  0  -0.095293  -0.167838  0  4.003727  0
C  C65  1  0.76788760  0.89462364  0.53076209  1  0  -0.151315  0  3.758632  0  0  -0.170728  0  4.017887  0  0  -0.175445  0  4.039046  0  0  -0.095256  -0.167686  0  4.003727  0
C  C66  1  0.33659145  0.08110987  0.39412435  1  0  -0.071302  0  3.759855  0  0  -0.098006  0  4.014899  0  0  -0.098173  0  4.0372  0  0  -0.089601  -0.097686  0  3.999861  0
C  C67  1  0.66341449  0.91889265  0.60587646  1  0  -0.071205  0  3.759949  0  0  -0.097963  0  4.014983  0  0  -0.098122  0  4.037276  0  0  -0.089594  -0.097646  0  3.999963  0
C  C68  1  0.95871211  0.73334981  0.28349467  1  0  0.648376  0  3.92154  0  0  0.60309  0  4.209261  0  0  0.637609  0  4.200965  0  0  0.199627  0.579776  0  4.213993  0
C  C69  1  0.04127575  0.26664454  0.71650973  1  0  0.64842  0  3.921777  0  0  0.603129  0  4.20949  0  0  0.637651  0  4.2012  0  0  0.19964  0.57981  0  4.214224  0
C  C70  1  0.07985650  0.63893093  0.35714195  1  0  -0.067224  0  3.750823  0  0  -0.046136  0  3.98495  0  0  -0.055921  0  4.009259  0  0  -0.024751  -0.03996  0  3.968849  0
C  C71  1  0.92014192  0.36106975  0.64285889  1  0  -0.06731  0  3.750975  0  0  -0.046201  0  3.985115  0  0  -0.055991  0  4.009435  0  0  -0.024716  -0.040027  0  3.969021  0
C  C72  1  0.14847743  0.53641081  0.33610514  1  0  -0.064603  0  3.756593  0  0  -0.093403  0  4.014523  0  0  -0.091799  0  4.035325  0  0  -0.089204  -0.094255  0  4.000487  0
C  C73  1  0.85152362  0.46358990  0.66389562  1  0  -0.064502  0  3.756589  0  0  -0.093307  0  4.014515  0  0  -0.091715  0  4.03533  0  0  -0.08918  -0.094158  0  4.000483  0
C  C74  1  0.25374193  0.44320916  0.40533025  1  0  -0.16739  0  3.763453  0  0  -0.184258  0  4.020284  0  0  -0.189559  0  4.040023  0  0  -0.097765  -0.18083  0  4.007072  0
C  C75  1  0.74626681  0.55679253  0.59466578  1  0  -0.167495  0  3.763521  0  0  -0.18436  0  4.020354  0  0  -0.189659  0  4.040095  0  0  -0.097832  -0.180942  0  4.007179  0
C  C76  1  0.28644183  0.45393935  0.49843328  1  0  0.173257  0  3.775619  0  0  0.162102  0  4.020309  0  0  0.168235  0  4.043445  0  0  0.100474  0.158115  0  4.004603  0
C  C77  1  0.71356728  0.54606056  0.50156541  1  0  0.173342  0  3.775632  0  0  0.162155  0  4.02038  0  0  0.16829  0  4.043508  0  0  0.100411  0.158163  0  4.004685  0
C  C78  1  0.35758113  0.43340934  0.65468987  1  0  0.265774  0  3.653231  0  0  0.202442  0  3.931509  0  0  0.219667  0  3.940651  0  0  0.163864  0.191164  0  3.925133  0
C  C79  1  0.64241707  0.56658601  0.34531328  1  0  0.265731  0  3.653372  0  0  0.202399  0  3.931662  0  0  0.219641  0  3.940788  0  0  0.163845  0.191126  0  3.925267  0
C  C80  1  0.21898420  0.55679807  0.52041679  1  0  0.123484  0  3.819222  0  0  0.125319  0  4.061799  0  0  0.125143  0  4.086578  0  0  0.080622  0.12529  0  4.045245  0
C  C81  1  0.78102866  0.44320276  0.47958225  1  0  0.123451  0  3.819098  0  0  0.125227  0  4.061838  0  0  0.125056  0  4.086616  0  0  0.08069  0.125211  0  4.045255  0
C  C82  1  0.11575753  0.64989672  0.44970311  1  0  -0.116745  0  3.698443  0  0  -0.148627  0  3.94978  0  0  -0.14626  0  3.966833  0  0  -0.078636  -0.150042  0  3.938424  0
C  C83  1  0.88425212  0.35010053  0.55029921  1  0  -0.116669  0  3.698541  0  0  -0.148595  0  3.949917  0  0  -0.146228  0  3.966973  0  0  -0.07871  -0.150009  0  3.938545  0
N  N84  1  0.79941820  0.58939712  0.00889631  1  0  -0.328677  0  3.380875  0  0  -0.271361  0  3.619216  0  0  -0.289036  0  3.63145  0  0  -0.371891  -0.259495  0  3.610786  0
N  N85  1  0.20058135  0.41060445  0.99110423  1  0  -0.328676  0  3.38078  0  0  -0.271288  0  3.619123  0  0  -0.288981  0  3.631374  0  0  -0.371911  -0.259422  0  3.610702  0
N  N86  1  0.78834443  0.43554256  0.15304494  1  0  -0.417324  0  3.312493  0  0  -0.350895  0  3.637803  0  0  -0.364965  0  3.640766  0  0  -0.389145  -0.342122  0  3.635549  0
N  N87  1  0.21163661  0.56446591  0.84695537  1  0  -0.417267  0  3.312378  0  0  -0.35083  0  3.637674  0  0  -0.364882  0  3.640594  0  0  -0.389169  -0.342061  0  3.63546  0
N  N88  1  0.07984557  0.99994962  0.63415409  1  0  -0.344477  0  3.392372  0  0  -0.281324  0  3.629114  0  0  -0.300775  0  3.6426  0  0  -0.37418  -0.268153  0  3.619492  0
N  N89  1  0.92016558  0.00004672  0.36585415  1  0  -0.344607  0  3.392676  0  0  -0.281484  0  3.629422  0  0  -0.300936  0  3.642901  0  0  -0.374258  -0.268324  0  3.61982  0
N  N90  1  0.16541033  0.81421263  0.64328670  1  0  -0.425485  0  3.381589  0  0  -0.358817  0  3.717065  0  0  -0.373104  0  3.71842  0  0  -0.405805  -0.349866  0  3.715636  0
N  N91  1  0.83460064  0.18578462  0.35671629  1  0  -0.425467  0  3.381663  0  0  -0.358806  0  3.717125  0  0  -0.373116  0  3.718507  0  0  -0.405768  -0.349852  0  3.715657  0
N  N92  1  0.26734561  0.54104587  0.61948527  1  0  -0.414484  0  3.347583  0  0  -0.346794  0  3.676002  0  0  -0.361093  0  3.679481  0  0  -0.395799  -0.337852  0  3.673323  0
N  N93  1  0.73266612  0.45895407  0.38051406  1  0  -0.41434  0  3.347495  0  0  -0.346641  0  3.675911  0  0  -0.360964  0  3.679433  0  0  -0.39574  -0.337699  0  3.673187  0
N  N94  1  0.37421219  0.37893308  0.58525351  1  0  -0.341665  0  3.368721  0  0  -0.278413  0  3.603943  0  0  -0.297593  0  3.616843  0  0  -0.373687  -0.265498  0  3.594958  0
N  N95  1  0.62579596  0.62106505  0.41474716  1  0  -0.341725  0  3.368928  0  0  -0.27842  0  3.604135  0  0  -0.297606  0  3.617025  0  0  -0.373674  -0.265505  0  3.595157  0
O  O96  1  0.47115844  0.20232032  0.89179103  1  0  -0.739356  0  1.996681  0  0  -0.689663  0  2.253968  0  0  -0.715197  0  2.240875  0  0  -0.407079  -0.671504  0  2.262245  0
O  O97  1  0.52878419  0.79768943  0.10822681  1  0  -0.739417  0  1.996888  0  0  -0.689677  0  2.254086  0  0  -0.715202  0  2.240985  0  0  -0.406895  -0.671527  0  2.262355  0
O  O98  1  0.58934153  0.08930119  0.04329397  1  0  -0.755383  0  2.109206  0  0  -0.704409  0  2.373286  0  0  -0.730202  0  2.360616  0  0  -0.410951  -0.685962  0  2.381084  0
O  O99  1  0.41066834  0.91070142  0.95669892  1  0  -0.755403  0  2.109079  0  0  -0.704431  0  2.373185  0  0  -0.730231  0  2.360502  0  0  -0.41096  -0.685993  0  2.380994  0
O  O100  1  0.95496485  0.01428346  0.11926798  1  0  -0.674876  0  2.034129  0  0  -0.629323  0  2.277699  0  0  -0.653277  0  2.26828  0  0  -0.391467  -0.61236  0  2.283565  0
O  O101  1  0.04502619  0.98571462  0.88070755  1  0  -0.674983  0  2.034228  0  0  -0.629411  0  2.277712  0  0  -0.653377  0  2.268306  0  0  -0.391564  -0.612441  0  2.283575  0
O  O102  1  0.15766118  0.09393084  0.00124736  1  0  -0.653355  0  2.020604  0  0  -0.611992  0  2.258677  0  0  -0.63351  0  2.247666  0  0  -0.3758  -0.596815  0  2.265736  0
O  O103  1  0.84233058  0.90606369  0.99873277  1  0  -0.653281  0  2.020454  0  0  -0.611951  0  2.258515  0  0  -0.633457  0  2.24749  0  0  -0.375705  -0.596775  0  2.265571  0
O  O104  1  0.57410871  0.02689237  0.25197858  1  0  -0.676948  0  1.976403  0  0  -0.631119  0  2.215755  0  0  -0.655437  0  2.207067  0  0  -0.3756  -0.614084  0  2.221152  0
O  O105  1  0.42589740  0.97310930  0.74801752  1  0  -0.676911  0  1.976562  0  0  -0.631044  0  2.215932  0  0  -0.655366  0  2.207247  0  0  -0.375508  -0.614016  0  2.221327  0
O  O106  1  0.51084233  0.84190360  0.30267791  1  0  -0.714687  0  2.010067  0  0  -0.661751  0  2.242971  0  0  -0.686651  0  2.233611  0  0  -0.374294  -0.644114  0  2.248679  0
O  O107  1  0.48916530  0.15809714  0.69732907  1  0  -0.714755  0  2.00995  0  0  -0.661803  0  2.2429  0  0  -0.686704  0  2.233539  0  0  -0.374348  -0.644168  0  2.248595  0
O  O108  1  0.89324243  0.82412626  0.30531400  1  0  -0.713996  0  2.083357  0  0  -0.661895  0  2.327147  0  0  -0.68727  0  2.319256  0  0  -0.374446  -0.64399  0  2.331864  0
O  O109  1  0.10674883  0.17587080  0.69468739  1  0  -0.714057  0  2.083328  0  0  -0.661943  0  2.327147  0  0  -0.687322  0  2.319248  0  0  -0.374465  -0.644034  0  2.331861  0
O  O110  1  0.91216797  0.72413218  0.20104929  1  0  -0.682319  0  1.995525  0  0  -0.633199  0  2.234158  0  0  -0.658681  0  2.226506  0  0  -0.358632  -0.615241  0  2.238664  0
O  O111  1  0.08781047  0.27585675  0.79895839  1  0  -0.682284  0  1.995719  0  0  -0.633166  0  2.234414  0  0  -0.658629  0  2.226709  0  0  -0.358629  -0.615203  0  2.238919  0
