# generated using pymatgen
data_SrH8C14S2O9
_symmetry_space_group_name_H-M   'P 1'
_cell_length_a   5.28976618
_cell_length_b   10.32194348
_cell_length_c   14.55844212
_cell_angle_alpha   104.03375688
_cell_angle_beta   100.13202841
_cell_angle_gamma   96.88999193
_symmetry_Int_Tables_number   1
_chemical_formula_structural   SrH8C14S2O9
_chemical_formula_sum   'Sr2 H16 C28 S4 O18'
_cell_volume   748.06186708
_cell_formula_units_Z   2
loop_
 _symmetry_equiv_pos_site_id
 _symmetry_equiv_pos_as_xyz
  1  'x, y, z'
loop_
 _atom_site_type_symbol
 _atom_site_label
 _atom_site_symmetry_multiplicity
 _atom_site_fract_x
 _atom_site_fract_y
 _atom_site_fract_z
 _atom_site_occupancy
 _atom_site_hle17_bader_spin_density
 _atom_site_hle17_ddec_charge
 _atom_site_hle17_ddec_spin_density
 _atom_site_hle17_ddec_sum_bond_order
 _atom_site_hle17_magmom
 _atom_site_hse06_10hf_bader_spin_density
 _atom_site_hse06_10hf_ddec_charge
 _atom_site_hse06_10hf_ddec_spin_density
 _atom_site_hse06_10hf_ddec_sum_bond_order
 _atom_site_hse06_10hf_magmom
 _atom_site_hse06_bader_spin_density
 _atom_site_hse06_ddec_charge
 _atom_site_hse06_ddec_spin_density
 _atom_site_hse06_ddec_sum_bond_order
 _atom_site_hse06_magmom
 _atom_site_pbe_bader_spin_density
 _atom_site_pbe_cm5_charge
 _atom_site_pbe_ddec_charge
 _atom_site_pbe_ddec_spin_density
 _atom_site_pbe_ddec_sum_bond_order
 _atom_site_pbe_magmom
Sr  Sr0  1  0.15743244  0.73882528  0.97693892  1  0  1.695016  0  1.011801  0  0  1.571465  0  1.363789  0  0  1.604199  0  1.321016  0  0  0.992326  1.546788  0  1.394968  0
Sr  Sr1  1  0.84255751  0.26116997  0.02306152  1  0  1.694956  0  1.01181  0  0  1.571435  0  1.363828  0  0  1.604175  0  1.321046  0  0  0.992345  1.546755  0  1.39501  0
H  H2  1  0.83176331  0.30793148  0.75701176  1  0  0.120721  0  0.926094  0  0  0.130661  0  0.984275  0  0  0.134348  0  0.981789  0  0  0.120195  0.127786  0  0.986585  0
H  H3  1  0.16823909  0.69206688  0.24298724  1  0  0.120764  0  0.926234  0  0  0.130706  0  0.984405  0  0  0.13439  0  0.98192  0  0  0.120212  0.127838  0  0.986717  0
H  H4  1  0.90639360  0.29173045  0.59057514  1  0  0.118846  0  0.97205  0  0  0.121138  0  1.044111  0  0  0.125735  0  1.040577  0  0  0.108883  0.117775  0  1.047099  0
H  H5  1  0.09359482  0.70825969  0.40941884  1  0  0.118849  0  0.972103  0  0  0.121176  0  1.044098  0  0  0.125772  0  1.040559  0  0  0.108891  0.117818  0  1.047089  0
H  H6  1  0.28688239  0.58041009  0.71774883  1  0  0.122538  0  0.952155  0  0  0.127193  0  1.019959  0  0  0.131815  0  1.016273  0  0  0.117274  0.123879  0  1.022542  0
H  H7  1  0.71308957  0.41958290  0.28223841  1  0  0.122627  0  0.952174  0  0  0.12722  0  1.020058  0  0  0.131835  0  1.016365  0  0  0.117294  0.123912  0  1.022635  0
H  H8  1  0.92577330  0.79508915  0.73277863  1  0  0.115427  0  0.93779  0  0  0.123663  0  0.999016  0  0  0.127633  0  0.996344  0  0  0.117041  0.120685  0  1.001376  0
H  H9  1  0.07422601  0.20490521  0.26722844  1  0  0.11543  0  0.937853  0  0  0.123693  0  0.999054  0  0  0.127667  0  0.996378  0  0  0.117063  0.120715  0  1.001416  0
H  H10  1  0.94957943  0.79884809  0.56499322  1  0  0.114043  0  1.002141  0  0  0.115304  0  1.075582  0  0  0.120052  0  1.071731  0  0  0.107397  0.112034  0  1.078241  0
H  H11  1  0.05043252  0.20115647  0.43501568  1  0  0.113903  0  1.002224  0  0  0.11521  0  1.075621  0  0  0.11995  0  1.071789  0  0  0.107342  0.111941  0  1.078278  0
H  H12  1  0.33465400  0.05086350  0.72815231  1  0  0.116403  0  0.941683  0  0  0.122081  0  1.008762  0  0  0.126721  0  1.004806  0  0  0.115451  0.11884  0  1.011442  0
H  H13  1  0.66536625  0.94914314  0.27185610  1  0  0.116288  0  0.941596  0  0  0.12199  0  1.008685  0  0  0.126633  0  1.004721  0  0  0.115413  0.11875  0  1.011363  0
H  H14  1  0.75780912  0.75753745  0.11437528  1  0  0.426658  0  0.874011  0  0  0.398513  0  0.933407  0  0  0.408561  0  0.918581  0  0  0.302591  0.391395  0  0.943914  0
H  H15  1  0.24218486  0.24246489  0.88562455  1  0  0.426644  0  0.874035  0  0  0.398518  0  0.933396  0  0  0.408566  0  0.91857  0  0  0.302615  0.391399  0  0.943904  0
H  H16  1  0.83816537  0.90320390  0.10774416  1  0  0.428841  0  0.845441  0  0  0.402161  0  0.913966  0  0  0.411173  0  0.900623  0  0  0.312762  0.395715  0  0.923529  0
H  H17  1  0.16185171  0.09679862  0.89225579  1  0  0.428782  0  0.845544  0  0  0.402109  0  0.914043  0  0  0.411118  0  0.900703  0  0  0.312725  0.395664  0  0.923602  0
C  C18  1  0.55667339  0.44605804  0.74695889  1  0  -0.109121  0  3.705773  0  0  -0.079694  0  3.950693  0  0  -0.086801  0  3.97119  0  0  -0.000576  -0.075375  0  3.936711  0
C  C19  1  0.44330792  0.55393406  0.25303429  1  0  -0.109039  0  3.705503  0  0  -0.07958  0  3.950423  0  0  -0.086686  0  3.970921  0  0  -0.000543  -0.075256  0  3.936441  0
C  C20  1  0.73036376  0.36388352  0.71189677  1  0  -0.016333  0  3.658715  0  0  -0.046165  0  3.911925  0  0  -0.043986  0  3.929342  0  0  -0.05875  -0.047183  0  3.900602  0
C  C21  1  0.26961401  0.63610956  0.28809703  1  0  -0.016386  0  3.658712  0  0  -0.046264  0  3.911972  0  0  -0.04409  0  3.929397  0  0  -0.058738  -0.04729  0  3.900659  0
C  C22  1  0.77149612  0.35484388  0.61886520  1  0  -0.059832  0  3.661763  0  0  -0.084247  0  3.922423  0  0  -0.08764  0  3.942072  0  0  -0.06993  -0.081996  0  3.909677  0
C  C23  1  0.22848265  0.64514616  0.38112540  1  0  -0.059814  0  3.661671  0  0  -0.084226  0  3.922284  0  0  -0.087612  0  3.941925  0  0  -0.06995  -0.081983  0  3.909546  0
C  C24  1  0.63866850  0.42637537  0.56101687  1  0  -0.027314  0  3.72776  0  0  -0.021871  0  3.965972  0  0  -0.024644  0  3.988353  0  0  -0.003342  -0.020275  0  3.951429  0
C  C25  1  0.36130725  0.57360455  0.43897252  1  0  -0.02756  0  3.727906  0  0  -0.02203  0  3.966032  0  0  -0.024816  0  3.988408  0  0  -0.003296  -0.020429  0  3.951489  0
C  C26  1  0.46073900  0.50610990  0.59652246  1  0  -0.039376  0  3.731531  0  0  -0.026753  0  3.967043  0  0  -0.033705  0  3.99107  0  0  -0.004615  -0.02213  0  3.951922  0
C  C27  1  0.53923247  0.49387501  0.40346475  1  0  -0.039119  0  3.731514  0  0  -0.026545  0  3.967032  0  0  -0.033487  0  3.991067  0  0  -0.004547  -0.021926  0  3.951922  0
C  C28  1  0.42057573  0.51625008  0.69021201  1  0  -0.047293  0  3.68557  0  0  -0.086187  0  3.937719  0  0  -0.08435  0  3.955838  0  0  -0.061286  -0.086346  0  3.925352  0
C  C29  1  0.57940760  0.48373595  0.30977752  1  0  -0.047536  0  3.6857  0  0  -0.086421  0  3.937945  0  0  -0.084564  0  3.956039  0  0  -0.061454  -0.086579  0  3.925579  0
C  C30  1  0.68685066  0.41859029  0.46279194  1  0  0.383205  0  3.754881  0  0  0.359741  0  4.020642  0  0  0.381412  0  4.023989  0  0  0.16123  0.344572  0  4.019263  0
C  C31  1  0.31312385  0.58140476  0.53719855  1  0  0.383447  0  3.755481  0  0  0.359982  0  4.021195  0  0  0.381684  0  4.024487  0  0  0.161416  0.344809  0  4.019816  0
C  C32  1  0.62426754  0.91975567  0.74003737  1  0  -0.098001  0  3.690855  0  0  -0.072322  0  3.938354  0  0  -0.078987  0  3.959385  0  0  -0.000691  -0.068359  0  3.924482  0
C  C33  1  0.37574543  0.08024586  0.25997039  1  0  -0.097965  0  3.690919  0  0  -0.072316  0  3.938499  0  0  -0.078972  0  3.959517  0  0  -0.00072  -0.068355  0  3.924629  0
C  C34  1  0.79916158  0.84966309  0.69462584  1  0  -0.037114  0  3.682545  0  0  -0.064668  0  3.937828  0  0  -0.063922  0  3.956592  0  0  -0.067301  -0.064913  0  3.925675  0
C  C35  1  0.20084501  0.15033638  0.30538254  1  0  -0.037208  0  3.6823  0  0  -0.064837  0  3.937656  0  0  -0.064076  0  3.956381  0  0  -0.067393  -0.065091  0  3.925533  0
C  C36  1  0.81514660  0.85320143  0.60096482  1  0  -0.056438  0  3.68424  0  0  -0.084264  0  3.946519  0  0  -0.087209  0  3.966242  0  0  -0.074416  -0.081615  0  3.932521  0
C  C37  1  0.18486656  0.14680719  0.39904484  1  0  -0.056154  0  3.684224  0  0  -0.083918  0  3.94641  0  0  -0.086863  0  3.966135  0  0  -0.074268  -0.081273  0  3.93242  0
C  C38  1  0.65858269  0.92543486  0.55203313  1  0  -0.029962  0  3.725901  0  0  -0.022137  0  3.961629  0  0  -0.025231  0  3.984281  0  0  -0.004089  -0.019883  0  3.946171  0
C  C39  1  0.34143189  0.07458490  0.44797987  1  0  -0.029968  0  3.726451  0  0  -0.022313  0  3.962389  0  0  -0.025415  0  3.985055  0  0  -0.004099  -0.020056  0  3.946926  0
C  C40  1  0.48396801  0.99636615  0.59836014  1  0  -0.039635  0  3.719146  0  0  -0.027257  0  3.953595  0  0  -0.033818  0  3.97739  0  0  -0.003608  -0.022699  0  3.938487  0
C  C41  1  0.51604830  0.00364654  0.40165109  1  0  -0.039676  0  3.719002  0  0  -0.027277  0  3.953496  0  0  -0.033835  0  3.97729  0  0  -0.003597  -0.022715  0  3.938388  0
C  C42  1  0.46771867  0.99362701  0.69293459  1  0  -0.036299  0  3.649828  0  0  -0.07222  0  3.900068  0  0  -0.070466  0  3.918109  0  0  -0.058103  -0.072859  0  3.888124  0
C  C43  1  0.53230503  0.00638474  0.30707833  1  0  -0.036175  0  3.649878  0  0  -0.07211  0  3.900125  0  0  -0.070352  0  3.918155  0  0  -0.058059  -0.072749  0  3.888182  0
C  C44  1  0.68257920  0.92533245  0.45178499  1  0  0.380127  0  3.752162  0  0  0.357456  0  4.018415  0  0  0.378741  0  4.022206  0  0  0.161911  0.342406  0  4.016906  0
C  C45  1  0.31745744  0.07469049  0.54822582  1  0  0.37997  0  3.753412  0  0  0.357301  0  4.01966  0  0  0.378595  0  4.023452  0  0  0.161912  0.342253  0  4.018148  0
S  S46  1  0.52478413  0.47179167  0.86922433  1  0  1.370006  0  5.603384  0  0  1.269213  0  6.120104  0  0  1.318248  0  6.093939  0  0  0.558276  1.235264  0  6.136972  0
S  S47  1  0.47520638  0.52820553  0.13076616  1  0  1.369833  0  5.603368  0  0  1.268984  0  6.120136  0  0  1.318009  0  6.093987  0  0  0.558189  1.235034  0  6.136997  0
S  S48  1  0.60604862  0.91399651  0.86024209  1  0  1.35953  0  5.608196  0  0  1.262331  0  6.122312  0  0  1.311263  0  6.096979  0  0  0.551814  1.228604  0  6.138448  0
S  S49  1  0.39395544  0.08600092  0.13976511  1  0  1.359233  0  5.608663  0  0  1.262025  0  6.122815  0  0  1.310956  0  6.097485  0  0  0.551623  1.228301  0  6.138941  0
O  O50  1  0.90988071  0.82116582  0.11168113  1  0  -0.872879  0  1.786311  0  0  -0.827291  0  1.966736  0  0  -0.845027  0  1.937244  0  0  -0.624706  -0.814552  0  1.987425  0
O  O51  1  0.09012201  0.17883357  0.88832081  1  0  -0.872828  0  1.786409  0  0  -0.827215  0  1.966785  0  0  -0.844956  0  1.937295  0  0  -0.624691  -0.814477  0  1.987472  0
O  O52  1  0.26921969  0.51034628  0.87496598  1  0  -0.707729  0  1.961619  0  0  -0.657083  0  2.221402  0  0  -0.679072  0  2.207821  0  0  -0.351687  -0.641294  0  2.230212  0
O  O53  1  0.73077023  0.48964892  0.12502826  1  0  -0.707644  0  1.961639  0  0  -0.656968  0  2.221411  0  0  -0.678956  0  2.207833  0  0  -0.351657  -0.641178  0  2.230221  0
O  O54  1  0.55044007  0.34129847  0.89236083  1  0  -0.740637  0  2.005787  0  0  -0.675329  0  2.257797  0  0  -0.697916  0  2.241972  0  0  -0.363676  -0.65931  0  2.268554  0
O  O55  1  0.44955581  0.65870385  0.10763431  1  0  -0.740723  0  2.005906  0  0  -0.675302  0  2.257818  0  0  -0.697873  0  2.241988  0  0  -0.363663  -0.659284  0  2.268575  0
O  O56  1  0.74190485  0.57932620  0.92605103  1  0  -0.749043  0  2.020061  0  0  -0.692648  0  2.290062  0  0  -0.715286  0  2.273906  0  0  -0.386745  -0.67628  0  2.300634  0
O  O57  1  0.25807381  0.42066990  0.07393990  1  0  -0.748836  0  2.019785  0  0  -0.692479  0  2.289872  0  0  -0.715109  0  2.273714  0  0  -0.386671  -0.676108  0  2.300443  0
O  O58  1  0.84775625  0.35273673  0.43069900  1  0  -0.440379  0  1.98165  0  0  -0.391793  0  2.197014  0  0  -0.40957  0  2.195657  0  0  -0.23845  -0.380051  0  2.198592  0
O  O59  1  0.15224307  0.64725142  0.56928847  1  0  -0.440344  0  1.982114  0  0  -0.391888  0  2.197618  0  0  -0.409666  0  2.19623  0  0  -0.2386  -0.380171  0  2.19925  0
O  O60  1  0.39016672  0.80407050  0.85078330  1  0  -0.729984  0  1.969996  0  0  -0.67481  0  2.232146  0  0  -0.697438  0  2.216796  0  0  -0.375707  -0.658584  0  2.242344  0
O  O61  1  0.60982859  0.19592984  0.14921834  1  0  -0.729925  0  1.9701  0  0  -0.674758  0  2.232262  0  0  -0.697379  0  2.216911  0  0  -0.375647  -0.658531  0  2.24246  0
O  O62  1  0.86098751  0.88761721  0.90290647  1  0  -0.729431  0  1.987792  0  0  -0.67523  0  2.253614  0  0  -0.696596  0  2.237485  0  0  -0.359741  -0.659899  0  2.264138  0
O  O63  1  0.13900916  0.11238117  0.09710110  1  0  -0.729326  0  1.987774  0  0  -0.67513  0  2.253566  0  0  -0.696529  0  2.237497  0  0  -0.35971  -0.659802  0  2.264093  0
O  O64  1  0.55097956  0.04708826  0.90923473  1  0  -0.740851  0  2.002085  0  0  -0.680863  0  2.265455  0  0  -0.702907  0  2.249312  0  0  -0.374101  -0.665202  0  2.276383  0
O  O65  1  0.44901326  0.95291008  0.09077121  1  0  -0.74079  0  2.002236  0  0  -0.680698  0  2.26549  0  0  -0.702763  0  2.249399  0  0  -0.374024  -0.665036  0  2.276413  0
O  O66  1  0.83606001  0.86229898  0.41159456  1  0  -0.443677  0  1.943228  0  0  -0.398079  0  2.153353  0  0  -0.415351  0  2.152038  0  0  -0.245651  -0.386917  0  2.15526  0
O  O67  1  0.16400498  0.13773532  0.58842135  1  0  -0.443746  0  1.943978  0  0  -0.398087  0  2.154085  0  0  -0.415329  0  2.152704  0  0  -0.245694  -0.386923  0  2.155994  0
