# generated using pymatgen
data_AlH7C16Cl2O5
_symmetry_space_group_name_H-M   'P 1'
_cell_length_a   6.66864607
_cell_length_b   23.11003242
_cell_length_c   26.39414954
_cell_angle_alpha   89.99999089
_cell_angle_beta   89.99929465
_cell_angle_gamma   89.99942781
_symmetry_Int_Tables_number   1
_chemical_formula_structural   AlH7C16Cl2O5
_chemical_formula_sum   'Al4 H28 C64 Cl8 O20'
_cell_volume   4067.67171618
_cell_formula_units_Z   4
loop_
 _symmetry_equiv_pos_site_id
 _symmetry_equiv_pos_as_xyz
  1  'x, y, z'
loop_
 _atom_site_type_symbol
 _atom_site_label
 _atom_site_symmetry_multiplicity
 _atom_site_fract_x
 _atom_site_fract_y
 _atom_site_fract_z
 _atom_site_occupancy
 _atom_site_pbe_bader_charge
 _atom_site_pbe_bader_spin_density
 _atom_site_pbe_cm5_charge
 _atom_site_pbe_ddec_charge
 _atom_site_pbe_ddec_spin_density
 _atom_site_pbe_ddec_sum_bond_order
 _atom_site_pbe_magmom
Al  Al0  1  0.26399393  0.75096346  0.25000114  1  2.48338  0  0.395817  1.66098  0  2.562033  0
Al  Al1  1  0.73599721  0.24903564  0.75000062  1  2.483125  0  0.395837  1.660931  0  2.562117  0
Al  Al2  1  0.76400100  0.74903537  0.25000148  1  2.483179  0  0.395812  1.661041  0  2.561917  0
Al  Al3  1  0.23599314  0.25096286  0.75000142  1  2.48316  0  0.395784  1.66087  0  2.562112  0
H  H4  1  0.27864067  0.38663289  0.65299613  1  0.112  0  0.107255  0.112938  0  1.005127  0
H  H5  1  0.72136547  0.61336361  0.34700222  1  0.112078  0  0.107182  0.112861  0  1.005115  0
H  H6  1  0.72135809  0.61336882  0.15299711  1  0.112042  0  0.107206  0.112857  0  1.005065  0
H  H7  1  0.27863455  0.38663374  0.84700428  1  0.112087  0  0.107179  0.112859  0  1.005155  0
H  H8  1  0.77864436  0.11336937  0.84700237  1  0.112091  0  0.10723  0.112933  0  1.004974  0
H  H9  1  0.22136478  0.88663232  0.15299409  1  0.1121  0  0.107228  0.112895  0  1.005183  0
H  H10  1  0.22135866  0.88663749  0.34700451  1  0.111989  0  0.107205  0.112842  0  1.00527  0
H  H11  1  0.77862499  0.11336376  0.65298930  1  0.111613  0  0.10723  0.112922  0  1.005328  0
H  H12  1  0.70538197  0.40626828  0.53487761  1  0.07611  0  0.108842  0.125016  0  0.991927  0
H  H13  1  0.29464666  0.59372822  0.46511620  1  0.075917  0  0.108855  0.125036  0  0.991915  0
H  H14  1  0.29461492  0.59373128  0.03487691  1  0.076042  0  0.108835  0.125019  0  0.99197  0
H  H15  1  0.70536723  0.40627084  0.96512296  1  0.076  0  0.108824  0.12499  0  0.991907  0
H  H16  1  0.20538306  0.09372902  0.96512605  1  0.076116  0  0.108796  0.124912  0  0.991798  0
H  H17  1  0.79463507  0.90627051  0.03488633  1  0.076038  0  0.108837  0.124965  0  0.992009  0
H  H18  1  0.79462933  0.90627134  0.46512031  1  0.07599  0  0.108846  0.124996  0  0.991873  0
H  H19  1  0.20535432  0.09373078  0.53488790  1  0.075731  0  0.108868  0.125037  0  0.991993  0
H  H20  1  0.29347925  0.46031775  0.58410470  1  0.089089  0  0.10793  0.114577  0  0.987845  0
H  H21  1  0.70656737  0.53967961  0.41589290  1  0.088847  0  0.10802  0.114628  0  0.987988  0
H  H22  1  0.70654678  0.53968613  0.08410611  1  0.089241  0  0.107967  0.11464  0  0.987994  0
H  H23  1  0.29345036  0.46031469  0.91589679  1  0.089218  0  0.107986  0.114616  0  0.987959  0
H  H24  1  0.79346997  0.03968749  0.91589489  1  0.089199  0  0.107969  0.114602  0  0.987903  0
H  H25  1  0.20655117  0.96031550  0.08410309  1  0.089267  0  0.107911  0.11451  0  0.987914  0
H  H26  1  0.20653127  0.96032109  0.41589783  1  0.088982  0  0.10797  0.114541  0  0.987876  0
H  H27  1  0.79344188  0.03968233  0.58409825  1  0.088915  0  0.107976  0.114647  0  0.987944  0
H  H28  1  0.50887243  0.67345301  0.24999015  1  0.610795  0  0.358962  0.438811  0  0.835588  0
H  H29  1  0.49112321  0.32654695  0.74998926  1  0.6108  0  0.35897  0.438813  0  0.835625  0
H  H30  1  0.00886450  0.82654922  0.24998676  1  0.610742  0  0.358898  0.43878  0  0.83558  0
H  H31  1  0.99113114  0.17345031  0.74998848  1  0.610729  0  0.358962  0.438804  0  0.835479  0
C  C32  1  0.51546355  0.81779074  0.32011703  1  1.586489  0  0.263313  0.650564  0  4.09804  0
C  C33  1  0.48453659  0.18221052  0.67988473  1  1.586491  0  0.26335  0.650505  0  4.098237  0
C  C34  1  0.48452425  0.18221051  0.82011846  1  1.586531  0  0.263408  0.650653  0  4.098309  0
C  C35  1  0.51546539  0.81779032  0.17988558  1  1.5863  0  0.263288  0.650327  0  4.097847  0
C  C36  1  0.01549795  0.68220973  0.17988373  1  1.586446  0  0.263344  0.650469  0  4.098848  0
C  C37  1  0.98449019  0.31779109  0.82011804  1  1.586142  0  0.26343  0.650535  0  4.098701  0
C  C38  1  0.98449653  0.31778764  0.67988506  1  1.586325  0  0.263329  0.650452  0  4.097816  0
C  C39  1  0.01549761  0.68220842  0.32011632  1  1.586264  0  0.263336  0.650415  0  4.098537  0
C  C40  1  0.16162222  0.43304149  0.58881618  1  -0.018094  0  -0.085662  -0.136998  0  3.954881  0
C  C41  1  0.83840192  0.56695068  0.41118369  1  -0.018078  0  -0.085792  -0.137022  0  3.955348  0
C  C42  1  0.83837510  0.56695893  0.08881452  1  -0.017905  0  -0.085683  -0.136985  0  3.955155  0
C  C43  1  0.16160704  0.43304363  0.91118573  1  -0.018365  0  -0.085784  -0.137085  0  3.955183  0
C  C44  1  0.66162130  0.06695508  0.91118951  1  -0.018018  0  -0.08574  -0.137065  0  3.955203  0
C  C45  1  0.33840733  0.93304229  0.08881453  1  -0.017734  0  -0.085672  -0.136966  0  3.955264  0
C  C46  1  0.33839065  0.93305005  0.41118900  1  -0.017798  0  -0.085706  -0.136967  0  3.955264  0
C  C47  1  0.66160349  0.06695770  0.58881163  1  -0.017651  0  -0.085717  -0.137152  0  3.955329  0
C  C48  1  0.15267560  0.39228907  0.62723456  1  -0.056779  0  -0.079118  -0.072917  0  4.004227  0
C  C49  1  0.84733354  0.60770743  0.37276796  1  -0.057016  0  -0.078962  -0.072808  0  4.003855  0
C  C50  1  0.84731840  0.60771048  0.12723211  1  -0.05744  0  -0.079029  -0.072769  0  4.003755  0
C  C51  1  0.15266975  0.39229035  0.87276852  1  -0.056452  0  -0.079015  -0.07283  0  4.004031  0
C  C52  1  0.65267524  0.10770666  0.87276964  1  -0.05714  0  -0.07904  -0.072895  0  4.003492  0
C  C53  1  0.34732340  0.89228897  0.12723212  1  -0.05717  0  -0.079101  -0.072926  0  4.004095  0
C  C54  1  0.34731756  0.89229674  0.37277025  1  -0.057238  0  -0.078993  -0.07279  0  4.003845  0
C  C55  1  0.65267959  0.10770755  0.62722848  1  -0.056756  0  -0.079149  -0.072994  0  4.004189  0
C  C56  1  0.98368723  0.35690615  0.63475953  1  0.020064  0  -0.017457  -0.106399  0  3.92767  0
C  C57  1  0.01633240  0.64309424  0.36523579  1  0.020631  0  -0.017532  -0.106512  0  3.927535  0
C  C58  1  0.01632140  0.64309945  0.13476085  1  0.019854  0  -0.01753  -0.106612  0  3.927584  0
C  C59  1  0.98366825  0.35690484  0.86523788  1  0.020289  0  -0.017531  -0.106628  0  3.927792  0
C  C60  1  0.48366304  0.14309589  0.86523831  1  0.019921  0  -0.017569  -0.106657  0  3.927633  0
C  C61  1  0.51632360  0.85690710  0.13476383  1  0.01988  0  -0.017421  -0.106268  0  3.927477  0
C  C62  1  0.51632111  0.85690795  0.36523725  1  0.020109  0  -0.017472  -0.106435  0  3.927241  0
C  C63  1  0.48366703  0.14309461  0.63476451  1  0.020101  0  -0.017502  -0.106431  0  3.927326  0
C  C64  1  0.82336608  0.36206002  0.60004831  1  0.088728  0  0.023636  0.141073  0  4.029475  0
C  C65  1  0.17664606  0.63793864  0.39995156  1  0.08907  0  0.023778  0.14124  0  4.029408  0
C  C66  1  0.17663820  0.63794300  0.10004381  1  0.089051  0  0.023723  0.141183  0  4.02962  0
C  C67  1  0.82334994  0.36205956  0.89995530  1  0.089105  0  0.023826  0.141279  0  4.029432  0
C  C68  1  0.32336289  0.13794037  0.89995460  1  0.088426  0  0.023826  0.141252  0  4.029564  0
C  C69  1  0.67664325  0.86205656  0.10005171  1  0.088563  0  0.023756  0.14115  0  4.029577  0
C  C70  1  0.67663610  0.86206086  0.39995113  1  0.088889  0  0.023648  0.141016  0  4.029434  0
C  C71  1  0.32334604  0.13794169  0.60005063  1  0.088567  0  0.023819  0.141244  0  4.029443  0
C  C72  1  0.83039628  0.40289422  0.56122416  1  0.025318  0  -0.089314  -0.201354  0  3.925394  0
C  C73  1  0.16963085  0.59710487  0.43877420  1  0.025215  0  -0.089379  -0.201475  0  3.925427  0
C  C74  1  0.16961585  0.59710577  0.06122310  1  0.025139  0  -0.089341  -0.201367  0  3.925529  0
C  C75  1  0.83038279  0.40289635  0.93877828  1  0.024917  0  -0.08931  -0.201381  0  3.925401  0
C  C76  1  0.33040451  0.09710052  0.93877645  1  0.025617  0  -0.089335  -0.201395  0  3.925401  0
C  C77  1  0.66962562  0.90289641  0.06123024  1  0.025753  0  -0.089365  -0.201337  0  3.925428  0
C  C78  1  0.66960463  0.90289595  0.43877565  1  0.025472  0  -0.089329  -0.201305  0  3.925346  0
C  C79  1  0.33036402  0.09710185  0.56122763  1  0.025857  0  -0.089422  -0.201512  0  3.925498  0
C  C80  1  0.99772066  0.43950187  0.55549118  1  0.08026  0  0.00534  0.163528  0  4.117362  0
C  C81  1  0.00230647  0.56049636  0.44450604  1  0.080616  0  0.005407  0.163587  0  4.117376  0
C  C82  1  0.00228724  0.56050245  0.05549180  1  0.080694  0  0.00534  0.163435  0  4.116923  0
C  C83  1  0.99770540  0.43950184  0.94450883  1  0.080108  0  0.00536  0.163595  0  4.117201  0
C  C84  1  0.49772977  0.06049667  0.94450965  1  0.080221  0  0.005366  0.163873  0  4.117831  0
C  C85  1  0.50230636  0.93950502  0.05548984  1  0.080283  0  0.00531  0.163472  0  4.118053  0
C  C86  1  0.50228960  0.93950542  0.44451014  1  0.08082  0  0.005377  0.163591  0  4.11783  0
C  C87  1  0.49768055  0.06049800  0.55549011  1  0.080445  0  0.005403  0.163726  0  4.117372  0
C  C88  1  0.99978582  0.48168225  0.51666249  1  -0.278532  0  -0.040131  -0.099861  0  4.099706  0
C  C89  1  0.00023682  0.51832074  0.48334041  1  -0.053837  0  -0.040086  -0.09977  0  4.099633  0
C  C90  1  0.00021494  0.51831991  0.01665630  1  -0.053175  0  -0.040142  -0.099876  0  4.099719  0
C  C91  1  0.99977470  0.48167745  0.98334546  1  -0.279068  0  -0.040071  -0.099674  0  4.099971  0
C  C92  1  0.49978839  0.01832320  0.98333757  1  -0.053419  0  -0.04014  -0.100139  0  4.09879  0
C  C93  1  0.50024024  0.98167243  0.01666533  1  -0.27877  0  -0.040031  -0.099592  0  4.099067  0
C  C94  1  0.50021563  0.98167845  0.48333806  1  -0.278968  0  -0.040191  -0.099901  0  4.099699  0
C  C95  1  0.49975752  0.01832151  0.51665953  1  -0.053836  0  -0.04006  -0.099779  0  4.099397  0
Cl  Cl96  1  0.61466021  0.31767962  0.60138833  1  -0.185421  0  0.015636  -0.048317  0  1.545794  0
Cl  Cl97  1  0.38534743  0.68232077  0.39860737  1  -0.185548  0  0.0156  -0.048342  0  1.54569  0
Cl  Cl98  1  0.38533951  0.68231820  0.10138734  1  -0.1853  0  0.015627  -0.048314  0  1.545966  0
Cl  Cl99  1  0.61465163  0.31768392  0.89861102  1  -0.185346  0  0.015617  -0.048296  0  1.545846  0
Cl  Cl100  1  0.11465120  0.18231493  0.89861334  1  -0.185339  0  0.015594  -0.048329  0  1.545821  0
Cl  Cl101  1  0.88534444  0.81767853  0.10139487  1  -0.185479  0  0.0156  -0.048345  0  1.545867  0
Cl  Cl102  1  0.88534336  0.81768327  0.39860656  1  -0.185651  0  0.015647  -0.048272  0  1.545864  0
Cl  Cl103  1  0.11464778  0.18231842  0.60139899  1  -0.185209  0  0.015616  -0.048323  0  1.545975  0
O  O104  1  0.68370474  0.80275416  0.19817232  1  -1.244947  0  -0.236712  -0.597613  0  2.399488  0
O  O105  1  0.31629240  0.19724537  0.80183248  1  -1.245009  0  -0.236741  -0.597739  0  2.399785  0
O  O106  1  0.31630087  0.19724624  0.69817163  1  -1.244917  0  -0.23672  -0.597669  0  2.399699  0
O  O107  1  0.68369477  0.80275588  0.30182938  1  -1.244801  0  -0.236748  -0.597783  0  2.399735  0
O  O108  1  0.18369537  0.69724752  0.30183208  1  -1.2451  0  -0.236716  -0.597559  0  2.400187  0
O  O109  1  0.81629427  0.30275288  0.69816931  1  -1.245267  0  -0.23672  -0.597626  0  2.400028  0
O  O110  1  0.81629780  0.30275590  0.80183319  1  -1.245245  0  -0.236711  -0.59756  0  2.400222  0
O  O111  1  0.18369634  0.69724233  0.19816933  1  -1.245152  0  -0.23669  -0.597587  0  2.40021  0
O  O112  1  0.34411456  0.80432024  0.30220803  1  -1.247799  0  -0.237341  -0.597649  0  2.350345  0
O  O113  1  0.65589158  0.19568015  0.69779070  1  -1.247788  0  -0.237351  -0.597663  0  2.350292  0
O  O114  1  0.65587409  0.19567971  0.80221043  1  -1.247673  0  -0.237364  -0.597613  0  2.350298  0
O  O115  1  0.34410355  0.80431549  0.19778944  1  -1.247588  0  -0.237291  -0.59758  0  2.350172  0
O  O116  1  0.84411679  0.69568093  0.19779055  1  -1.247471  0  -0.237373  -0.597693  0  2.350239  0
O  O117  1  0.15588035  0.30431947  0.80221084  1  -1.247403  0  -0.237434  -0.59775  0  2.350157  0
O  O118  1  0.15589033  0.30431818  0.69779262  1  -1.247339  0  -0.237281  -0.597622  0  2.349845  0
O  O119  1  0.84411430  0.69568135  0.30221028  1  -1.2475  0  -0.237342  -0.597674  0  2.350105  0
O  O120  1  0.51283210  0.71528116  0.25000226  1  -1.412138  0  -0.447382  -0.992875  0  2.213313  0
O  O121  1  0.48716804  0.28471880  0.75000064  1  -1.411984  0  -0.447392  -0.992826  0  2.213413  0
O  O122  1  0.01282697  0.78472106  0.25000116  1  -1.412018  0  -0.447311  -0.992827  0  2.213155  0
O  O123  1  0.98716117  0.21527890  0.75000061  1  -1.411919  0  -0.447392  -0.992755  0  2.213058  0
