# generated using pymatgen
data_CdH4C4(N2O3)2
_symmetry_space_group_name_H-M   'P 1'
_cell_length_a   7.17767467
_cell_length_b   9.44445295
_cell_length_c   12.72904093
_cell_angle_alpha   90.00028521
_cell_angle_beta   92.68630686
_cell_angle_gamma   89.99999528
_symmetry_Int_Tables_number   1
_chemical_formula_structural   CdH4C4(N2O3)2
_chemical_formula_sum   'Cd4 H16 C16 N16 O24'
_cell_volume   861.94340997
_cell_formula_units_Z   4
loop_
 _symmetry_equiv_pos_site_id
 _symmetry_equiv_pos_as_xyz
  1  'x, y, z'
loop_
 _atom_site_type_symbol
 _atom_site_label
 _atom_site_symmetry_multiplicity
 _atom_site_fract_x
 _atom_site_fract_y
 _atom_site_fract_z
 _atom_site_occupancy
 _atom_site_hle17_bader_spin_density
 _atom_site_hle17_ddec_charge
 _atom_site_hle17_ddec_spin_density
 _atom_site_hle17_ddec_sum_bond_order
 _atom_site_hle17_magmom
 _atom_site_hse06_10hf_bader_spin_density
 _atom_site_hse06_10hf_ddec_charge
 _atom_site_hse06_10hf_ddec_spin_density
 _atom_site_hse06_10hf_ddec_sum_bond_order
 _atom_site_hse06_10hf_magmom
 _atom_site_hse06_bader_spin_density
 _atom_site_hse06_ddec_charge
 _atom_site_hse06_ddec_spin_density
 _atom_site_hse06_ddec_sum_bond_order
 _atom_site_hse06_magmom
 _atom_site_pbe_bader_spin_density
 _atom_site_pbe_cm5_charge
 _atom_site_pbe_ddec_charge
 _atom_site_pbe_ddec_spin_density
 _atom_site_pbe_ddec_sum_bond_order
 _atom_site_pbe_magmom
Cd  Cd0  1  0.85831835  0.93997000  0.71754260  1  0  1.067635  0  1.682407  0  0  0.858491  0  2.128496  0  0  0.918782  0  2.076312  0  0  0.782882  0.816357  0  2.163249  0
Cd  Cd1  1  0.64168011  0.43996879  0.78245656  1  0  1.06765  0  1.682427  0  0  0.858483  0  2.128528  0  0  0.91878  0  2.076339  0  0  0.782878  0.816355  0  2.163269  0
Cd  Cd2  1  0.14168155  0.06002877  0.28245622  1  0  1.067655  0  1.682398  0  0  0.858497  0  2.128488  0  0  0.918792  0  2.076301  0  0  0.782893  0.816365  0  2.163233  0
Cd  Cd3  1  0.35832118  0.56002998  0.21754230  1  0  1.067638  0  1.682439  0  0  0.858463  0  2.128541  0  0  0.91876  0  2.076352  0  0  0.782877  0.816333  0  2.163294  0
H  H4  1  0.78951589  0.87689617  0.46900043  1  0  0.110119  0  0.980752  0  0  0.115737  0  1.046728  0  0  0.118386  0  1.044879  0  0  0.123611  0.113526  0  1.048974  0
H  H5  1  0.71048502  0.37689645  0.03099892  1  0  0.110132  0  0.980733  0  0  0.115743  0  1.04671  0  0  0.118389  0  1.044862  0  0  0.123608  0.113534  0  1.048953  0
H  H6  1  0.21048123  0.12310260  0.53099912  1  0  0.110101  0  0.980783  0  0  0.115725  0  1.046767  0  0  0.118369  0  1.044922  0  0  0.123582  0.113514  0  1.049009  0
H  H7  1  0.28951768  0.62310443  0.96900076  1  0  0.110169  0  0.980713  0  0  0.115776  0  1.046715  0  0  0.118428  0  1.044865  0  0  0.12361  0.113566  0  1.048961  0
H  H8  1  0.45295703  0.08681405  0.67663719  1  0  0.107037  0  0.918328  0  0  0.116089  0  0.977965  0  0  0.118491  0  0.976232  0  0  0.128486  0.114244  0  0.979474  0
H  H9  1  0.04704188  0.58681599  0.82336334  1  0  0.107011  0  0.918305  0  0  0.116066  0  0.977944  0  0  0.118479  0  0.976206  0  0  0.128478  0.114226  0  0.979451  0
H  H10  1  0.54704288  0.91318683  0.32336242  1  0  0.107007  0  0.91838  0  0  0.116064  0  0.97803  0  0  0.118474  0  0.976295  0  0  0.128486  0.11422  0  0.979542  0
H  H11  1  0.95296084  0.41318384  0.17663791  1  0  0.107022  0  0.918283  0  0  0.116077  0  0.977941  0  0  0.118489  0  0.976206  0  0  0.128483  0.114238  0  0.979447  0
H  H12  1  0.20820934  0.88358191  0.88167167  1  0  0.111075  0  0.952793  0  0  0.114384  0  1.021259  0  0  0.117675  0  1.018335  0  0  0.12486  0.111848  0  1.02407  0
H  H13  1  0.29177981  0.38358383  0.61832581  1  0  0.111023  0  0.952798  0  0  0.114351  0  1.021245  0  0  0.117642  0  1.01832  0  0  0.12484  0.111814  0  1.024055  0
H  H14  1  0.79178919  0.11641792  0.11832869  1  0  0.111038  0  0.952817  0  0  0.11435  0  1.021279  0  0  0.11764  0  1.018357  0  0  0.124844  0.111812  0  1.024088  0
H  H15  1  0.70821033  0.61641705  0.38167358  1  0  0.111071  0  0.952808  0  0  0.114373  0  1.021273  0  0  0.117664  0  1.018348  0  0  0.124853  0.111833  0  1.024086  0
H  H16  1  0.69575072  0.07546643  0.92899168  1  0  0.103235  0  0.946959  0  0  0.109524  0  1.010712  0  0  0.111945  0  1.008871  0  0  0.122685  0.107781  0  1.01206  0
H  H17  1  0.80424493  0.57545925  0.57101000  1  0  0.103327  0  0.946919  0  0  0.109625  0  1.01067  0  0  0.11205  0  1.008823  0  0  0.122735  0.107879  0  1.012016  0
H  H18  1  0.30424501  0.92453128  0.07100784  1  0  0.103225  0  0.946982  0  0  0.109546  0  1.010726  0  0  0.111967  0  1.008886  0  0  0.122716  0.107803  0  1.012073  0
H  H19  1  0.19575079  0.42453740  0.42898952  1  0  0.103262  0  0.946964  0  0  0.109557  0  1.010706  0  0  0.111981  0  1.008865  0  0  0.122702  0.107813  0  1.012055  0
C  C20  1  0.65966950  0.93143405  0.48329404  1  0  0.088263  0  3.62662  0  0  0.05683  0  3.879073  0  0  0.058986  0  3.898419  0  0  0.057508  0.054502  0  3.868562  0
C  C21  1  0.84033283  0.43143211  0.01670632  1  0  0.088246  0  3.626683  0  0  0.056846  0  3.879094  0  0  0.058995  0  3.898463  0  0  0.057528  0.054517  0  3.868586  0
C  C22  1  0.34033042  0.06856789  0.51670635  1  0  0.088328  0  3.626599  0  0  0.056862  0  3.879047  0  0  0.059014  0  3.898405  0  0  0.057549  0.054536  0  3.868534  0
C  C23  1  0.15967128  0.56856771  0.98329495  1  0  0.088192  0  3.626689  0  0  0.056728  0  3.879134  0  0  0.058873  0  3.898498  0  0  0.057481  0.054399  0  3.868632  0
C  C24  1  0.47522465  0.04835100  0.59766382  1  0  0.110996  0  3.634596  0  0  0.074549  0  3.896495  0  0  0.078394  0  3.913923  0  0  0.063013  0.071882  0  3.885964  0
C  C25  1  0.02477565  0.54835029  0.90233660  1  0  0.111099  0  3.634502  0  0  0.074637  0  3.896405  0  0  0.078471  0  3.913845  0  0  0.063056  0.071971  0  3.885877  0
C  C26  1  0.52477524  0.95165094  0.40233422  1  0  0.111124  0  3.634508  0  0  0.07462  0  3.896448  0  0  0.078455  0  3.913892  0  0  0.063043  0.071952  0  3.885925  0
C  C27  1  0.97522705  0.45165060  0.09766308  1  0  0.111067  0  3.634518  0  0  0.074542  0  3.896455  0  0  0.078373  0  3.913898  0  0  0.063024  0.071874  0  3.885926  0
C  C28  1  0.11390198  0.93437910  0.93471831  1  0  0.096454  0  3.622092  0  0  0.067714  0  3.8721  0  0  0.070461  0  3.889843  0  0  0.06011  0.065261  0  3.862162  0
C  C29  1  0.38609139  0.43437961  0.56528102  1  0  0.096503  0  3.622029  0  0  0.067739  0  3.871955  0  0  0.070489  0  3.889705  0  0  0.060108  0.065289  0  3.862014  0
C  C30  1  0.88609653  0.06562178  0.06528127  1  0  0.09646  0  3.6222  0  0  0.067696  0  3.87216  0  0  0.070441  0  3.889908  0  0  0.060115  0.065247  0  3.862216  0
C  C31  1  0.61390296  0.56562022  0.43471925  1  0  0.09646  0  3.622173  0  0  0.067723  0  3.872138  0  0  0.070471  0  3.889888  0  0  0.060116  0.065275  0  3.862197  0
C  C32  1  0.83209593  0.04136715  0.96028191  1  0  0.106984  0  3.636432  0  0  0.074888  0  3.890906  0  0  0.078513  0  3.908004  0  0  0.061567  0.072682  0  3.880007  0
C  C33  1  0.66789970  0.54136294  0.53971885  1  0  0.106949  0  3.636321  0  0  0.074801  0  3.890833  0  0  0.07842  0  3.907937  0  0  0.061549  0.072599  0  3.879929  0
C  C34  1  0.16789980  0.95863479  0.03971760  1  0  0.10704  0  3.636297  0  0  0.074844  0  3.890891  0  0  0.07847  0  3.907987  0  0  0.061553  0.07264  0  3.879993  0
C  C35  1  0.33209323  0.45863688  0.46028061  1  0  0.10695  0  3.636417  0  0  0.074825  0  3.890914  0  0  0.078439  0  3.908023  0  0  0.061551  0.072619  0  3.880016  0
N  N36  1  0.15726935  0.78559654  0.61971990  1  0  0.684897  0  4.154223  0  0  0.72102  0  4.436024  0  0  0.749237  0  4.443108  0  0  0.094763  0.702037  0  4.430764  0
N  N37  1  0.34273376  0.28559491  0.88027989  1  0  0.684751  0  4.154308  0  0  0.720859  0  4.436132  0  0  0.749081  0  4.443211  0  0  0.094639  0.701866  0  4.43088  0
N  N38  1  0.84273336  0.21440435  0.38028056  1  0  0.684849  0  4.154306  0  0  0.720973  0  4.436095  0  0  0.749194  0  4.443179  0  0  0.094692  0.70198  0  4.430845  0
N  N39  1  0.65727035  0.71440491  0.11972060  1  0  0.684935  0  4.154071  0  0  0.721085  0  4.435847  0  0  0.749318  0  4.442906  0  0  0.094732  0.7021  0  4.43059  0
N  N40  1  0.57778493  0.75028328  0.80257431  1  0  0.700604  0  4.10322  0  0  0.739511  0  4.380763  0  0  0.770877  0  4.384649  0  0  0.098455  0.718369  0  4.377494  0
N  N41  1  0.92221629  0.25028361  0.69742500  1  0  0.700597  0  4.103167  0  0  0.739451  0  4.380764  0  0  0.77082  0  4.384653  0  0  0.098423  0.71832  0  4.377482  0
N  N42  1  0.42221498  0.24971654  0.19742530  1  0  0.700316  0  4.10356  0  0  0.739379  0  4.380899  0  0  0.770751  0  4.384789  0  0  0.098418  0.718244  0  4.377621  0
N  N43  1  0.07778641  0.74971622  0.30257467  1  0  0.700617  0  4.10316  0  0  0.739599  0  4.380646  0  0  0.770975  0  4.384526  0  0  0.098493  0.71847  0  4.377365  0
N  N44  1  0.63493122  0.97997504  0.58080190  1  0  -0.274684  0  3.245694  0  0  -0.197353  0  3.508367  0  0  -0.215133  0  3.528687  0  0  -0.303606  -0.185293  0  3.494781  0
N  N45  1  0.86507005  0.47997473  0.91919826  1  0  -0.274723  0  3.245659  0  0  -0.197405  0  3.508356  0  0  -0.215188  0  3.528676  0  0  -0.303637  -0.185343  0  3.494769  0
N  N46  1  0.36507006  0.02002478  0.41919617  1  0  -0.274736  0  3.24559  0  0  -0.197376  0  3.5083  0  0  -0.215161  0  3.528625  0  0  -0.303635  -0.185315  0  3.494707  0
N  N47  1  0.13493266  0.52002615  0.08080220  1  0  -0.274644  0  3.245672  0  0  -0.197251  0  3.508321  0  0  -0.215033  0  3.528647  0  0  -0.303577  -0.185191  0  3.494737  0
N  N48  1  0.94583757  0.97575350  0.89534505  1  0  -0.277504  0  3.248871  0  0  -0.202627  0  3.509074  0  0  -0.22007  0  3.529264  0  0  -0.308837  -0.190687  0  3.495311  0
N  N49  1  0.55415672  0.47575111  0.60465494  1  0  -0.277539  0  3.248802  0  0  -0.202646  0  3.50904  0  0  -0.220086  0  3.529228  0  0  -0.308842  -0.190711  0  3.495276  0
N  N50  1  0.05416093  0.02424844  0.10465374  1  0  -0.277491  0  3.248878  0  0  -0.202582  0  3.509115  0  0  -0.220026  0  3.529306  0  0  -0.30884  -0.190646  0  3.495351  0
N  N51  1  0.44583762  0.52424872  0.39534534  1  0  -0.277491  0  3.248943  0  0  -0.202619  0  3.509161  0  0  -0.220058  0  3.529355  0  0  -0.30886  -0.190683  0  3.4954  0
O  O52  1  0.15975256  0.84806208  0.71024572  1  0  -0.502782  0  1.832846  0  0  -0.475309  0  2.072866  0  0  -0.497291  0  2.066267  0  0  -0.214628  -0.459692  0  2.076814  0
O  O53  1  0.34024501  0.34806091  0.78975575  1  0  -0.502767  0  1.832924  0  0  -0.47526  0  2.072892  0  0  -0.497229  0  2.066245  0  0  -0.214571  -0.459636  0  2.076836  0
O  O54  1  0.84024598  0.15193775  0.28975544  1  0  -0.502817  0  1.832908  0  0  -0.475284  0  2.072873  0  0  -0.497248  0  2.066223  0  0  -0.214592  -0.459662  0  2.07682  0
O  O55  1  0.65975492  0.65193892  0.21024543  1  0  -0.502811  0  1.832823  0  0  -0.47531  0  2.072788  0  0  -0.497282  0  2.066146  0  0  -0.214594  -0.459686  0  2.076733  0
O  O56  1  0.00100100  0.77525909  0.56893753  1  0  -0.482743  0  1.781046  0  0  -0.465625  0  1.999466  0  0  -0.482705  0  1.992749  0  0  -0.199796  -0.453525  0  2.003943  0
O  O57  1  0.49900210  0.27525673  0.93106143  1  0  -0.482671  0  1.781045  0  0  -0.465538  0  1.99944  0  0  -0.482619  0  1.992724  0  0  -0.19977  -0.453436  0  2.003932  0
O  O58  1  0.99900030  0.22474286  0.43106211  1  0  -0.482753  0  1.78103  0  0  -0.465621  0  1.999454  0  0  -0.4827  0  1.992736  0  0  -0.199807  -0.453516  0  2.003936  0
O  O59  1  0.50100479  0.72474309  0.06893834  1  0  -0.482725  0  1.781014  0  0  -0.465609  0  1.999419  0  0  -0.482699  0  1.992701  0  0  -0.199777  -0.4535  0  2.003884  0
O  O60  1  0.30449261  0.73984257  0.58506337  1  0  -0.404549  0  1.77396  0  0  -0.40738  0  1.984095  0  0  -0.419976  0  1.983768  0  0  -0.17201  -0.398521  0  1.984705  0
O  O61  1  0.19551053  0.23984225  0.91493860  1  0  -0.404479  0  1.773933  0  0  -0.40732  0  1.984097  0  0  -0.419918  0  1.983767  0  0  -0.171955  -0.398455  0  1.984713  0
O  O62  1  0.69550873  0.26015619  0.41493863  1  0  -0.404466  0  1.773993  0  0  -0.40735  0  1.984119  0  0  -0.419953  0  1.983792  0  0  -0.171953  -0.398486  0  1.984735  0
O  O63  1  0.80449640  0.76015864  0.08506431  1  0  -0.404596  0  1.773896  0  0  -0.407446  0  1.984015  0  0  -0.420049  0  1.983679  0  0  -0.172019  -0.398585  0  1.984631  0
O  O64  1  0.72681022  0.71258586  0.75571551  1  0  -0.513423  0  1.832627  0  0  -0.487975  0  2.076227  0  0  -0.511518  0  2.06819  0  0  -0.204697  -0.471183  0  2.08076  0
O  O65  1  0.77318683  0.21258545  0.74428514  1  0  -0.513437  0  1.832466  0  0  -0.487976  0  2.076113  0  0  -0.511507  0  2.068031  0  0  -0.204696  -0.471188  0  2.080647  0
O  O66  1  0.27318830  0.28741290  0.24428407  1  0  -0.513342  0  1.832658  0  0  -0.487948  0  2.076229  0  0  -0.51148  0  2.06815  0  0  -0.204712  -0.471157  0  2.080761  0
O  O67  1  0.22681306  0.78741332  0.25571369  1  0  -0.513473  0  1.832542  0  0  -0.48803  0  2.076118  0  0  -0.511567  0  2.068051  0  0  -0.204729  -0.471247  0  2.080657  0
O  O68  1  0.54516653  0.87875769  0.81608280  1  0  -0.405279  0  1.783234  0  0  -0.398868  0  1.998297  0  0  -0.413255  0  1.989796  0  0  -0.149764  -0.388771  0  2.003692  0
O  O69  1  0.95483333  0.37875898  0.68391695  1  0  -0.405286  0  1.783208  0  0  -0.39887  0  1.998292  0  0  -0.41327  0  1.989796  0  0  -0.149783  -0.388784  0  2.003695  0
O  O70  1  0.45483478  0.12124108  0.18391684  1  0  -0.405189  0  1.783307  0  0  -0.398829  0  1.998309  0  0  -0.413221  0  1.989812  0  0  -0.149754  -0.388731  0  2.0037  0
O  O71  1  0.04517219  0.62124085  0.31608514  1  0  -0.405293  0  1.783228  0  0  -0.398909  0  1.998269  0  0  -0.413307  0  1.989772  0  0  -0.149766  -0.388812  0  2.003651  0
O  O72  1  0.47094238  0.65395701  0.83279400  1  0  -0.426403  0  1.831946  0  0  -0.413606  0  2.063299  0  0  -0.43181  0  2.054923  0  0  -0.16462  -0.400833  0  2.068724  0
O  O73  1  0.02905514  0.15395609  0.66720596  1  0  -0.426378  0  1.832057  0  0  -0.413559  0  2.063422  0  0  -0.431754  0  2.055041  0  0  -0.164568  -0.40079  0  2.068849  0
O  O74  1  0.52905615  0.34604388  0.16720637  1  0  -0.426265  0  1.832106  0  0  -0.413542  0  2.063417  0  0  -0.431749  0  2.055042  0  0  -0.164577  -0.400774  0  2.068846  0
O  O75  1  0.97094756  0.84604268  0.33279371  1  0  -0.426373  0  1.831978  0  0  -0.413625  0  2.063328  0  0  -0.431837  0  2.054953  0  0  -0.164627  -0.400853  0  2.068748  0
