# generated using pymatgen
data_MgH8C14O3
_symmetry_space_group_name_H-M   'P 1'
_cell_length_a   6.86236955
_cell_length_b   35.80857813
_cell_length_c   35.80719923
_cell_angle_alpha   119.59302614
_cell_angle_beta   93.67357472
_cell_angle_gamma   93.65206578
_symmetry_Int_Tables_number   1
_chemical_formula_structural   MgH8C14O3
_chemical_formula_sum   'Mg6 H48 C84 O18'
_cell_volume   7589.24003865
_cell_formula_units_Z   6
loop_
 _symmetry_equiv_pos_site_id
 _symmetry_equiv_pos_as_xyz
  1  'x, y, z'
loop_
 _atom_site_type_symbol
 _atom_site_label
 _atom_site_symmetry_multiplicity
 _atom_site_fract_x
 _atom_site_fract_y
 _atom_site_fract_z
 _atom_site_occupancy
 _atom_site_pbe_bader_charge
 _atom_site_pbe_bader_spin_density
 _atom_site_pbe_cm5_charge
 _atom_site_pbe_ddec_charge
 _atom_site_pbe_ddec_spin_density
 _atom_site_pbe_ddec_sum_bond_order
 _atom_site_pbe_magmom
Mg  Mg0  1  0.59200765  0.69379440  0.32946290  1  1.68362  0  0.908744  1.410166  0  1.328082  0
Mg  Mg1  1  0.31283752  0.30524539  0.66937188  1  1.683383  0  0.910734  1.412997  0  1.325198  0
Mg  Mg2  1  0.26266635  0.67051331  0.36436506  1  1.684786  0  0.908751  1.411285  0  1.326636  0
Mg  Mg3  1  0.64338170  0.33063738  0.63588754  1  1.683606  0  0.910468  1.412215  0  1.326386  0
Mg  Mg4  1  0.89827221  0.63562913  0.30621828  1  1.681512  0  0.908638  1.409905  0  1.328671  0
Mg  Mg5  1  0.00759077  0.36412796  0.69475978  1  1.682147  0  0.91071  1.41256  0  1.325625  0
H  H6  1  0.12729343  0.57305782  0.18480497  1  0.098931  0  0.104519  0.108103  0  1.019501  0
H  H7  1  0.38682071  0.52897557  0.08150044  1  0.068752  0  0.097902  0.097427  0  1.029646  0
H  H8  1  0.99429839  0.54876566  0.11984238  1  0.027987  0  0.096078  0.092485  0  1.021664  0
H  H9  1  0.53488930  0.50703490  0.00361485  1  0.054302  0  0.100859  0.104819  0  0.997332  0
H  H10  1  0.74385566  0.54510404  0.07286671  1  0.014763  0  0.094362  0.089949  0  1.044878  0
H  H11  1  0.45483455  0.44531134  0.93312594  1  0.036596  0  0.097109  0.096697  0  1.027285  0
H  H12  1  0.82651040  0.43346720  0.88667646  1  0.065725  0  0.098507  0.097727  0  1.008474  0
H  H13  1  0.79134320  0.41169918  0.81423031  1  0.081634  0  0.103526  0.106387  0  1.020928  0
H  H14  1  0.07412129  0.37280248  0.79907242  1  0.041338  0  0.104515  0.119911  0  1.007255  0
H  H15  1  0.26203694  0.40798610  0.87150337  1  0.044831  0  0.100106  0.09647  0  1.018999  0
H  H16  1  0.88866043  0.39084105  0.91031358  1  0.064006  0  0.097423  0.098153  0  1.034448  0
H  H17  1  0.19687311  0.36299087  0.91905512  1  0.052263  0  0.101354  0.098777  0  0.991425  0
H  H18  1  0.40667785  0.40081216  0.99025322  1  0.092209  0  0.103588  0.102782  0  0.985535  0
H  H19  1  0.30308370  0.46502198  0.05134532  1  0.072965  0  0.099037  0.099446  0  1.033601  0
H  H20  1  0.66548911  0.57207787  0.12893890  1  0.036032  0  0.096159  0.08769  0  1.04805  0
H  H21  1  0.84037146  0.61870054  0.20207094  1  0.061837  0  0.106316  0.123381  0  1.00432  0
H  H22  1  0.94222966  0.81517649  0.38828962  1  0.088332  0  0.104473  0.108232  0  1.01987  0
H  H23  1  0.30524209  0.91849670  0.44744721  1  0.057179  0  0.098178  0.097537  0  1.029352  0
H  H24  1  0.87436814  0.88019770  0.42894080  1  0.031662  0  0.096091  0.092635  0  1.021474  0
H  H25  1  0.53106624  0.99640352  0.50336849  1  0.064766  0  0.101275  0.104984  0  0.997821  0
H  H26  1  0.67085476  0.92716156  0.47219232  1  0.035406  0  0.093779  0.089235  0  1.044959  0
H  H27  1  0.52193086  0.06696663  0.51222089  1  0.046685  0  0.096727  0.096498  0  1.026882  0
H  H28  1  0.94023496  0.11336932  0.54680119  1  0.045102  0  0.098868  0.097924  0  1.008254  0
H  H29  1  0.97739091  0.18586938  0.59750000  1  0.077726  0  0.103385  0.105719  0  1.021199  0
H  H30  1  0.27512922  0.20088491  0.57369393  1  0.076629  0  0.104555  0.12016  0  1.006953  0
H  H31  1  0.39093343  0.12851291  0.53649829  1  0.082563  0  0.100262  0.096331  0  1.019398  0
H  H32  1  0.97799959  0.08971022  0.48049827  1  0.063468  0  0.09689  0.097775  0  1.034787  0
H  H33  1  0.27741362  0.08098463  0.44389856  1  0.058884  0  0.100819  0.09798  0  0.991262  0
H  H34  1  0.41611653  0.00980594  0.41052433  1  0.091502  0  0.103678  0.102769  0  0.985272  0
H  H35  1  0.25156746  0.94870262  0.41364160  1  0.059927  0  0.099329  0.099303  0  1.034181  0
H  H36  1  0.53637533  0.87107314  0.44308812  1  0.040371  0  0.096341  0.088383  0  1.048157  0
H  H37  1  0.63818758  0.79795872  0.41658833  1  0.09463  0  0.105959  0.123063  0  1.004353  0
H  H38  1  0.55424929  0.61175602  0.42693313  1  0.083197  0  0.104516  0.108208  0  1.019625  0
H  H39  1  0.85715530  0.55244781  0.47101189  1  0.052454  0  0.09768  0.096942  0  1.029938  0
H  H40  1  0.44497410  0.57109893  0.45123806  1  0.032744  0  0.095722  0.092313  0  1.021481  0
H  H41  1  0.02765526  0.49655987  0.49297799  1  0.074519  0  0.101155  0.104974  0  0.997479  0
H  H42  1  0.19830728  0.52775103  0.45489652  1  0.031855  0  0.093817  0.089467  0  1.045437  0
H  H43  1  0.00958311  0.48781296  0.55470818  1  0.044423  0  0.097185  0.096589  0  1.027111  0
H  H44  1  0.39316679  0.45318032  0.56652902  1  0.047644  0  0.09883  0.097643  0  1.009152  0
H  H45  1  0.37969023  0.40255116  0.58837480  1  0.07509  0  0.103182  0.105634  0  1.021197  0
H  H46  1  0.70124189  0.42625967  0.62714090  1  0.069278  0  0.104282  0.119823  0  1.007606  0
H  H47  1  0.85404511  0.46349003  0.59197392  1  0.066226  0  0.100195  0.09653  0  1.019135  0
H  H48  1  0.49748566  0.51946455  0.60916701  1  0.070284  0  0.096933  0.097917  0  1.034516  0
H  H49  1  0.83364847  0.55605523  0.63703809  1  0.059741  0  0.101262  0.098767  0  0.991327  0
H  H50  1  0.00555629  0.58938674  0.59918663  1  0.086124  0  0.103636  0.10305  0  0.98556  0
H  H51  1  0.83781011  0.58630778  0.53500041  1  0.064119  0  0.099088  0.099537  0  1.03292  0
H  H52  1  0.09314313  0.55673676  0.42792762  1  0.048755  0  0.096299  0.087698  0  1.048986  0
H  H53  1  0.22164426  0.58326719  0.38135035  1  0.087978  0  0.10612  0.123353  0  1.004126  0
C  C54  1  0.58505115  0.62373994  0.23515564  1  0.568704  0  0.094753  0.367563  0  4.075105  0
C  C55  1  0.37855556  0.61020834  0.22922947  1  -0.011146  0  -0.040093  -0.203587  0  3.967428  0
C  C56  1  0.28294132  0.58329327  0.18732430  1  -0.041884  0  -0.079916  -0.107875  0  3.931105  0
C  C57  1  0.38063566  0.56915064  0.15028739  1  -0.013698  0  -0.025875  0.080843  0  4.076088  0
C  C58  1  0.28597384  0.54155122  0.10628213  1  -0.019735  0  -0.097218  -0.138971  0  4.008363  0
C  C59  1  0.08957183  0.53241455  0.09438779  1  -0.050581  0  -0.097209  -0.13118  0  4.012325  0
C  C60  1  0.98055489  0.50583788  0.05173519  1  0.04173  0  -0.012182  0.062549  0  4.010701  0
C  C61  1  0.04372742  0.46842368  0.01578468  1  0.030244  0  -0.004325  0.035745  0  3.919927  0
C  C62  1  0.92320759  0.44678077  0.97463020  1  -0.070541  0  -0.00449  0.03403  0  3.92029  0
C  C63  1  0.73961639  0.46227721  0.96976992  1  0.005986  0  -0.008997  0.067673  0  4.0075  0
C  C64  1  0.67702902  0.49606288  0.00641380  1  -0.057905  0  -0.095963  -0.137592  0  4.036852  0
C  C65  1  0.79512104  0.51729961  0.04587906  1  -0.069224  0  -0.099061  -0.139995  0  4.037283  0
C  C66  1  0.61175767  0.44465883  0.92936765  1  0.010882  0  -0.096939  -0.136803  0  4.014419  0
C  C67  1  0.66923900  0.43068114  0.88956663  1  -0.100724  0  -0.096166  -0.134795  0  4.027355  0
C  C68  1  0.54459816  0.41237481  0.84879217  1  -0.003204  0  -0.026607  0.078676  0  4.083137  0
C  C69  1  0.63370110  0.40315428  0.81165171  1  -0.041418  0  -0.083249  -0.117684  0  3.963524  0
C  C70  1  0.53020295  0.38264311  0.77019692  1  -0.04619  0  -0.043682  -0.207265  0  3.988156  0
C  C71  1  0.32327439  0.37053581  0.76496062  1  0.595964  0  0.095181  0.368812  0  4.076354  0
C  C72  1  0.23222610  0.38157872  0.80295260  1  0.018942  0  -0.106458  -0.216037  0  3.979599  0
C  C73  1  0.33856902  0.40146399  0.84341972  1  -0.020342  0  -0.078839  -0.080387  0  3.953701  0
C  C74  1  0.64433488  0.37403880  0.73385810  1  1.514782  0  0.23786  0.679639  0  4.124267  0
C  C75  1  0.98389665  0.40855356  0.94063711  1  -0.026335  0  -0.098229  -0.141287  0  4.013237  0
C  C76  1  0.15530240  0.39257944  0.94574662  1  -0.062451  0  -0.099153  -0.096527  0  4.071016  0
C  C77  1  0.27282899  0.41370857  0.98586501  1  -0.070299  0  -0.094549  -0.083458  0  4.049773  0
C  C78  1  0.21628530  0.45029657  0.01999991  1  -0.095174  0  -0.094088  -0.134177  0  3.995547  0
C  C79  1  0.58418637  0.58258856  0.15698625  1  -0.050819  0  -0.08282  -0.088811  0  3.988768  0
C  C80  1  0.68324104  0.60879210  0.19775238  1  -0.025916  0  -0.110293  -0.219869  0  3.997973  0
C  C81  1  0.26000593  0.62274663  0.26581297  1  1.528608  0  0.238716  0.678387  0  4.118635  0
C  C82  1  0.34983794  0.76485649  0.38857410  1  0.564227  0  0.094141  0.366122  0  4.076212  0
C  C83  1  0.14920231  0.77078087  0.38102106  1  0.00552  0  -0.040786  -0.203164  0  3.96592  0
C  C84  1  0.09535528  0.81267709  0.39601124  1  -0.065583  0  -0.078942  -0.108135  0  3.930428  0
C  C85  1  0.23005699  0.84971663  0.41886722  1  0.011773  0  -0.026498  0.081567  0  4.074819  0
C  C86  1  0.17953214  0.89373631  0.43528169  1  -0.064885  0  -0.097807  -0.139461  0  4.008126  0
C  C87  1  0.99507439  0.90565577  0.43804318  1  -0.005914  0  -0.096711  -0.130811  0  4.013386  0
C  C88  1  0.92867054  0.94830111  0.45408811  1  -0.04289  0  -0.013095  0.06118  0  4.01082  0
C  C89  1  0.02777548  0.98424463  0.45260120  1  -0.00815  0  -0.003311  0.036393  0  3.920598  0
C  C90  1  0.94832519  0.02538590  0.47209375  1  -0.022257  0  -0.004634  0.032245  0  3.922343  0
C  C91  1  0.76970552  0.03025035  0.49246558  1  -0.001434  0  -0.008551  0.069134  0  4.006796  0
C  C92  1  0.67034467  0.99361032  0.48958636  1  -0.005242  0  -0.096905  -0.138938  0  4.037234  0
C  C93  1  0.74903609  0.95415335  0.47137274  1  -0.078071  0  -0.097733  -0.137422  0  4.033579  0
C  C94  1  0.68263974  0.07069578  0.51530857  1  0.038512  0  -0.096228  -0.136899  0  4.011521  0
C  C95  1  0.78005703  0.11048092  0.54114089  1  -0.132481  0  -0.097002  -0.134916  0  4.026482  0
C  C96  1  0.69619743  0.15125235  0.56361764  1  0.047479  0  -0.026158  0.078561  0  4.08495  0
C  C97  1  0.82229580  0.18841506  0.59151822  1  -0.046245  0  -0.083524  -0.116779  0  3.964497  0
C  C98  1  0.76001493  0.22983959  0.61245189  1  -0.03763  0  -0.043972  -0.208139  0  3.989228  0
C  C99  1  0.55825038  0.23505086  0.60558029  1  0.609168  0  0.095782  0.369737  0  4.0744  0
C  C100  1  0.42937186  0.19703741  0.57863105  1  -0.125725  0  -0.106603  -0.216315  0  3.978394  0
C  C101  1  0.49550598  0.15659607  0.55807337  1  -0.001417  0  -0.078933  -0.080208  0  3.954064  0
C  C102  1  0.91040168  0.26618197  0.64019511  1  1.492966  0  0.238602  0.680518  0  4.121791  0
C  C103  1  0.04291734  0.05939273  0.46787400  1  -0.054143  0  -0.098115  -0.140975  0  4.014167  0
C  C104  1  0.20915509  0.05429061  0.44678799  1  -0.028608  0  -0.098484  -0.095  0  4.070767  0
C  C105  1  0.28665710  0.01418679  0.42780399  1  -0.07362  0  -0.094311  -0.083242  0  4.050899  0
C  C106  1  0.19608060  0.98004657  0.43026215  1  -0.110477  0  -0.094743  -0.134092  0  3.997481  0
C  C107  1  0.42700652  0.84302620  0.42556485  1  -0.082833  0  -0.083191  -0.090676  0  3.989451  0
C  C108  1  0.48535032  0.80226697  0.41100330  1  0.009716  0  -0.109514  -0.21846  0  3.997146  0
C  C109  1  0.99417469  0.73417318  0.35696586  1  1.514205  0  0.238411  0.678212  0  4.119538  0
C  C110  1  0.96144686  0.61135396  0.37629199  1  0.603866  0  0.094283  0.367384  0  4.07558  0
C  C111  1  0.76847887  0.61897996  0.38980896  1  -0.01839  0  -0.039247  -0.202766  0  3.966236  0
C  C112  1  0.69963057  0.60400453  0.41670878  1  -0.050262  0  -0.080102  -0.107981  0  3.930904  0
C  C113  1  0.81123363  0.58106816  0.43083807  1  0.030432  0  -0.026232  0.080292  0  4.075807  0
C  C114  1  0.74383107  0.56466615  0.45841280  1  -0.037404  0  -0.097234  -0.13842  0  4.008702  0
C  C115  1  0.55657866  0.56195341  0.46756825  1  -0.056236  0  -0.096338  -0.130542  0  4.013428  0
C  C116  1  0.47429619  0.54589311  0.49416256  1  -0.004955  0  -0.01205  0.06227  0  4.012016  0
C  C117  1  0.57499747  0.54735188  0.53157425  1  -0.020653  0  -0.004478  0.035847  0  3.920802  0
C  C118  1  0.47623477  0.52786129  0.55323738  1  0.017205  0  -0.004714  0.031738  0  3.9236  0
C  C119  1  0.27722873  0.50749482  0.53772537  1  -0.04981  0  -0.008175  0.069121  0  4.00649  0
C  C120  1  0.18072681  0.51034472  0.50394472  1  -0.003716  0  -0.096753  -0.138168  0  4.037074  0
C  C121  1  0.27744841  0.52856226  0.48269645  1  -0.074102  0  -0.098232  -0.138683  0  4.036578  0
C  C122  1  0.16716951  0.48469795  0.55534936  1  0.010093  0  -0.09768  -0.137731  0  4.013025  0
C  C123  1  0.23868534  0.45886500  0.56931323  1  -0.093109  0  -0.096604  -0.134629  0  4.027802  0
C  C124  1  0.13229027  0.43640186  0.58761462  1  0.016031  0  -0.026207  0.07931  0  4.08375  0
C  C125  1  0.23056186  0.40851265  0.59688826  1  -0.02623  0  -0.08262  -0.116105  0  3.964036  0
C  C126  1  0.14750449  0.38757337  0.61738594  1  -0.013814  0  -0.044083  -0.208888  0  3.989236  0
C  C127  1  0.95258505  0.39441740  0.62945025  1  0.523327  0  0.094916  0.369504  0  4.074926  0
C  C128  1  0.85054414  0.42133990  0.61836009  1  0.020537  0  -0.105946  -0.21638  0  3.980667  0
C  C129  1  0.93712888  0.44192016  0.59848647  1  -0.054294  0  -0.079215  -0.08051  0  3.955202  0
C  C130  1  0.27025382  0.35983898  0.62600109  1  1.502038  0  0.237561  0.679751  0  4.122578  0
C  C131  1  0.57503514  0.53208464  0.59147264  1  -0.181964  0  -0.097956  -0.140435  0  4.013513  0
C  C132  1  0.76241547  0.55314917  0.60744959  1  0.020386  0  -0.09851  -0.095669  0  4.071012  0
C  C133  1  0.85877798  0.57211343  0.58629973  1  -0.084787  0  -0.09462  -0.084316  0  4.051085  0
C  C134  1  0.76567840  0.56967941  0.54971014  1  -0.033331  0  -0.09406  -0.133664  0  3.994407  0
C  C135  1  0.00139754  0.57429043  0.41742078  1  -0.122452  0  -0.082678  -0.089007  0  3.987788  0
C  C136  1  0.07439638  0.58885998  0.39123292  1  0.008112  0  -0.110066  -0.21981  0  3.996228  0
C  C137  1  0.63745534  0.64303484  0.37726137  1  1.509304  0  0.238391  0.678212  0  4.119136  0
O  O138  1  0.07978157  0.60817915  0.25981120  1  -1.246724  0  -0.35458  -0.64369  0  2.14992  0
O  O139  1  0.34381566  0.64951516  0.30437843  1  -1.30141  0  -0.401295  -0.767453  0  2.412396  0
O  O140  1  0.68917994  0.64928396  0.27380791  1  -1.309766  0  -0.449315  -0.778965  0  2.313289  0
O  O141  1  0.82373857  0.38930583  0.74042220  1  -1.243065  0  -0.358867  -0.645788  0  2.148414  0
O  O142  1  0.55814255  0.34978413  0.69499921  1  -1.301973  0  -0.404166  -0.7687  0  2.422254  0
O  O143  1  0.21448917  0.34905178  0.72641457  1  -1.318303  0  -0.442724  -0.776233  0  2.305713  0
O  O144  1  0.81994094  0.74017061  0.34838367  1  -1.242749  0  -0.354025  -0.643892  0  2.150639  0
O  O145  1  0.03946587  0.69561714  0.34519515  1  -1.296641  0  -0.401213  -0.767128  0  2.413401  0
O  O146  1  0.41537903  0.72620840  0.37547707  1  -1.306782  0  -0.449171  -0.778736  0  2.312755  0
O  O147  1  0.08326732  0.25960915  0.64888266  1  -1.244113  0  -0.358946  -0.645974  0  2.147612  0
O  O148  1  0.86302301  0.30503599  0.65482827  1  -1.293301  0  -0.404937  -0.769184  0  2.42163  0
O  O149  1  0.48786123  0.27358169  0.62262253  1  -1.304569  0  -0.442902  -0.776873  0  2.304655  0
O  O150  1  0.47183724  0.65162631  0.39184542  1  -1.241568  0  -0.354504  -0.644322  0  2.1502  0
O  O151  1  0.69440965  0.65478831  0.35045749  1  -1.294351  0  -0.401409  -0.766798  0  2.413221  0
O  O152  1  0.04011473  0.62445980  0.35075055  1  -1.312809  0  -0.449412  -0.779557  0  2.312388  0
O  O153  1  0.43439616  0.35114865  0.61073584  1  -1.2465  0  -0.358369  -0.645384  0  2.148068  0
O  O154  1  0.20829798  0.34520663  0.65022807  1  -1.290252  0  -0.404239  -0.768701  0  2.421698  0
O  O155  1  0.86528067  0.37736943  0.65094641  1  -1.307652  0  -0.442489  -0.776306  0  2.304246  0
