# generated using pymatgen
data_ZnH12C15SN3O4
_symmetry_space_group_name_H-M   'P 1'
_cell_length_a   12.29723647
_cell_length_b   20.10457796
_cell_length_c   20.10460994
_cell_angle_alpha   102.61771765
_cell_angle_beta   94.88550064
_cell_angle_gamma   94.88546652
_symmetry_Int_Tables_number   1
_chemical_formula_structural   ZnH12C15SN3O4
_chemical_formula_sum   'Zn8 H96 C120 S8 N24 O32'
_cell_volume   4805.21318330
_cell_formula_units_Z   8
loop_
 _symmetry_equiv_pos_site_id
 _symmetry_equiv_pos_as_xyz
  1  'x, y, z'
loop_
 _atom_site_type_symbol
 _atom_site_label
 _atom_site_symmetry_multiplicity
 _atom_site_fract_x
 _atom_site_fract_y
 _atom_site_fract_z
 _atom_site_occupancy
 _atom_site_pbe_bader_charge
 _atom_site_pbe_bader_spin_density
 _atom_site_pbe_cm5_charge
 _atom_site_pbe_ddec_charge
 _atom_site_pbe_ddec_spin_density
 _atom_site_pbe_ddec_sum_bond_order
 _atom_site_pbe_magmom
Zn  Zn0  1  0.90415625  0.52928393  0.01708626  1  1.274869  0  0.667256  0.816839  0  2.380041  0
Zn  Zn1  1  0.59584156  0.98291270  0.47071677  1  1.275034  0  0.66719  0.816714  0  2.380373  0
Zn  Zn2  1  0.09584254  0.47071779  0.98291338  1  1.274966  0  0.667241  0.816775  0  2.380242  0
Zn  Zn3  1  0.40415660  0.01708543  0.52928305  1  1.275  0  0.667296  0.816844  0  2.38002  0
Zn  Zn4  1  0.70296561  0.79062011  0.05922756  1  1.286829  0  0.69032  0.864985  0  2.315801  0
Zn  Zn5  1  0.79703495  0.94077089  0.20937859  1  1.286843  0  0.690328  0.864989  0  2.315794  0
Zn  Zn6  1  0.29703437  0.20937905  0.94077208  1  1.286852  0  0.690291  0.864927  0  2.315879  0
Zn  Zn7  1  0.20296675  0.05922878  0.79062076  1  1.286963  0  0.690303  0.864964  0  2.315869  0
H  H8  1  0.85368311  0.67499050  0.07485289  1  0.079244  0  0.125451  0.100142  0  0.976442  0
H  H9  1  0.64631727  0.92514723  0.32500902  1  0.079108  0  0.125447  0.100125  0  0.97646  0
H  H10  1  0.14631696  0.32500917  0.92514637  1  0.079231  0  0.125446  0.100128  0  0.976452  0
H  H11  1  0.35368370  0.07485295  0.67499041  1  0.079238  0  0.125443  0.100132  0  0.976437  0
H  H12  1  0.78817378  0.65420739  0.98914682  1  0.119988  0  0.130457  0.113107  0  0.973918  0
H  H13  1  0.71182566  0.01085350  0.34579226  1  0.119968  0  0.13047  0.113122  0  0.973833  0
H  H14  1  0.21182556  0.34579279  0.01085301  1  0.119977  0  0.130463  0.113118  0  0.9739  0
H  H15  1  0.28817539  0.98914719  0.65420778  1  0.119988  0  0.130473  0.113134  0  0.973824  0
H  H16  1  0.67273630  0.54623930  0.94780886  1  0.094378  0  0.12807  0.10003  0  0.944637  0
H  H17  1  0.82726360  0.05219111  0.45376101  1  0.094403  0  0.128082  0.100062  0  0.944633  0
H  H18  1  0.32726394  0.45376139  0.05219113  1  0.094409  0  0.12809  0.10009  0  0.944587  0
H  H19  1  0.17273646  0.94780856  0.54623924  1  0.094398  0  0.128084  0.10007  0  0.944599  0
H  H20  1  0.64996047  0.48980099  0.00418639  1  0.089063  0  0.123347  0.090155  0  0.978615  0
H  H21  1  0.85004002  0.99581387  0.51019868  1  0.089074  0  0.12334  0.090152  0  0.978633  0
H  H22  1  0.35004041  0.51019867  0.99581341  1  0.08907  0  0.123332  0.09014  0  0.978643  0
H  H23  1  0.14995923  0.00418580  0.48980103  1  0.089077  0  0.123339  0.090164  0  0.978601  0
H  H24  1  0.73868519  0.51925432  0.11980097  1  0.084285  0  0.125409  0.099872  0  0.968656  0
H  H25  1  0.76131660  0.88019955  0.48074612  1  0.084281  0  0.125391  0.099856  0  0.968638  0
H  H26  1  0.26131587  0.48074637  0.88019906  1  0.084269  0  0.125396  0.099836  0  0.968675  0
H  H27  1  0.23868356  0.11980063  0.51925375  1  0.084277  0  0.125401  0.099855  0  0.968653  0
H  H28  1  0.82428056  0.59835658  0.15022309  1  0.096415  0  0.125558  0.100377  0  0.961992  0
H  H29  1  0.67571979  0.84977697  0.40164310  1  0.096434  0  0.125534  0.100325  0  0.96196  0
H  H30  1  0.17572032  0.40164309  0.84977671  1  0.096431  0  0.125563  0.100372  0  0.961977  0
H  H31  1  0.32427955  0.15022321  0.59835673  1  0.096436  0  0.125535  0.100315  0  0.961969  0
H  H32  1  0.51206279  0.67565776  0.03718851  1  0.089379  0  0.124184  0.091824  0  0.9605  0
H  H33  1  0.98793745  0.96281162  0.32434196  1  0.089366  0  0.124175  0.091822  0  0.960526  0
H  H34  1  0.48793727  0.32434191  0.96281224  1  0.08938  0  0.124161  0.091806  0  0.960513  0
H  H35  1  0.01206433  0.03718856  0.67565850  1  0.089396  0  0.12418  0.091834  0  0.960504  0
H  H36  1  0.59397115  0.65416225  0.96742913  1  0.103052  0  0.125596  0.099123  0  0.968684  0
H  H37  1  0.90602913  0.03257062  0.34583705  1  0.103049  0  0.125603  0.099147  0  0.968706  0
H  H38  1  0.40602882  0.34583691  0.03257101  1  0.10304  0  0.125578  0.099121  0  0.968686  0
H  H39  1  0.09397166  0.96742854  0.65416313  1  0.103027  0  0.125578  0.09912  0  0.96872  0
H  H40  1  0.54343017  0.51950716  0.09683746  1  0.071655  0  0.121381  0.087133  0  0.965905  0
H  H41  1  0.95657089  0.90316354  0.48049259  1  0.071642  0  0.121382  0.08713  0  0.965896  0
H  H42  1  0.45657070  0.48049251  0.90316383  1  0.071642  0  0.121381  0.087111  0  0.965905  0
H  H43  1  0.04342917  0.09683613  0.51950767  1  0.071649  0  0.121382  0.087115  0  0.965918  0
H  H44  1  0.48472027  0.59941846  0.11175016  1  0.074338  0  0.117961  0.079462  0  0.997227  0
H  H45  1  0.01528070  0.88824995  0.40058176  1  0.074317  0  0.117961  0.079482  0  0.997208  0
H  H46  1  0.51528061  0.40058121  0.88825014  1  0.074326  0  0.117962  0.079471  0  0.997194  0
H  H47  1  0.98471936  0.11174972  0.59941849  1  0.074328  0  0.117959  0.079475  0  0.997206  0
H  H48  1  0.74406574  0.70469893  0.17011577  1  0.059377  0  0.122077  0.091273  0  0.949904  0
H  H49  1  0.75593521  0.82988418  0.29530121  1  0.059121  0  0.122081  0.091296  0  0.949921  0
H  H50  1  0.25593523  0.29530125  0.82988415  1  0.059124  0  0.122082  0.091298  0  0.949924  0
H  H51  1  0.24406322  0.17011549  0.70469797  1  0.059397  0  0.122083  0.091293  0  0.949963  0
H  H52  1  0.59906296  0.70518145  0.15338173  1  0.095028  0  0.118823  0.087297  0  0.999  0
H  H53  1  0.90093717  0.84661796  0.29481856  1  0.095032  0  0.118816  0.087284  0  0.999005  0
H  H54  1  0.40093719  0.29481873  0.84661815  1  0.095023  0  0.11882  0.08729  0  0.999001  0
H  H55  1  0.09906208  0.15338171  0.70518066  1  0.095039  0  0.118843  0.087301  0  0.999015  0
H  H56  1  0.77382515  0.39266333  0.13806603  1  0.079949  0  0.098696  0.102629  0  1.014418  0
H  H57  1  0.72617490  0.86193400  0.60733665  1  0.079952  0  0.098697  0.102632  0  1.014421  0
H  H58  1  0.22617229  0.60733532  0.86193286  1  0.079973  0  0.098676  0.102617  0  1.014419  0
H  H59  1  0.27382770  0.13806618  0.39266386  1  0.079962  0  0.098708  0.102676  0  1.014381  0
H  H60  1  0.72005108  0.29777008  0.19462500  1  0.072486  0  0.102984  0.108013  0  0.990139  0
H  H61  1  0.77994989  0.80537509  0.70222981  1  0.072457  0  0.103016  0.108037  0  0.990127  0
H  H62  1  0.27994808  0.70222908  0.80537460  1  0.072489  0  0.102977  0.107988  0  0.990171  0
H  H63  1  0.22005298  0.19462662  0.29777104  1  0.07246  0  0.103003  0.108056  0  0.990065  0
H  H64  1  0.75719086  0.18703839  0.22372609  1  0.100689  0  0.105039  0.113712  0  1.014051  0
H  H65  1  0.74281064  0.77627431  0.81296160  1  0.100671  0  0.105083  0.113778  0  1.013981  0
H  H66  1  0.24281020  0.81296230  0.77627345  1  0.100627  0  0.105084  0.113757  0  1.014019  0
H  H67  1  0.25719114  0.22372586  0.18703886  1  0.100683  0  0.105034  0.113693  0  1.014048  0
H  H68  1  0.04010512  0.09061720  0.15597772  1  0.094057  0  0.095889  0.10738  0  1.023283  0
H  H69  1  0.45989567  0.84402274  0.90938272  1  0.094073  0  0.095896  0.107389  0  1.023245  0
H  H70  1  0.95989602  0.90938401  0.84402293  1  0.094009  0  0.095887  0.107376  0  1.023288  0
H  H71  1  0.54010657  0.15598000  0.09061683  1  0.093914  0  0.095864  0.107343  0  1.023307  0
H  H72  1  0.09981284  0.18962773  0.10710997  1  0.115673  0  0.100722  0.114749  0  1.023213  0
H  H73  1  0.40018834  0.89289081  0.81037152  1  0.115681  0  0.100711  0.114749  0  1.023192  0
H  H74  1  0.90018740  0.81037297  0.89289051  1  0.115654  0  0.100707  0.114737  0  1.023172  0
H  H75  1  0.59981535  0.10711091  0.18962689  1  0.11572  0  0.100723  0.114756  0  1.023253  0
H  H76  1  0.06615533  0.30065751  0.08149424  1  0.10428  0  0.109402  0.124864  0  1.004531  0
H  H77  1  0.43384441  0.91850384  0.69934155  1  0.104293  0  0.109428  0.124857  0  1.004565  0
H  H78  1  0.93384329  0.69934318  0.91850367  1  0.104286  0  0.109387  0.124834  0  1.004595  0
H  H79  1  0.56615648  0.08149583  0.30065726  1  0.104288  0  0.109373  0.124851  0  1.004593  0
H  H80  1  0.32843194  0.60150744  0.13280644  1  0.070213  0  0.096558  0.095539  0  1.046314  0
H  H81  1  0.17156714  0.86719376  0.39849139  1  0.070235  0  0.096555  0.095528  0  1.046374  0
H  H82  1  0.67156812  0.39849222  0.86719282  1  0.07022  0  0.096556  0.095517  0  1.04633  0
H  H83  1  0.82843283  0.13280540  0.60150974  1  0.07028  0  0.096565  0.095496  0  1.046339  0
H  H84  1  0.03818950  0.68102242  0.20629058  1  0.054705  0  0.10228  0.106183  0  1.007126  0
H  H85  1  0.46180884  0.79371107  0.31897549  1  0.054717  0  0.1023  0.106217  0  1.007155  0
H  H86  1  0.96180984  0.31897776  0.79371025  1  0.054716  0  0.102285  0.106205  0  1.007116  0
H  H87  1  0.53818968  0.20628911  0.68102529  1  0.054663  0  0.102283  0.106189  0  1.007161  0
H  H88  1  0.44682802  0.69072043  0.22273164  1  0.023971  0  0.09815  0.098176  0  1.010825  0
H  H89  1  0.05317310  0.77726780  0.30928041  1  0.023954  0  0.098143  0.098179  0  1.010833  0
H  H90  1  0.55317295  0.30927975  0.77726828  1  0.023973  0  0.098149  0.098195  0  1.010831  0
H  H91  1  0.94682777  0.22273186  0.69072088  1  0.02397  0  0.098145  0.098182  0  1.0108  0
H  H92  1  0.02675787  0.74550104  0.03658948  1  0.090998  0  0.104232  0.110962  0  1.024735  0
H  H93  1  0.47324232  0.96341043  0.25449780  1  0.090792  0  0.104191  0.110885  0  1.024818  0
H  H94  1  0.97324519  0.25449709  0.96341109  1  0.090777  0  0.104192  0.110907  0  1.024806  0
H  H95  1  0.52675620  0.03658975  0.74550299  1  0.090807  0  0.104185  0.110847  0  1.024814  0
H  H96  1  0.08183234  0.91476783  0.21291982  1  0.08532  0  0.103354  0.106924  0  1.011837  0
H  H97  1  0.41816847  0.78708110  0.08523118  1  0.085394  0  0.10335  0.106891  0  1.011817  0
H  H98  1  0.91816682  0.08523132  0.78707928  1  0.0854  0  0.103356  0.10692  0  1.011771  0
H  H99  1  0.58183441  0.21292062  0.91476868  1  0.085365  0  0.103367  0.106936  0  1.011763  0
H  H100  1  0.22774004  0.74044362  0.03549794  1  0.058667  0  0.102699  0.104544  0  0.996076  0
H  H101  1  0.27225958  0.96450116  0.25955676  1  0.058736  0  0.102669  0.104527  0  0.996004  0
H  H102  1  0.77226175  0.25955656  0.96450153  1  0.058516  0  0.102712  0.10458  0  0.996039  0
H  H103  1  0.72773884  0.03549851  0.74044391  1  0.058527  0  0.102672  0.104509  0  0.996025  0
C  C104  1  0.77911708  0.65025073  0.04193987  1  0.54149  0  0.019717  -0.000306  0  3.812015  0
C  C105  1  0.72088251  0.95806025  0.34974889  1  0.541644  0  0.019708  -0.000271  0  3.811862  0
C  C106  1  0.22088225  0.34974946  0.95805996  1  0.541503  0  0.019732  -0.000274  0  3.811894  0
C  C107  1  0.27911764  0.04193993  0.65025098  1  0.541492  0  0.019722  -0.000288  0  3.811869  0
C  C108  1  0.66170092  0.54364738  0.00083966  1  0.525163  0  0.02551  0.01198  0  3.860674  0
C  C109  1  0.83829955  0.99916074  0.45635229  1  0.525118  0  0.025473  0.011906  0  3.860783  0
C  C110  1  0.33829914  0.45635228  0.99916059  1  0.525124  0  0.025494  0.011929  0  3.86069  0
C  C111  1  0.16170061  0.00083944  0.54364808  1  0.525136  0  0.025503  0.011942  0  3.860687  0
C  C112  1  0.74909639  0.57347380  0.11784967  1  0.53587  0  0.022617  0.008332  0  3.859334  0
C  C113  1  0.75090583  0.88215078  0.42652602  1  0.535888  0  0.022649  0.008436  0  3.859205  0
C  C114  1  0.25090540  0.42652638  0.88215029  1  0.535923  0  0.022651  0.008411  0  3.85927  0
C  C115  1  0.24909433  0.11784940  0.57347386  1  0.535882  0  0.022669  0.008474  0  3.859289  0
C  C116  1  0.58301403  0.64958015  0.01993399  1  0.521246  0  0.023764  0.006872  0  3.874337  0
C  C117  1  0.91698573  0.98006656  0.35041943  1  0.521234  0  0.023763  0.006842  0  3.874304  0
C  C118  1  0.41698521  0.35041952  0.98006623  1  0.521252  0  0.023804  0.006883  0  3.874313  0
C  C119  1  0.08301524  0.01993362  0.64958049  1  0.521224  0  0.023771  0.006796  0  3.874362  0
C  C120  1  0.55598777  0.57371884  0.09466455  1  0.534989  0  0.022987  0.011979  0  3.912065  0
C  C121  1  0.94401356  0.90533579  0.42628090  1  0.535024  0  0.022979  0.011972  0  3.912013  0
C  C122  1  0.44401319  0.42628134  0.90533636  1  0.535024  0  0.023027  0.012078  0  3.91201  0
C  C123  1  0.05598651  0.09466388  0.57371886  1  0.534819  0  0.022994  0.012005  0  3.912115  0
C  C124  1  0.66999214  0.67881908  0.13695531  1  0.544094  0  0.020213  0.009966  0  3.889645  0
C  C125  1  0.83000795  0.86304389  0.32118067  1  0.544079  0  0.0202  0.009981  0  3.889679  0
C  C126  1  0.33000793  0.32118059  0.86304444  1  0.544082  0  0.020217  0.009967  0  3.88965  0
C  C127  1  0.16999211  0.13695578  0.67881959  1  0.544075  0  0.020251  0.010051  0  3.889657  0
C  C128  1  0.95222383  0.40798427  0.07043366  1  1.563387  0  0.215712  0.592804  0  4.166288  0
C  C129  1  0.54776723  0.92956954  0.59201942  1  1.563343  0  0.215622  0.592696  0  4.166073  0
C  C130  1  0.04776706  0.59201900  0.92956988  1  1.563327  0  0.215688  0.592856  0  4.165968  0
C  C131  1  0.45222076  0.07043118  0.40798340  1  1.563356  0  0.215777  0.592933  0  4.166052  0
C  C132  1  0.92315584  0.35197865  0.10608564  1  0.010439  0  -0.02266  -0.038813  0  3.991052  0
C  C133  1  0.57684156  0.89391134  0.64802075  1  0.010625  0  -0.022637  -0.038762  0  3.99107  0
C  C134  1  0.07684024  0.64802153  0.89391203  1  0.010608  0  -0.022614  -0.038773  0  3.991049  0
C  C135  1  0.42315833  0.10608731  0.35197877  1  0.010566  0  -0.022698  -0.038833  0  3.991176  0
C  C136  1  0.82492165  0.35107908  0.13856895  1  -0.052613  0  -0.094355  -0.109277  0  4.023694  0
C  C137  1  0.67507809  0.86143006  0.64892073  1  -0.052598  0  -0.094394  -0.109346  0  4.023742  0
C  C138  1  0.17507524  0.64892110  0.86143025  1  -0.052545  0  -0.094329  -0.109268  0  4.023691  0
C  C139  1  0.32492279  0.13856961  0.35107957  1  -0.052507  0  -0.094383  -0.109323  0  4.023672  0
C  C140  1  0.79548598  0.29875851  0.16973772  1  -0.072371  0  -0.090425  -0.13073  0  3.998483  0
C  C141  1  0.70451637  0.83026212  0.70124087  1  -0.072396  0  -0.090428  -0.130721  0  3.998361  0
C  C142  1  0.20451409  0.70124116  0.83026154  1  -0.072409  0  -0.090432  -0.130718  0  3.998464  0
C  C143  1  0.29548723  0.16973909  0.29875942  1  -0.07245  0  -0.090435  -0.130823  0  3.998366  0
C  C144  1  0.86200423  0.24424368  0.16920782  1  -0.033552  0  -0.008672  0.073797  0  4.015563  0
C  C145  1  0.63799674  0.83079230  0.75575636  1  -0.033553  0  -0.008658  0.073857  0  4.015382  0
C  C146  1  0.13799583  0.75575598  0.83079094  1  -0.033555  0  -0.008649  0.073851  0  4.015468  0
C  C147  1  0.36200712  0.16921044  0.24424477  1  -0.033792  0  -0.008692  0.073896  0  4.015269  0
C  C148  1  0.83224063  0.18846413  0.19857029  1  -0.037969  0  -0.081909  -0.143607  0  3.933542  0
C  C149  1  0.66776146  0.80143033  0.81153603  1  -0.038005  0  -0.081942  -0.143665  0  3.933489  0
C  C150  1  0.16775962  0.81153656  0.80142970  1  -0.037958  0  -0.081955  -0.143619  0  3.933447  0
C  C151  1  0.33224222  0.19857138  0.18846388  1  -0.037901  0  -0.081897  -0.14361  0  3.933505  0
C  C152  1  0.89507358  0.13391881  0.19352361  1  -0.042345  0  -0.027357  -0.037985  0  4.010205  0
C  C153  1  0.60492777  0.80647743  0.86608044  1  -0.042302  0  -0.027368  -0.037979  0  4.010203  0
C  C154  1  0.10492593  0.86608240  0.80647745  1  -0.042296  0  -0.027387  -0.03807  0  4.010321  0
C  C155  1  0.39507437  0.19352480  0.13391999  1  -0.042481  0  -0.027342  -0.037967  0  4.010254  0
C  C156  1  0.99280285  0.13445950  0.16048942  1  0.023744  0  -0.098353  -0.118779  0  4.023925  0
C  C157  1  0.50719822  0.83951133  0.86554038  1  0.023738  0  -0.098347  -0.118773  0  4.023918  0
C  C158  1  0.00719748  0.86554170  0.83951069  1  0.023959  0  -0.098346  -0.118749  0  4.023977  0
C  C159  1  0.49280637  0.16049090  0.13445968  1  0.024156  0  -0.098364  -0.118761  0  4.02392  0
C  C160  1  0.02551951  0.18904768  0.13313763  1  -0.138132  0  -0.089752  -0.12819  0  3.97161  0
C  C161  1  0.47448121  0.86686243  0.81095227  1  -0.138119  0  -0.089764  -0.128219  0  3.971576  0
C  C162  1  0.97448001  0.81095352  0.86686194  1  -0.138361  0  -0.089732  -0.128163  0  3.971582  0
C  C163  1  0.52552375  0.13313723  0.18904576  1  -0.138291  0  -0.089743  -0.128187  0  3.971668  0
C  C164  1  0.96096562  0.24478157  0.13618324  1  0.015385  0  -0.005532  0.074922  0  3.999054  0
C  C165  1  0.53903587  0.86381516  0.75521815  1  0.015415  0  -0.005489  0.074936  0  3.999034  0
C  C166  1  0.03903373  0.75521861  0.86381461  1  0.015445  0  -0.005521  0.074894  0  3.999076  0
C  C167  1  0.46097036  0.13618706  0.24478150  1  0.015496  0  -0.00544  0.074998  0  3.998853  0
C  C168  1  0.99021250  0.29994266  0.10577200  1  -0.062082  0  -0.07327  -0.127893  0  3.909409  0
C  C169  1  0.50978402  0.89422511  0.70005737  1  -0.062306  0  -0.073356  -0.127932  0  3.909557  0
C  C170  1  0.00978367  0.70005804  0.89422479  1  -0.062305  0  -0.073318  -0.127911  0  3.90956  0
C  C171  1  0.49021541  0.10577559  0.29994407  1  -0.062217  0  -0.073291  -0.127998  0  3.909653  0
C  C172  1  0.85275668  0.07234242  0.21761730  1  1.502202  0  0.190641  0.556104  0  4.215576  0
C  C173  1  0.64724471  0.78238232  0.92765698  1  1.502195  0  0.190608  0.556003  0  4.215689  0
C  C174  1  0.14724447  0.92765878  0.78238285  1  1.502286  0  0.190625  0.556105  0  4.215738  0
C  C175  1  0.35275717  0.21761837  0.07234260  1  1.502218  0  0.190652  0.556075  0  4.215518  0
C  C176  1  0.10983579  0.58564752  0.10733803  1  1.586412  0  0.215408  0.59413  0  4.166165  0
C  C177  1  0.39015788  0.89266364  0.41435557  1  1.586464  0  0.215494  0.594255  0  4.165969  0
C  C178  1  0.89016055  0.41435420  0.89266198  1  1.586415  0  0.215392  0.59409  0  4.165733  0
C  C179  1  0.60983183  0.10733758  0.58564795  1  1.586682  0  0.215283  0.593954  0  4.166046  0
C  C180  1  0.17698992  0.63711647  0.16434190  1  -0.063446  0  -0.017754  -0.026449  0  3.981866  0
C  C181  1  0.32300743  0.83565700  0.36288108  1  -0.063295  0  -0.017822  -0.026633  0  3.982196  0
C  C182  1  0.82301006  0.36288268  0.83565675  1  -0.06346  0  -0.017738  -0.026411  0  3.981991  0
C  C183  1  0.67698893  0.16434011  0.63711742  1  -0.063528  0  -0.017755  -0.026505  0  3.981883  0
C  C184  1  0.29307040  0.63953052  0.16955258  1  -0.036986  0  -0.093346  -0.106068  0  4.017222  0
C  C185  1  0.20692743  0.83044849  0.36046973  1  -0.037392  0  -0.093367  -0.106002  0  4.01725  0
C  C186  1  0.70692976  0.36046966  0.83044730  1  -0.036978  0  -0.09333  -0.105975  0  4.01711  0
C  C187  1  0.79306927  0.16955067  0.63953173  1  -0.037364  0  -0.093361  -0.105994  0  4.01707  0
C  C188  1  0.12750980  0.68325243  0.21061086  1  0.005938  0  -0.07635  -0.131125  0  3.931022  0
C  C189  1  0.37248779  0.78939034  0.31674731  1  0.005945  0  -0.076364  -0.131121  0  3.931264  0
C  C190  1  0.87249035  0.31674775  0.78939051  1  0.005895  0  -0.076368  -0.131168  0  3.931194  0
C  C191  1  0.62750891  0.21060882  0.68325465  1  0.005768  0  -0.076324  -0.13105  0  3.931016  0
C  C192  1  0.19120014  0.73354093  0.26279707  1  0.036171  0  -0.001559  0.083331  0  3.987108  0
C  C193  1  0.30879922  0.73720281  0.26645883  1  -0.042021  0  -0.001523  0.083329  0  3.987244  0
C  C194  1  0.80879992  0.26645873  0.73720468  1  0.036182  0  -0.001552  0.083311  0  3.987178  0
C  C195  1  0.69120401  0.26279634  0.73354298  1  -0.041745  0  -0.001457  0.083287  0  3.987178  0
C  C196  1  0.35739101  0.68848872  0.21896880  1  0.012217  0  -0.090889  -0.132363  0  4.002982  0
C  C197  1  0.14260698  0.78103104  0.31151154  1  0.012515  0  -0.090803  -0.132331  0  4.002782  0
C  C198  1  0.64260832  0.31151146  0.78103153  1  0.012166  0  -0.090922  -0.132417  0  4.00287  0
C  C199  1  0.85739127  0.21896761  0.68848890  1  0.012534  0  -0.090886  -0.132367  0  4.002776  0
C  C200  1  0.92322167  0.83262820  0.12664213  1  1.532296  0  0.219716  0.597048  0  4.174959  0
C  C201  1  0.57677657  0.87335582  0.16736777  1  1.532315  0  0.219654  0.596914  0  4.175064  0
C  C202  1  0.07677786  0.16736839  0.87335494  1  1.532295  0  0.219765  0.597177  0  4.174925  0
C  C203  1  0.42322368  0.12664488  0.83263123  1  1.532295  0  0.219817  0.597279  0  4.174857  0
C  C204  1  0.04346811  0.82998111  0.12608629  1  -0.060979  0  -0.023653  -0.046679  0  4.007028  0
C  C205  1  0.45653245  0.87391652  0.17001612  1  -0.06146  0  -0.023633  -0.046786  0  4.006945  0
C  C206  1  0.95653322  0.17001651  0.87391507  1  -0.061027  0  -0.023676  -0.04683  0  4.007104  0
C  C207  1  0.54346825  0.12608674  0.82998247  1  -0.060996  0  -0.023641  -0.04676  0  4.007066  0
C  C208  1  0.08449520  0.78094911  0.07484290  1  0.033454  0  -0.086489  -0.091308  0  3.972292  0
C  C209  1  0.41550538  0.92515815  0.21904805  1  0.034142  0  -0.086406  -0.091087  0  3.972182  0
C  C210  1  0.91550768  0.21904799  0.92515744  1  0.033664  0  -0.086426  -0.091142  0  3.972254  0
C  C211  1  0.58449423  0.07484357  0.78095164  1  0.033653  0  -0.086459  -0.091162  0  3.972243  0
C  C212  1  0.11470647  0.87641059  0.17495209  1  0.027119  0  -0.075865  -0.125888  0  3.926144  0
C  C213  1  0.38529139  0.82504829  0.12358679  1  0.027044  0  -0.075888  -0.125786  0  3.925893  0
C  C214  1  0.88529187  0.12358857  0.82504846  1  0.027054  0  -0.075839  -0.125807  0  3.92602  0
C  C215  1  0.61470895  0.17495291  0.87641133  1  0.027075  0  -0.075868  -0.125868  0  3.926078  0
C  C216  1  0.19573466  0.77835744  0.07443321  1  -0.042152  0  -0.084527  -0.118735  0  3.972891  0
C  C217  1  0.30426641  0.92556581  0.22164149  1  -0.04216  0  -0.084562  -0.118848  0  3.97276  0
C  C218  1  0.80426776  0.22164171  0.92556656  1  -0.041933  0  -0.084562  -0.118851  0  3.97299  0
C  C219  1  0.69573283  0.07443386  0.77835872  1  -0.041942  0  -0.084541  -0.118758  0  3.972721  0
C  C220  1  0.22931333  0.87617054  0.17457590  1  -0.066704  0  -0.001263  0.081461  0  3.99366  0
C  C221  1  0.27068511  0.82542365  0.12382835  1  -0.0253  0  -0.001343  0.081326  0  3.99383  0
C  C222  1  0.77068510  0.12382913  0.82542427  1  -0.066629  0  -0.001314  0.081378  0  3.993736  0
C  C223  1  0.72931586  0.17457653  0.87617107  1  -0.02541  0  -0.001346  0.08137  0  3.993913  0
S  S224  1  0.86140405  0.96203685  0.03680904  1  1.209642  0  0.369612  0.458514  0  3.57756  0
S  S225  1  0.63859593  0.96319074  0.03796291  1  1.209666  0  0.369656  0.45858  0  3.577607  0
S  S226  1  0.13859611  0.03796333  0.96319083  1  1.209565  0  0.369605  0.45848  0  3.577561  0
S  S227  1  0.36140414  0.03680893  0.96203685  1  1.209661  0  0.369611  0.458494  0  3.577588  0
S  S228  1  0.72952693  0.96818365  0.92205475  1  1.193502  0  0.383004  0.449583  0  3.606593  0
S  S229  1  0.77047310  0.07794509  0.03181629  1  1.193519  0  0.383017  0.449593  0  3.606466  0
S  S230  1  0.27047322  0.03181654  0.07794563  1  1.193488  0  0.38302  0.449638  0  3.60643  0
S  S231  1  0.22952851  0.92205406  0.96818394  1  1.193584  0  0.38306  0.449699  0  3.606389  0
N  N232  1  0.76448947  0.57692027  0.04523902  1  -1.000366  0  -0.344618  -0.177638  0  3.412513  0
N  N233  1  0.73551075  0.95476125  0.42308022  1  -1.00045  0  -0.344607  -0.177615  0  3.412503  0
N  N234  1  0.23550996  0.42308042  0.95476092  1  -1.000498  0  -0.344617  -0.177583  0  3.412361  0
N  N235  1  0.26448940  0.04523893  0.57691966  1  -1.000463  0  -0.344623  -0.177696  0  3.412599  0
N  N236  1  0.68343943  0.68582495  0.06527177  1  -0.988068  0  -0.344014  -0.197646  0  3.447377  0
N  N237  1  0.81656108  0.93472796  0.31417436  1  -0.98805  0  -0.34398  -0.197669  0  3.44729  0
N  N238  1  0.31656063  0.31417472  0.93472799  1  -0.988065  0  -0.344048  -0.197687  0  3.447298  0
N  N239  1  0.18343980  0.06527171  0.68582495  1  -0.988037  0  -0.344029  -0.197645  0  3.447278  0
N  N240  1  0.56617014  0.57759360  0.02295027  1  -1.006231  0  -0.34486  -0.20899  0  3.424389  0
N  N241  1  0.93382952  0.97705052  0.42240592  1  -1.00621  0  -0.344862  -0.208968  0  3.424331  0
N  N242  1  0.43382992  0.42240607  0.97705048  1  -1.006219  0  -0.344892  -0.209052  0  3.424432  0
N  N243  1  0.06616891  0.02294915  0.57759375  1  -1.006068  0  -0.344862  -0.20896  0  3.42434  0
N  N244  1  0.65417671  0.60716150  0.14078820  1  -1.002268  0  -0.352418  -0.211399  0  3.423086  0
N  N245  1  0.84582346  0.85921245  0.39283848  1  -1.002281  0  -0.352426  -0.211479  0  3.423124  0
N  N246  1  0.34582344  0.39283868  0.85921267  1  -1.002261  0  -0.352457  -0.211488  0  3.423161  0
N  N247  1  0.15417579  0.14078722  0.60716074  1  -1.002262  0  -0.352487  -0.211545  0  3.423222  0
N  N248  1  0.75000000  0.93409917  0.06590068  1  -1.207154  0  -0.351362  -0.483511  0  3.258947  0
N  N249  1  0.25000015  0.06590101  0.93409920  1  -1.207129  0  -0.351368  -0.483494  0  3.258953  0
N  N250  1  0.83660918  0.93849050  0.95386059  1  -1.197997  0  -0.340624  -0.429779  0  3.166554  0
N  N251  1  0.66338983  0.04613847  0.06150926  1  -1.198019  0  -0.340664  -0.4298  0  3.166503  0
N  N252  1  0.16339098  0.06150969  0.04613879  1  -1.197987  0  -0.3406  -0.429726  0  3.16647  0
N  N253  1  0.33661023  0.95386120  0.93849050  1  -1.198039  0  -0.340645  -0.429785  0  3.166492  0
N  N254  1  0.75000006  0.05084091  0.94915899  1  -1.213023  0  -0.337838  -0.426004  0  3.216492  0
N  N255  1  0.25000172  0.94915927  0.05084197  1  -1.213021  0  -0.337875  -0.426122  0  3.216438  0
O  O256  1  0.88555994  0.45330801  0.07048215  1  -1.169153  0  -0.31933  -0.551121  0  2.335373  0
O  O257  1  0.61443873  0.92951797  0.54668991  1  -1.16909  0  -0.319331  -0.551132  0  2.33485  0
O  O258  1  0.11443260  0.54669064  0.92951798  1  -1.168939  0  -0.319365  -0.551163  0  2.334977  0
O  O259  1  0.38556144  0.07048221  0.45330698  1  -1.169132  0  -0.319342  -0.551148  0  2.335418  0
O  O260  1  0.04058701  0.40593957  0.04145506  1  -1.177744  0  -0.316528  -0.547092  0  2.349265  0
O  O261  1  0.45940886  0.95854375  0.59406518  1  -1.177865  0  -0.316433  -0.546969  0  2.34949  0
O  O262  1  0.95940669  0.59406575  0.95854509  1  -1.17785  0  -0.316463  -0.547091  0  2.349385  0
O  O263  1  0.54059075  0.04145335  0.40593648  1  -1.177735  0  -0.316551  -0.547169  0  2.349081  0
O  O264  1  0.89516426  0.01576762  0.19243284  1  -1.156487  0  -0.343579  -0.569444  0  2.307853  0
O  O265  1  0.60483538  0.80756706  0.98423196  1  -1.156457  0  -0.343574  -0.569427  0  2.307761  0
O  O266  1  0.10483607  0.98423359  0.80756776  1  -1.156585  0  -0.343532  -0.569408  0  2.307817  0
O  O267  1  0.39516478  0.19243312  0.01576792  1  -1.156474  0  -0.34358  -0.569415  0  2.307781  0
O  O268  1  0.77857602  0.07454810  0.25684168  1  -1.156224  0  -0.326128  -0.549424  0  2.113279  0
O  O269  1  0.72142407  0.74315817  0.92545095  1  -1.15624  0  -0.32611  -0.549367  0  2.11353  0
O  O270  1  0.22142422  0.92545259  0.74315881  1  -1.156331  0  -0.326152  -0.549444  0  2.113459  0
O  O271  1  0.27857527  0.25684201  0.07454788  1  -1.156244  0  -0.326133  -0.549414  0  2.113311  0
O  O272  1  0.00680741  0.58949671  0.09970332  1  -1.185235  0  -0.317458  -0.553786  0  2.334827  0
O  O273  1  0.49319937  0.90029521  0.41050313  1  -1.185125  0  -0.317503  -0.553831  0  2.334466  0
O  O274  1  0.99319746  0.41050243  0.90029658  1  -1.18518  0  -0.317484  -0.553787  0  2.334476  0
O  O275  1  0.50680686  0.09970240  0.58949551  1  -1.185296  0  -0.317384  -0.553608  0  2.33492  0
O  O276  1  0.16183074  0.54226056  0.06985450  1  -1.177765  0  -0.318399  -0.548861  0  2.332066  0
O  O277  1  0.33817149  0.93014387  0.45773947  1  -1.177887  0  -0.318353  -0.548806  0  2.332271  0
O  O278  1  0.83817141  0.45774167  0.93014394  1  -1.17782  0  -0.318331  -0.548798  0  2.331899  0
O  O279  1  0.66182741  0.06985375  0.54225630  1  -1.177742  0  -0.318357  -0.548816  0  2.331685  0
O  O280  1  0.86327003  0.80263109  0.07135160  1  -1.15872  0  -0.308374  -0.528622  0  2.399329  0
O  O281  1  0.63673146  0.92864663  0.19736571  1  -1.15861  0  -0.308475  -0.528603  0  2.399042  0
O  O282  1  0.13673123  0.19736602  0.92864518  1  -1.158585  0  -0.308495  -0.528705  0  2.399179  0
O  O283  1  0.36326969  0.07135457  0.80263444  1  -1.158547  0  -0.308519  -0.528754  0  2.399213  0
O  O284  1  0.88725296  0.86305083  0.18161313  1  -1.209722  0  -0.329868  -0.583326  0  2.428833  0
O  O285  1  0.61274114  0.81838628  0.13694626  1  -1.209608  0  -0.329729  -0.583193  0  2.42905  0
O  O286  1  0.11274177  0.13694628  0.81838479  1  -1.209667  0  -0.329757  -0.583276  0  2.42903  0
O  O287  1  0.38725765  0.18161544  0.86305438  1  -1.209826  0  -0.329788  -0.58335  0  2.428955  0
