# generated using pymatgen
data_H9RuC9(NO2)2
_symmetry_space_group_name_H-M   'P 1'
_cell_length_a   8.62181864
_cell_length_b   10.25186447
_cell_length_c   19.14082753
_cell_angle_alpha   103.74565639
_cell_angle_beta   89.99800725
_cell_angle_gamma   114.82385862
_symmetry_Int_Tables_number   1
_chemical_formula_structural   H9RuC9(NO2)2
_chemical_formula_sum   'H36 Ru4 C36 N8 O16'
_cell_volume   1481.97965424
_cell_formula_units_Z   4
loop_
 _symmetry_equiv_pos_site_id
 _symmetry_equiv_pos_as_xyz
  1  'x, y, z'
loop_
 _atom_site_type_symbol
 _atom_site_label
 _atom_site_symmetry_multiplicity
 _atom_site_fract_x
 _atom_site_fract_y
 _atom_site_fract_z
 _atom_site_occupancy
 _atom_site_hle17_bader_spin_density
 _atom_site_hle17_ddec_charge
 _atom_site_hle17_ddec_spin_density
 _atom_site_hle17_ddec_sum_bond_order
 _atom_site_hle17_magmom
 _atom_site_hse06_10hf_bader_spin_density
 _atom_site_hse06_10hf_ddec_charge
 _atom_site_hse06_10hf_ddec_spin_density
 _atom_site_hse06_10hf_ddec_sum_bond_order
 _atom_site_hse06_10hf_magmom
 _atom_site_hse06_bader_spin_density
 _atom_site_hse06_ddec_charge
 _atom_site_hse06_ddec_spin_density
 _atom_site_hse06_ddec_sum_bond_order
 _atom_site_hse06_magmom
 _atom_site_pbe_bader_spin_density
 _atom_site_pbe_cm5_charge
 _atom_site_pbe_ddec_charge
 _atom_site_pbe_ddec_spin_density
 _atom_site_pbe_ddec_sum_bond_order
 _atom_site_pbe_magmom
H  H0  1  0.71875535  0.70280121  0.58248993  1  0  0.128409  0  0.936714  0  0  0.146803  0  0.995157  0  0  0.148542  0  0.995036  0  0  0.095971  0.145459  0  0.995482  0
H  H1  1  0.01545160  0.29670730  0.91745990  1  0  0.128557  0  0.937202  0  0  0.147176  0  0.995337  0  0  0.14895  0  0.995148  0  0  0.096089  0.14593  0  0.995415  0
H  H2  1  0.28125024  0.29717916  0.41751753  1  0  0.128472  0  0.936866  0  0  0.146892  0  0.995251  0  0  0.14863  0  0.99513  0  0  0.095992  0.145552  0  0.995568  0
H  H3  1  0.98451904  0.70327971  0.08255053  1  0  0.128731  0  0.937109  0  0  0.147381  0  0.995225  0  0  0.149163  0  0.995028  0  0  0.096172  0.14614  0  0.995296  0
H  H4  1  0.74426259  0.65137056  0.66410680  1  0  0.13412  0  0.948003  0  0  0.151463  0  1.007357  0  0  0.15296  0  1.00809  0  0  0.096455  0.150439  0  1.006697  0
H  H5  1  0.09252676  0.34831598  0.83590069  1  0  0.134047  0  0.949287  0  0  0.151726  0  1.008121  0  0  0.153273  0  1.008786  0  0  0.096396  0.150637  0  1.00766  0
H  H6  1  0.25573916  0.34862533  0.33590584  1  0  0.134291  0  0.947878  0  0  0.151618  0  1.00722  0  0  0.153112  0  1.007951  0  0  0.096512  0.15059  0  1.006566  0
H  H7  1  0.90746147  0.65168769  0.16411454  1  0  0.134025  0  0.949188  0  0  0.151719  0  1.008038  0  0  0.153265  0  1.008704  0  0  0.096349  0.150631  0  1.007574  0
H  H8  1  0.90047764  0.81818023  0.64692213  1  0  0.155946  0  0.940397  0  0  0.174742  0  0.999517  0  0  0.177099  0  0.998357  0  0  0.106488  0.172992  0  1.000495  0
H  H9  1  0.08186420  0.18131061  0.85298178  1  0  0.156383  0  0.940528  0  0  0.174968  0  0.999963  0  0  0.17735  0  0.998786  0  0  0.10651  0.173289  0  1.000749  0
H  H10  1  0.09952484  0.18181017  0.35308561  1  0  0.155969  0  0.940486  0  0  0.174773  0  0.999596  0  0  0.17713  0  0.998439  0  0  0.106476  0.173022  0  1.000577  0
H  H11  1  0.91812704  0.81868978  0.14702936  1  0  0.156387  0  0.940609  0  0  0.175012  0  1.000003  0  0  0.177393  0  0.998828  0  0  0.106533  0.173333  0  1.00079  0
H  H12  1  0.88403102  0.38575711  0.70521712  1  0  0.116152  0  0.951651  0  0  0.123278  0  1.013091  0  0  0.126708  0  1.01055  0  0  0.121124  0.120756  0  1.015075  0
H  H13  1  0.49806668  0.61398498  0.79470279  1  0  0.115489  0  0.951914  0  0  0.122357  0  1.014  0  0  0.125811  0  1.011393  0  0  0.120845  0.120103  0  1.015284  0
H  H14  1  0.11598572  0.61424789  0.29478574  1  0  0.116163  0  0.951597  0  0  0.123303  0  1.013023  0  0  0.126732  0  1.010483  0  0  0.12113  0.120777  0  1.015006  0
H  H15  1  0.50190822  0.38599898  0.20529208  1  0  0.115405  0  0.952021  0  0  0.122213  0  1.014189  0  0  0.125665  0  1.01159  0  0  0.120781  0.119959  0  1.015474  0
H  H16  1  0.94041951  0.54102135  0.60018933  1  0  0.111219  0  0.978043  0  0  0.11991  0  1.044033  0  0  0.122273  0  1.043177  0  0  0.122094  0.118122  0  1.044849  0
H  H17  1  0.39896414  0.45865740  0.89967921  1  0  0.111276  0  0.977345  0  0  0.12023  0  1.043072  0  0  0.122586  0  1.042221  0  0  0.121967  0.118122  0  1.044535  0
H  H18  1  0.05959063  0.45899366  0.39981590  1  0  0.111213  0  0.977929  0  0  0.119976  0  1.04386  0  0  0.122346  0  1.042975  0  0  0.122111  0.118184  0  1.044684  0
H  H19  1  0.60103425  0.54133874  0.10032092  1  0  0.111265  0  0.977411  0  0  0.120198  0  1.043164  0  0  0.122555  0  1.04231  0  0  0.121938  0.118088  0  1.044628  0
H  H20  1  0.79238769  0.31542354  0.42984298  1  0  0.105357  0  0.950775  0  0  0.124353  0  1.017582  0  0  0.124577  0  1.017849  0  0  0.107191  0.124071  0  1.017481  0
H  H21  1  0.47686596  0.68416979  0.06999321  1  0  0.104763  0  0.951908  0  0  0.124249  0  1.017949  0  0  0.124456  0  1.018272  0  0  0.107111  0.123997  0  1.018115  0
H  H22  1  0.20762200  0.68458826  0.57015555  1  0  0.105364  0  0.950756  0  0  0.124321  0  1.017598  0  0  0.124543  0  1.017866  0  0  0.10719  0.124038  0  1.017496  0
H  H23  1  0.52313523  0.31583428  0.93000065  1  0  0.104769  0  0.951889  0  0  0.124204  0  1.01798  0  0  0.1244  0  1.018299  0  0  0.107107  0.123953  0  1.018144  0
H  H24  1  0.79424784  0.48848256  0.47818704  1  0  0.107889  0  0.921415  0  0  0.13082  0  0.978489  0  0  0.131928  0  0.978119  0  0  0.114346  0.129873  0  0.978951  0
H  H25  1  0.30572014  0.51124999  0.02166920  1  0  0.107946  0  0.921749  0  0  0.130723  0  0.978916  0  0  0.131848  0  0.978534  0  0  0.11453  0.130019  0  0.978995  0
H  H26  1  0.20576647  0.51152919  0.52181358  1  0  0.107886  0  0.921349  0  0  0.130807  0  0.978426  0  0  0.131912  0  0.978056  0  0  0.114361  0.129863  0  0.978884  0
H  H27  1  0.69427353  0.48875063  0.97832995  1  0  0.107975  0  0.921765  0  0  0.130739  0  0.978939  0  0  0.131856  0  0.978564  0  0  0.114523  0.130039  0  0.979012  0
H  H28  1  0.59547145  0.32614883  0.44778759  1  0  0.111597  0  0.942286  0  0  0.133757  0  1.000929  0  0  0.134479  0  1.001246  0  0  0.112976  0.133084  0  1.000873  0
H  H29  1  0.26928296  0.67370245  0.05223957  1  0  0.112162  0  0.941014  0  0  0.133872  0  1.000052  0  0  0.134673  0  1.00029  0  0  0.113077  0.133443  0  0.999798  0
H  H30  1  0.40454393  0.67386506  0.55221801  1  0  0.111533  0  0.942258  0  0  0.133681  0  1.000934  0  0  0.134404  0  1.001249  0  0  0.112945  0.133002  0  1.000879  0
H  H31  1  0.73071413  0.32630038  0.94776092  1  0  0.1122  0  0.941012  0  0  0.133923  0  1.000022  0  0  0.134723  0  1.000257  0  0  0.113105  0.133493  0  0.999769  0
H  H32  1  0.47267446  0.09595705  0.45484286  1  0  0.117889  0  0.999831  0  0  0.123964  0  1.067004  0  0  0.128464  0  1.063648  0  0  0.107561  0.120811  0  1.069335  0
H  H33  1  0.37680058  0.90416448  0.04519016  1  0  0.117975  0  0.999775  0  0  0.123707  0  1.067341  0  0  0.128215  0  1.063985  0  0  0.107535  0.12058  0  1.069727  0
H  H34  1  0.52736256  0.90405142  0.54515367  1  0  0.117918  0  0.999836  0  0  0.124023  0  1.066958  0  0  0.128523  0  1.0636  0  0  0.10761  0.120872  0  1.069275  0
H  H35  1  0.62315564  0.09582852  0.95479963  1  0  0.117915  0  0.999786  0  0  0.123615  0  1.067394  0  0  0.128121  0  1.064035  0  0  0.107533  0.120488  0  1.069778  0
Ru  Ru36  1  0.55901019  0.07893838  0.70009127  1  0  0.305479  0  4.474625  0  0  0.27343  0  5.090382  0  0  0.254578  0  5.105277  0  0  0.637816  0.286168  0  5.079172  0
Ru  Ru37  1  0.48017133  0.92103566  0.79987574  1  0  0.30528  0  4.476117  0  0  0.273187  0  5.091866  0  0  0.254249  0  5.106852  0  0  0.637724  0.285741  0  5.080814  0
Ru  Ru38  1  0.44100211  0.92106006  0.29990446  1  0  0.305461  0  4.474442  0  0  0.273443  0  5.090175  0  0  0.254613  0  5.105028  0  0  0.637892  0.286173  0  5.078962  0
Ru  Ru39  1  0.51982005  0.07896501  0.20012081  1  0  0.305306  0  4.476036  0  0  0.273253  0  5.091728  0  0  0.254315  0  5.106709  0  0  0.637669  0.285805  0  5.080689  0
C  C40  1  0.50880600  0.22574606  0.75383560  1  0  0.166729  0  3.544267  0  0  0.112479  0  3.927975  0  0  0.146974  0  3.924607  0  0  -0.006612  0.089472  0  3.929198  0
C  C41  1  0.28320733  0.77432800  0.74623099  1  0  0.166154  0  3.545912  0  0  0.111965  0  3.929613  0  0  0.146564  0  3.926186  0  0  -0.006432  0.088973  0  3.930932  0
C  C42  1  0.49121834  0.77425790  0.24616347  1  0  0.166675  0  3.544682  0  0  0.112411  0  3.928388  0  0  0.146899  0  3.92502  0  0  -0.006582  0.08941  0  3.929607  0
C  C43  1  0.71678790  0.22568271  0.25376583  1  0  0.165924  0  3.54591  0  0  0.111722  0  3.929612  0  0  0.146315  0  3.926182  0  0  -0.006488  0.088733  0  3.930937  0
C  C44  1  0.33978074  0.99311592  0.65454688  1  0  0.143516  0  3.576095  0  0  0.087569  0  3.972263  0  0  0.118918  0  3.973493  0  0  -0.010942  0.066731  0  3.970501  0
C  C45  1  0.34681752  0.00702095  0.84547701  1  0  0.144009  0  3.574555  0  0  0.088122  0  3.970471  0  0  0.119401  0  3.971721  0  0  -0.011104  0.067176  0  3.968963  0
C  C46  1  0.66023313  0.00689031  0.34545040  1  0  0.14358  0  3.576066  0  0  0.087637  0  3.972223  0  0  0.118982  0  3.973444  0  0  -0.010906  0.066805  0  3.970459  0
C  C47  1  0.65317265  0.99298195  0.15451983  1  0  0.143979  0  3.574574  0  0  0.088089  0  3.970506  0  0  0.119369  0  3.971764  0  0  -0.011075  0.067141  0  3.969  0
C  C48  1  0.66947176  0.83107135  0.67861193  1  0  0.707513  0  3.796065  0  0  0.670124  0  4.090345  0  0  0.703484  0  4.083349  0  0  0.218156  0.647493  0  4.094445  0
C  C49  1  0.83814821  0.16870559  0.82133674  1  0  0.70844  0  3.796544  0  0  0.671017  0  4.091354  0  0  0.704341  0  4.084441  0  0  0.218444  0.648336  0  4.095519  0
C  C50  1  0.33053072  0.16892136  0.32139193  1  0  0.707448  0  3.796249  0  0  0.670003  0  4.090651  0  0  0.703384  0  4.083633  0  0  0.2181  0.647365  0  4.09476  0
C  C51  1  0.16184441  0.83128596  0.17866959  1  0  0.708464  0  3.796529  0  0  0.671158  0  4.091179  0  0  0.704483  0  4.08427  0  0  0.218571  0.648477  0  4.095347  0
C  C52  1  0.76238748  0.74361959  0.64069865  1  0  -0.451365  0  3.676088  0  0  -0.525504  0  3.90481  0  0  -0.533062  0  3.909599  0  0  -0.24212  -0.520228  0  3.901517  0
C  C53  1  0.01838519  0.25600993  0.85924689  1  0  -0.452915  0  3.678413  0  0  -0.527154  0  3.906987  0  0  -0.534742  0  3.911645  0  0  -0.242502  -0.521755  0  3.903538  0
C  C54  1  0.23761500  0.25637082  0.35930856  1  0  -0.451772  0  3.676265  0  0  -0.525886  0  3.904977  0  0  -0.533446  0  3.909754  0  0  -0.242252  -0.520607  0  3.901688  0
C  C55  1  0.98160321  0.74398712  0.14076381  1  0  -0.453127  0  3.678365  0  0  -0.527494  0  3.906934  0  0  -0.535089  0  3.911585  0  0  -0.242592  -0.522096  0  3.903481  0
C  C56  1  0.64645022  0.19797250  0.55351264  1  0  0.290534  0  3.722375  0  0  0.264657  0  3.979745  0  0  0.277006  0  3.99564  0  0  0.20932  0.256424  0  3.968916  0
C  C57  1  0.44829261  0.80193179  0.94643957  1  0  0.289641  0  3.721466  0  0  0.263668  0  3.97874  0  0  0.275983  0  3.994701  0  0  0.209571  0.255593  0  3.967777  0
C  C58  1  0.35358104  0.80203373  0.44648411  1  0  0.290331  0  3.722541  0  0  0.264578  0  3.979753  0  0  0.276926  0  3.995648  0  0  0.209329  0.256339  0  3.968923  0
C  C59  1  0.55167181  0.19805672  0.05355120  1  0  0.289758  0  3.721521  0  0  0.263578  0  3.979063  0  0  0.27589  0  3.995028  0  0  0.209408  0.255506  0  3.968099  0
C  C60  1  0.82300968  0.34969889  0.65025805  1  0  0.006919  0  3.745421  0  0  -0.031883  0  4.022923  0  0  -0.02994  0  4.041125  0  0  0.001391  -0.033026  0  4.010677  0
C  C61  1  0.47309925  0.65009902  0.84966095  1  0  0.008024  0  3.744067  0  0  -0.030582  0  4.021991  0  0  -0.028587  0  4.040089  0  0  0.001514  -0.031529  0  4.009084  0
C  C62  1  0.17701167  0.65030838  0.34974302  1  0  0.006707  0  3.745708  0  0  -0.032122  0  4.023281  0  0  -0.030182  0  4.041489  0  0  0.001241  -0.033274  0  4.011028  0
C  C63  1  0.52687386  0.34988830  0.15033332  1  0  0.008139  0  3.743963  0  0  -0.030391  0  4.021874  0  0  -0.028399  0  4.039976  0  0  0.001592  -0.031341  0  4.00897  0
C  C64  1  0.85199688  0.42785729  0.59864457  1  0  -0.0758  0  3.724044  0  0  -0.12046  0  3.988223  0  0  -0.120715  0  4.010262  0  0  -0.000919  -0.120125  0  3.973217  0
C  C65  1  0.42379334  0.57188856  0.90124318  1  0  -0.076446  0  3.723798  0  0  -0.12126  0  3.987836  0  0  -0.12153  0  4.009886  0  0  -0.000828  -0.121241  0  3.973637  0
C  C66  1  0.14802205  0.57215443  0.40135762  1  0  -0.075625  0  3.723728  0  0  -0.120355  0  3.987899  0  0  -0.120607  0  4.009944  0  0  -0.000832  -0.120021  0  3.972891  0
C  C67  1  0.57619237  0.42810542  0.09875301  1  0  -0.07639  0  3.723964  0  0  -0.121196  0  3.987967  0  0  -0.121467  0  4.010015  0  0  -0.000905  -0.121172  0  3.973767  0
C  C68  1  0.72988101  0.36745379  0.46960363  1  0  -0.16453  0  3.642346  0  0  -0.268281  0  3.887788  0  0  -0.264993  0  3.897317  0  0  -0.122728  -0.270166  0  3.881308  0
C  C69  1  0.36229783  0.63230976  0.03030324  1  0  -0.165472  0  3.642608  0  0  -0.269047  0  3.887705  0  0  -0.26583  0  3.897237  0  0  -0.122886  -0.271238  0  3.881441  0
C  C70  1  0.27013388  0.63255682  0.53039841  1  0  -0.164327  0  3.642118  0  0  -0.26802  0  3.887557  0  0  -0.264731  0  3.897085  0  0  -0.122647  -0.269902  0  3.881068  0
C  C71  1  0.63769298  0.36768979  0.96969368  1  0  -0.165478  0  3.642745  0  0  -0.26901  0  3.887872  0  0  -0.265768  0  3.897394  0  0  -0.122919  -0.271206  0  3.881602  0
C  C72  1  0.52496264  0.07179503  0.49951583  1  0  -0.142897  0  3.738036  0  0  -0.165365  0  4.000607  0  0  -0.166616  0  4.014419  0  0  -0.088194  -0.164631  0  3.991375  0
C  C73  1  0.45312577  0.92821530  0.00047343  1  0  -0.14276  0  3.737338  0  0  -0.164588  0  3.998814  0  0  -0.165894  0  4.012749  0  0  -0.088309  -0.163999  0  3.989636  0
C  C74  1  0.47507267  0.92821231  0.50048108  1  0  -0.142596  0  3.738067  0  0  -0.165085  0  4.000525  0  0  -0.166334  0  4.014342  0  0  -0.088144  -0.164347  0  3.991286  0
C  C75  1  0.54683000  0.07177215  0.99951459  1  0  -0.142372  0  3.737087  0  0  -0.164087  0  3.998607  0  0  -0.165391  0  4.012553  0  0  -0.088088  -0.163498  0  3.989426  0
N  N76  1  0.69513151  0.20853574  0.62249199  1  0  -0.294913  0  3.227196  0  0  -0.239728  0  3.501289  0  0  -0.252715  0  3.519729  0  0  -0.339481  -0.231105  0  3.48863  0
N  N77  1  0.48649281  0.79135145  0.87746256  1  0  -0.295263  0  3.225871  0  0  -0.24056  0  3.500732  0  0  -0.253465  0  3.519032  0  0  -0.339393  -0.231724  0  3.487664  0
N  N78  1  0.30489632  0.79146826  0.37750499  1  0  -0.294797  0  3.227405  0  0  -0.239667  0  3.501457  0  0  -0.252658  0  3.519898  0  0  -0.339483  -0.231028  0  3.488771  0
N  N79  1  0.51346994  0.20863373  0.12252725  1  0  -0.2953  0  3.225816  0  0  -0.240571  0  3.50073  0  0  -0.253474  0  3.519029  0  0  -0.339379  -0.231735  0  3.487662  0
N  N80  1  0.73913693  0.33303541  0.53855092  1  0  -0.064395  0  3.556864  0  0  0.034949  0  3.77084  0  0  0.020501  0  3.798143  0  0  -0.242642  0.04445  0  3.752105  0
N  N81  1  0.40576600  0.66677166  0.96135315  1  0  -0.062305  0  3.556101  0  0  0.037154  0  3.76952  0  0  0.022715  0  3.796895  0  0  -0.242701  0.046547  0  3.75114  0
N  N82  1  0.26088726  0.66697523  0.46144956  1  0  -0.064597  0  3.556724  0  0  0.034708  0  3.7707  0  0  0.020258  0  3.798004  0  0  -0.242781  0.044207  0  3.751968  0
N  N83  1  0.59420818  0.33322014  0.03864067  1  0  -0.062709  0  3.556474  0  0  0.036832  0  3.769913  0  0  0.022395  0  3.797281  0  0  -0.242637  0.046222  0  3.751537  0
O  O84  1  0.47927376  0.32161109  0.78907898  1  0  -0.240372  0  2.197135  0  0  -0.193911  0  2.422345  0  0  -0.209862  0  2.416406  0  0  -0.185527  -0.183028  0  2.425618  0
O  O85  1  0.15773383  0.67852771  0.71111898  1  0  -0.239956  0  2.196549  0  0  -0.193331  0  2.421236  0  0  -0.209292  0  2.415283  0  0  -0.185695  -0.18261  0  2.424835  0
O  O86  1  0.52076365  0.67840280  0.21092609  1  0  -0.240241  0  2.197612  0  0  -0.193776  0  2.422828  0  0  -0.209723  0  2.416895  0  0  -0.185494  -0.182895  0  2.426099  0
O  O87  1  0.84224574  0.32148416  0.28887591  1  0  -0.239683  0  2.196686  0  0  -0.193053  0  2.421379  0  0  -0.20901  0  2.415422  0  0  -0.185562  -0.182331  0  2.42498  0
O  O88  1  0.19712723  0.94113440  0.62764048  1  0  -0.237501  0  2.196069  0  0  -0.194745  0  2.416562  0  0  -0.209522  0  2.412037  0  0  -0.191043  -0.184898  0  2.419385  0
O  O89  1  0.25616945  0.05907819  0.87242902  1  0  -0.237401  0  2.195236  0  0  -0.19469  0  2.415821  0  0  -0.20945  0  2.411295  0  0  -0.190587  -0.184799  0  2.418581  0
O  O90  1  0.80288487  0.05887294  0.37235695  1  0  -0.237565  0  2.196077  0  0  -0.194814  0  2.416584  0  0  -0.20959  0  2.412057  0  0  -0.191084  -0.184965  0  2.419405  0
O  O91  1  0.74382488  0.94092142  0.12756425  1  0  -0.23749  0  2.195189  0  0  -0.19479  0  2.415793  0  0  -0.209555  0  2.411274  0  0  -0.190681  -0.184891  0  2.41855  0
O  O92  1  0.63362800  0.82198259  0.74240996  1  0  -0.507784  0  2.113598  0  0  -0.453704  0  2.356336  0  0  -0.477745  0  2.351601  0  0  -0.306648  -0.437328  0  2.35903  0
O  O93  1  0.81135988  0.17794469  0.75756571  1  0  -0.50728  0  2.112639  0  0  -0.453779  0  2.356076  0  0  -0.47782  0  2.351362  0  0  -0.30655  -0.437327  0  2.358802  0
O  O94  1  0.36636287  0.17801243  0.25759054  1  0  -0.50775  0  2.113616  0  0  -0.453658  0  2.356382  0  0  -0.477706  0  2.35164  0  0  -0.306597  -0.437278  0  2.359084  0
O  O95  1  0.18864549  0.82204917  0.24243621  1  0  -0.507148  0  2.112918  0  0  -0.453673  0  2.356274  0  0  -0.477714  0  2.351558  0  0  -0.306517  -0.437219  0  2.358996  0
O  O96  1  0.63397271  0.91006468  0.64462375  1  0  -0.530423  0  2.150785  0  0  -0.479019  0  2.404717  0  0  -0.503642  0  2.400184  0  0  -0.314328  -0.4622  0  2.407306  0
O  O97  1  0.72379028  0.08969844  0.85531792  1  0  -0.529814  0  2.151777  0  0  -0.479021  0  2.406425  0  0  -0.503678  0  2.401904  0  0  -0.314074  -0.462074  0  2.409009  0
O  O98  1  0.36603671  0.08993033  0.35537675  1  0  -0.530189  0  2.150942  0  0  -0.478805  0  2.40493  0  0  -0.50344  0  2.400396  0  0  -0.314256  -0.461982  0  2.40752  0
O  O99  1  0.27619835  0.91029210  0.14468305  1  0  -0.529918  0  2.151472  0  0  -0.479165  0  2.40607  0  0  -0.503824  0  2.401551  0  0  -0.314225  -0.462217  0  2.408658  0
