# generated using pymatgen
data_Zn2H6C12BrO8
_symmetry_space_group_name_H-M   'P 1'
_cell_length_a   10.81582322
_cell_length_b   10.92974278
_cell_length_c   19.56887585
_cell_angle_alpha   97.68080636
_cell_angle_beta   91.29825020
_cell_angle_gamma   98.39871299
_symmetry_Int_Tables_number   1
_chemical_formula_structural   Zn2H6C12BrO8
_chemical_formula_sum   'Zn4 H12 C24 Br2 O16'
_cell_volume   2265.87714295
_cell_formula_units_Z   2
loop_
 _symmetry_equiv_pos_site_id
 _symmetry_equiv_pos_as_xyz
  1  'x, y, z'
loop_
 _atom_site_type_symbol
 _atom_site_label
 _atom_site_symmetry_multiplicity
 _atom_site_fract_x
 _atom_site_fract_y
 _atom_site_fract_z
 _atom_site_occupancy
 _atom_site_pbe_bader_charge
 _atom_site_pbe_bader_spin_density
 _atom_site_pbe_cm5_charge
 _atom_site_pbe_ddec_charge
 _atom_site_pbe_ddec_spin_density
 _atom_site_pbe_ddec_sum_bond_order
 _atom_site_pbe_magmom
Zn  Zn0  1  0.39436444  0.57620103  0.44093038  1  1.317972  0  0.677139  0.970117  0  2.362056  0
Zn  Zn1  1  0.38372548  0.37720535  0.55095653  1  1.320722  0  0.673398  0.961134  0  2.370098  0
Zn  Zn2  1  0.60558332  0.60320533  0.56288539  1  1.312299  0  0.671631  0.971599  0  2.3454  0
Zn  Zn3  1  0.58288524  0.37854896  0.43571520  1  1.316789  0  0.675326  0.971243  0  2.373439  0
H  H4  1  0.48898172  0.69147584  0.25901839  1  0.143404  0  0.115564  0.136243  0  0.978832  0
H  H5  1  0.55084526  0.93950413  0.62337584  1  0.635523  0  0.328815  0.361152  0  0.897234  0
H  H6  1  0.24057180  0.35507163  0.86063144  1  0.609757  0  0.341555  0.369652  0  0.869316  0
H  H7  1  0.73290806  0.69363539  0.06131688  1  0.639921  0  0.333829  0.363939  0  0.878746  0
H  H8  1  0.69175188  0.62381027  0.90191658  1  0.10954  0  0.102299  0.115941  0  1.017677  0
H  H9  1  0.46155454  0.96438766  0.42972029  1  0.120847  0  0.116439  0.157494  0  0.991773  0
H  H10  1  0.00713907  0.63210275  0.49376783  1  0.118613  0  0.121069  0.141833  0  0.967944  0
H  H11  1  0.97288615  0.34526518  0.49011719  1  0.123276  0  0.121274  0.143131  0  0.96659  0
H  H12  1  0.32092505  0.39959511  0.75932288  1  0.068694  0  0.106131  0.122554  0  1.008197  0
H  H13  1  0.68668202  0.61893924  0.77468475  1  0.10105  0  0.103775  0.112024  0  1.001921  0
H  H14  1  0.42865658  0.45008299  0.99563789  1  0.076879  0  0.105253  0.129943  0  1.01443  0
H  H15  1  0.60171561  0.36284121  0.08203418  1  0.116406  0  0.111475  0.128159  0  0.986055  0
C  C16  1  0.47386539  0.15265680  0.48601244  1  1.529632  0  0.222666  0.678935  0  4.149724  0
C  C17  1  0.58798526  0.57316386  0.02956675  1  0.43752  0  0.072457  0.25651  0  4.078031  0
C  C18  1  0.50756590  0.51024228  0.97826178  1  0.04135  0  -0.12068  -0.279513  0  3.987329  0
C  C19  1  0.50339185  0.81703785  0.51980214  1  1.564357  0  0.226148  0.547987  0  4.200127  0
C  C20  1  0.50352409  0.50891402  0.75926016  1  -0.058431  0  -0.026092  -0.023719  0  4.027992  0
C  C21  1  0.49874725  0.95495910  0.53367482  1  0.492364  0  0.084007  0.202281  0  4.06596  0
C  C22  1  0.47373510  0.01757558  0.48109587  1  0.092103  0  -0.112415  -0.348698  0  3.881827  0
C  C23  1  0.95880974  0.53672150  0.49148559  1  -0.046152  0  -0.07273  -0.169  0  3.877126  0
C  C24  1  0.02182102  0.43942553  0.48864836  1  -0.044496  0  -0.072622  -0.167268  0  3.878563  0
C  C25  1  0.16040109  0.45424224  0.48928763  1  1.58529  0  0.22638  0.648707  0  4.159379  0
C  C26  1  0.82083654  0.51984904  0.49679486  1  1.572731  0  0.228642  0.6503  0  4.155155  0
C  C27  1  0.56877653  0.55329364  0.10227713  1  0.079109  0  -0.012827  -0.019545  0  4.035099  0
C  C28  1  0.50013500  0.50384211  0.68312430  1  1.554471  0  0.224024  0.608051  0  4.149427  0
C  C29  1  0.50903860  0.48786101  0.31342395  1  1.586026  0  0.228309  0.618375  0  4.161316  0
C  C30  1  0.52936623  0.50363766  0.23935472  1  -0.017328  0  -0.012455  -0.056213  0  3.928159  0
C  C31  1  0.51685612  0.62075716  0.22030688  1  0.021164  0  -0.086001  -0.1324  0  3.953846  0
C  C32  1  0.53857105  0.64601746  0.15354710  1  -0.094073  0  -0.01845  0.065211  0  3.967861  0
C  C33  1  0.57896393  0.43567759  0.12124371  1  0.026393  0  -0.089978  -0.159941  0  3.959219  0
C  C34  1  0.56140351  0.41099055  0.18876570  1  -0.122905  0  -0.008675  0.099933  0  3.936233  0
C  C35  1  0.40426662  0.45183460  0.86250153  1  0.429257  0  0.078709  0.254571  0  4.055837  0
C  C36  1  0.40175343  0.44876048  0.79124317  1  -0.005362  0  -0.107409  -0.249682  0  4.0099  0
C  C37  1  0.60780024  0.57259040  0.79978412  1  0.002239  0  -0.096869  -0.121017  0  4.027654  0
C  C38  1  0.61021309  0.57502000  0.87092820  1  -0.058763  0  -0.09293  -0.123504  0  3.967696  0
C  C39  1  0.50953812  0.51453497  0.90459435  1  0.049027  0  -0.012762  0.061819  0  3.981517  0
Br  Br40  1  0.57682956  0.24697158  0.20657922  1  -0.031777  0  0.020636  -0.058621  0  1.365153  0
Br  Br41  1  0.51891992  0.80708077  0.13166614  1  -0.062024  0  0.017304  -0.077638  0  1.347078  0
O  O42  1  0.49107588  0.48692727  0.49714221  1  -1.234797  0  -0.575982  -1.037664  0  2.549575  0
O  O43  1  0.40234451  0.44311577  0.64932199  1  -1.181567  0  -0.320961  -0.552221  0  2.325665  0
O  O44  1  0.58105618  0.42583359  0.34189910  1  -1.168105  0  -0.308881  -0.540557  0  2.381643  0
O  O45  1  0.59549791  0.56081909  0.65646010  1  -1.1795  0  -0.321819  -0.558164  0  2.327177  0
O  O46  1  0.42243947  0.54199364  0.34168478  1  -1.155407  0  -0.312118  -0.538679  0  2.309235  0
O  O47  1  0.52697118  0.00711264  0.59959647  1  -1.121784  0  -0.334901  -0.388963  0  2.273841  0
O  O48  1  0.30537850  0.39448799  0.89522224  1  -1.133693  0  -0.357839  -0.452751  0  2.267894  0
O  O49  1  0.69063602  0.65588983  0.01742405  1  -1.147903  0  -0.338671  -0.426493  0  2.296361  0
O  O50  1  0.21765807  0.54648791  0.46297308  1  -1.163528  0  -0.315642  -0.550007  0  2.294495  0
O  O51  1  0.75916356  0.41520002  0.47022720  1  -1.172412  0  -0.314993  -0.549544  0  2.299774  0
O  O52  1  0.43221233  0.20976435  0.53986050  1  -1.162317  0  -0.313015  -0.539333  0  2.287406  0
O  O53  1  0.55245648  0.77266506  0.56956600  1  -1.170055  0  -0.310453  -0.547027  0  2.319271  0
O  O54  1  0.51586919  0.20266209  0.43358815  1  -1.161785  0  -0.328802  -0.566218  0  2.274001  0
O  O55  1  0.45871282  0.75738573  0.46243022  1  -1.1788  0  -0.306576  -0.521742  0  2.341549  0
O  O56  1  0.20946473  0.37199977  0.51660220  1  -1.163422  0  -0.312  -0.543361  0  2.278282  0
O  O57  1  0.77618062  0.61293822  0.52850020  1  -1.158344  0  -0.318705  -0.549354  0  2.257345  0
