# generated using pymatgen
data_YH15C15NO8
_symmetry_space_group_name_H-M   'P 1'
_cell_length_a   8.58079673
_cell_length_b   10.21852662
_cell_length_c   10.91962052
_cell_angle_alpha   64.23300831
_cell_angle_beta   71.07138146
_cell_angle_gamma   79.90852508
_symmetry_Int_Tables_number   1
_chemical_formula_structural   YH15C15NO8
_chemical_formula_sum   'Y2 H30 C30 N2 O16'
_cell_volume   814.97866967
_cell_formula_units_Z   2
loop_
 _symmetry_equiv_pos_site_id
 _symmetry_equiv_pos_as_xyz
  1  'x, y, z'
loop_
 _atom_site_type_symbol
 _atom_site_label
 _atom_site_symmetry_multiplicity
 _atom_site_fract_x
 _atom_site_fract_y
 _atom_site_fract_z
 _atom_site_occupancy
 _atom_site_hle17_bader_spin_density
 _atom_site_hle17_ddec_charge
 _atom_site_hle17_ddec_spin_density
 _atom_site_hle17_ddec_sum_bond_order
 _atom_site_hle17_magmom
 _atom_site_hse06_10hf_bader_spin_density
 _atom_site_hse06_10hf_ddec_charge
 _atom_site_hse06_10hf_ddec_spin_density
 _atom_site_hse06_10hf_ddec_sum_bond_order
 _atom_site_hse06_10hf_magmom
 _atom_site_hse06_bader_spin_density
 _atom_site_hse06_ddec_charge
 _atom_site_hse06_ddec_spin_density
 _atom_site_hse06_ddec_sum_bond_order
 _atom_site_hse06_magmom
 _atom_site_pbe_bader_spin_density
 _atom_site_pbe_cm5_charge
 _atom_site_pbe_ddec_charge
 _atom_site_pbe_ddec_spin_density
 _atom_site_pbe_ddec_sum_bond_order
 _atom_site_pbe_magmom
Y  Y0  1  0.63763927  0.94128883  0.65178640  1  0  1.989612  0  1.895251  0  0  1.798784  0  2.376741  0  0  1.872355  0  2.312916  0  0  1.278909  1.745569  0  2.422036  0
Y  Y1  1  0.36235957  0.05870455  0.34821843  1  0  1.989545  0  1.895329  0  0  1.798806  0  2.376651  0  0  1.87236  0  2.312841  0  0  1.27892  1.745584  0  2.421937  0
H  H2  1  0.43992224  0.25743019  0.70094345  1  0  0.10602  0  0.984307  0  0  0.111732  0  1.053128  0  0  0.115324  0  1.050947  0  0  0.108204  0.108823  0  1.055356  0
H  H3  1  0.56007313  0.74255989  0.29906263  1  0  0.106022  0  0.984285  0  0  0.111799  0  1.053038  0  0  0.115389  0  1.050871  0  0  0.108241  0.108887  0  1.055261  0
H  H4  1  0.49723025  0.53431785  0.26135306  1  0  0.097418  0  0.959145  0  0  0.109418  0  1.018293  0  0  0.11261  0  1.016342  0  0  0.108489  0.107236  0  1.019574  0
H  H5  1  0.50276779  0.46566899  0.73865456  1  0  0.097427  0  0.95896  0  0  0.109403  0  1.018145  0  0  0.112592  0  1.0162  0  0  0.108504  0.107222  0  1.019427  0
H  H6  1  0.05212774  0.83089084  0.88180593  1  0  0.089267  0  0.997182  0  0  0.096781  0  1.065078  0  0  0.099321  0  1.064373  0  0  0.10344  0.094963  0  1.065597  0
H  H7  1  0.94786770  0.16911783  0.11818731  1  0  0.089356  0  0.997095  0  0  0.096802  0  1.065055  0  0  0.099342  0  1.064352  0  0  0.103448  0.094978  0  1.065587  0
H  H8  1  0.23449081  0.12992847  0.97826754  1  0  0.112328  0  0.948184  0  0  0.11955  0  1.012553  0  0  0.123113  0  1.010545  0  0  0.109597  0.116988  0  1.014286  0
H  H9  1  0.76550460  0.87008016  0.02172847  1  0  0.112344  0  0.948247  0  0  0.119576  0  1.012609  0  0  0.12314  0  1.010598  0  0  0.109614  0.117019  0  1.01434  0
H  H10  1  0.70663879  0.56755994  0.08875487  1  0  0.101155  0  0.964043  0  0  0.109994  0  1.026349  0  0  0.113758  0  1.023512  0  0  0.104898  0.107162  0  1.028688  0
H  H11  1  0.29337799  0.43244129  0.91124512  1  0  0.101124  0  0.964025  0  0  0.109984  0  1.026313  0  0  0.113749  0  1.023474  0  0  0.104887  0.10715  0  1.028658  0
H  H12  1  0.15086961  0.63425693  0.74644396  1  0  0.105744  0  0.939941  0  0  0.115158  0  0.999971  0  0  0.118923  0  0.997582  0  0  0.10925  0.112368  0  1.001889  0
H  H13  1  0.84914866  0.36574115  0.25355141  1  0  0.105699  0  0.939978  0  0  0.115049  0  1.000106  0  0  0.118811  0  0.997721  0  0  0.10923  0.112259  0  1.002025  0
H  H14  1  0.64087556  0.16174477  0.83145980  1  0  0.058162  0  0.91799  0  0  0.067068  0  0.985221  0  0  0.069066  0  0.980141  0  0  0.13433  0.065429  0  0.988901  0
H  H15  1  0.35912121  0.83826167  0.16853857  1  0  0.058108  0  0.918081  0  0  0.067084  0  0.985238  0  0  0.069084  0  0.980156  0  0  0.134329  0.065444  0  0.988923  0
H  H16  1  0.70350552  0.32160859  0.88922677  1  0  0.112804  0  0.923304  0  0  0.13548  0  0.98061  0  0  0.136319  0  0.980112  0  0  0.114576  0.134727  0  0.98116  0
H  H17  1  0.29649135  0.67839681  0.11076923  1  0  0.11277  0  0.923251  0  0  0.135446  0  0.980575  0  0  0.136286  0  0.980074  0  0  0.114553  0.134695  0  0.981122  0
H  H18  1  0.79871591  0.47225299  0.73386425  1  0  0.112668  0  0.943064  0  0  0.129336  0  1.010349  0  0  0.130864  0  1.009283  0  0  0.104944  0.128295  0  1.011138  0
H  H19  1  0.20127842  0.52775345  0.26613289  1  0  0.112639  0  0.943159  0  0  0.129293  0  1.010465  0  0  0.130819  0  1.009402  0  0  0.104902  0.128247  0  1.01126  0
H  H20  1  0.91691713  0.34905079  0.84947598  1  0  0.096561  0  0.960598  0  0  0.114946  0  1.027464  0  0  0.114489  0  1.030435  0  0  0.100411  0.115098  0  1.025728  0
H  H21  1  0.08307966  0.65095570  0.15051961  1  0  0.096548  0  0.96064  0  0  0.114981  0  1.027451  0  0  0.114525  0  1.030421  0  0  0.100402  0.115131  0  1.025714  0
H  H22  1  0.04006741  0.20102955  0.57726797  1  0  0.131327  0  0.95412  0  0  0.145204  0  1.022544  0  0  0.147908  0  1.019978  0  0  0.118083  0.143136  0  1.024541  0
H  H23  1  0.95993315  0.79897590  0.42272709  1  0  0.131347  0  0.954139  0  0  0.145219  0  1.02256  0  0  0.147923  0  1.019995  0  0  0.118085  0.143152  0  1.024549  0
H  H24  1  0.11582681  0.27998173  0.66418488  1  0  0.09441  0  0.940747  0  0  0.115114  0  1.004744  0  0  0.114329  0  1.006797  0  0  0.10283  0.115499  0  1.003466  0
H  H25  1  0.88417371  0.72002365  0.33581480  1  0  0.094406  0  0.940761  0  0  0.11511  0  1.004742  0  0  0.114325  0  1.006795  0  0  0.102825  0.115496  0  1.003464  0
H  H26  1  0.02040297  0.39267045  0.52780377  1  0  0.091138  0  0.950453  0  0  0.113485  0  1.011284  0  0  0.113972  0  1.010967  0  0  0.102279  0.113174  0  1.011365  0
H  H27  1  0.97959754  0.60733490  0.47219776  1  0  0.091131  0  0.950439  0  0  0.113477  0  1.011271  0  0  0.113969  0  1.010949  0  0  0.102274  0.113167  0  1.011351  0
H  H28  1  0.76240507  0.08037230  0.34440423  1  0  0.428918  0  0.87817  0  0  0.395597  0  0.946631  0  0  0.406708  0  0.930534  0  0  0.300242  0.387654  0  0.958171  0
H  H29  1  0.23758816  0.91963192  0.65559498  1  0  0.428881  0  0.878215  0  0  0.395535  0  0.946725  0  0  0.406648  0  0.930627  0  0  0.300201  0.387591  0  0.958263  0
H  H30  1  0.91653595  0.09664523  0.38944026  1  0  0.450921  0  0.838703  0  0  0.419887  0  0.901384  0  0  0.431497  0  0.884383  0  0  0.308027  0.411589  0  0.913523  0
H  H31  1  0.08345887  0.90335359  0.61055976  1  0  0.450875  0  0.838751  0  0  0.419853  0  0.901411  0  0  0.431461  0  0.884414  0  0  0.308051  0.411556  0  0.913548  0
C  C32  1  0.43272761  0.26145405  0.45158192  1  0  0.67996  0  3.873521  0  0  0.630665  0  4.161724  0  0  0.666473  0  4.152119  0  0  0.226988  0.606049  0  4.167834  0
C  C33  1  0.56727029  0.73853498  0.54842395  1  0  0.679927  0  3.873709  0  0  0.6306  0  4.161978  0  0  0.666394  0  4.152372  0  0  0.226918  0.605994  0  4.168068  0
C  C34  1  0.46697630  0.38379240  0.47797689  1  0  -0.053745  0  3.748944  0  0  -0.030464  0  3.978538  0  0  -0.035588  0  3.998312  0  0  -0.009266  -0.026883  0  3.965078  0
C  C35  1  0.53302189  0.61619228  0.52203062  1  0  -0.053686  0  3.749244  0  0  -0.030448  0  3.978911  0  0  -0.035516  0  3.998614  0  0  -0.009219  -0.026867  0  3.965442  0
C  C36  1  0.46705975  0.36367322  0.61332772  1  0  -0.087352  0  3.737643  0  0  -0.110207  0  3.987821  0  0  -0.111271  0  4.007451  0  0  -0.083783  -0.109324  0  3.974898  0
C  C37  1  0.53293356  0.63631025  0.38668424  1  0  -0.08731  0  3.737842  0  0  -0.110199  0  3.988037  0  0  -0.111283  0  4.007649  0  0  -0.083808  -0.109308  0  3.9751  0
C  C38  1  0.49910819  0.52068264  0.36543994  1  0  -0.073174  0  3.736232  0  0  -0.097402  0  3.985045  0  0  -0.098576  0  4.005453  0  0  -0.081033  -0.096333  0  3.970752  0
C  C39  1  0.50088953  0.47930973  0.63456007  1  0  -0.073245  0  3.736172  0  0  -0.097426  0  3.984984  0  0  -0.09862  0  4.00538  0  0  -0.081106  -0.096357  0  3.970696  0
C  C40  1  0.32792006  0.95561660  0.83633609  1  0  0.640678  0  3.894023  0  0  0.589923  0  4.184879  0  0  0.624529  0  4.177547  0  0  0.206413  0.566505  0  4.188945  0
C  C41  1  0.67207712  0.04438328  0.16366751  1  0  0.640655  0  3.894165  0  0  0.589865  0  4.185076  0  0  0.624471  0  4.177742  0  0  0.206347  0.566445  0  4.189144  0
C  C42  1  0.15863975  0.97910851  0.92051127  1  0  -0.05855  0  3.752914  0  0  -0.036392  0  3.986266  0  0  -0.042618  0  4.007223  0  0  -0.01231  -0.032205  0  3.97181  0
C  C43  1  0.84135221  0.02089685  0.07948414  1  0  -0.058727  0  3.753171  0  0  -0.036472  0  3.986429  0  0  -0.042699  0  4.007385  0  0  -0.012331  -0.032289  0  3.971978  0
C  C44  1  0.02723910  0.90537710  0.93338886  1  0  -0.062654  0  3.724944  0  0  -0.087122  0  3.975838  0  0  -0.086886  0  3.995245  0  0  -0.080473  -0.087106  0  3.962539  0
C  C45  1  0.97275943  0.09464025  0.06660476  1  0  -0.062731  0  3.724845  0  0  -0.087191  0  3.975752  0  0  -0.086955  0  3.995158  0  0  -0.080525  -0.08717  0  3.962445  0
C  C46  1  0.13106551  0.07439446  0.98746644  1  0  -0.075224  0  3.715349  0  0  -0.099628  0  3.969651  0  0  -0.100583  0  3.988782  0  0  -0.080454  -0.098978  0  3.956687  0
C  C47  1  0.86892644  0.92561088  0.01252989  1  0  -0.075254  0  3.71555  0  0  -0.099732  0  3.969891  0  0  -0.100682  0  3.989019  0  0  -0.080528  -0.099089  0  3.956938  0
C  C48  1  0.82999190  0.73500546  0.81646781  1  0  0.637013  0  3.899667  0  0  0.588167  0  4.191196  0  0  0.622023  0  4.185175  0  0  0.203906  0.564838  0  4.195201  0
C  C49  1  0.17002410  0.26498927  0.18353220  1  0  0.636906  0  3.900013  0  0  0.588068  0  4.191588  0  0  0.621922  0  4.185568  0  0  0.203828  0.564743  0  4.195585  0
C  C50  1  0.91937907  0.61291973  0.90914984  1  0  -0.055473  0  3.74556  0  0  -0.031676  0  3.974861  0  0  -0.03747  0  3.996043  0  0  -0.010359  -0.028238  0  3.961192  0
C  C51  1  0.08063794  0.38707826  0.09085047  1  0  -0.055498  0  3.745463  0  0  -0.031845  0  3.974991  0  0  -0.037641  0  3.996173  0  0  -0.010349  -0.028413  0  3.961326  0
C  C52  1  0.83534042  0.53660625  0.05179988  1  0  -0.065842  0  3.716176  0  0  -0.089184  0  3.963422  0  0  -0.090314  0  3.983351  0  0  -0.078895  -0.088458  0  3.950306  0
C  C53  1  0.16466897  0.46339608  0.94819421  1  0  -0.065838  0  3.716285  0  0  -0.089158  0  3.963621  0  0  -0.09029  0  3.983556  0  0  -0.078961  -0.088432  0  3.950508  0
C  C54  1  0.08529824  0.57534545  0.85734394  1  0  -0.071151  0  3.718538  0  0  -0.095063  0  3.971189  0  0  -0.095147  0  3.989275  0  0  -0.078882  -0.094695  0  3.95924  0
C  C55  1  0.91471755  0.42465253  0.14265576  1  0  -0.071068  0  3.718309  0  0  -0.094899  0  3.97103  0  0  -0.094982  0  3.989113  0  0  -0.078894  -0.094528  0  3.959085  0
C  C56  1  0.75489555  0.17256935  0.74451279  1  0  0.412843  0  3.794957  0  0  0.335047  0  4.087501  0  0  0.363405  0  4.089065  0  0  0.189012  0.316148  0  4.085522  0
C  C57  1  0.24510370  0.82743716  0.25548309  1  0  0.412896  0  3.794912  0  0  0.33503  0  4.087528  0  0  0.363389  0  4.08909  0  0  0.189023  0.316126  0  4.085552  0
C  C58  1  0.81749304  0.35777098  0.80324173  1  0  -0.183776  0  3.655757  0  0  -0.288546  0  3.910634  0  0  -0.285913  0  3.92255  0  0  -0.132471  -0.29001  0  3.902552  0
C  C59  1  0.18250136  0.64223439  0.19675490  1  0  -0.183665  0  3.655849  0  0  -0.28846  0  3.910706  0  0  -0.285828  0  3.922622  0  0  -0.132366  -0.28992  0  3.902625  0
C  C60  1  0.01834175  0.28614220  0.61685227  1  0  -0.164052  0  3.627825  0  0  -0.264969  0  3.874365  0  0  -0.260906  0  3.883277  0  0  -0.132491  -0.267451  0  3.868117  0
C  C61  1  0.98165646  0.71386099  0.38314794  1  0  -0.164032  0  3.627801  0  0  -0.26494  0  3.874339  0  0  -0.26088  0  3.883249  0  0  -0.132484  -0.267429  0  3.868089  0
N  N62  1  0.85986158  0.26680214  0.72405881  1  0  -0.088244  0  3.512995  0  0  0.018449  0  3.744054  0  0  -0.002303  0  3.770855  0  0  -0.276317  0.032357  0  3.725334  0
N  N63  1  0.14013774  0.73320328  0.27593748  1  0  -0.088313  0  3.512991  0  0  0.01836  0  3.744118  0  0  -0.00239  0  3.770917  0  0  -0.276344  0.032269  0  3.725401  0
O  O64  1  0.47467884  0.13035302  0.52389859  1  0  -0.735236  0  2.076515  0  0  -0.665207  0  2.325171  0  0  -0.696885  0  2.317149  0  0  -0.366332  -0.642502  0  2.330954  0
O  O65  1  0.52530314  0.86963469  0.47611086  1  0  -0.735238  0  2.076755  0  0  -0.665206  0  2.325487  0  0  -0.696886  0  2.317476  0  0  -0.366249  -0.642499  0  2.331257  0
O  O66  1  0.36179385  0.28997868  0.35683864  1  0  -0.650222  0  1.975495  0  0  -0.595152  0  2.209421  0  0  -0.622523  0  2.201399  0  0  -0.344257  -0.576403  0  2.214501  0
O  O67  1  0.63820724  0.71001800  0.64316432  1  0  -0.650222  0  1.975453  0  0  -0.595126  0  2.209398  0  0  -0.6225  0  2.201383  0  0  -0.344248  -0.576393  0  2.21449  0
O  O68  1  0.35129173  0.87354387  0.76913095  1  0  -0.678738  0  2.006494  0  0  -0.611498  0  2.229518  0  0  -0.639871  0  2.221339  0  0  -0.347631  -0.591715  0  2.234667  0
O  O69  1  0.64870695  0.12645166  0.23087491  1  0  -0.678662  0  2.006523  0  0  -0.611455  0  2.229581  0  0  -0.639825  0  2.221401  0  0  -0.347624  -0.591674  0  2.234728  0
O  O70  1  0.44805204  0.01806408  0.82949889  1  0  -0.650764  0  2.004135  0  0  -0.596266  0  2.243256  0  0  -0.623707  0  2.234653  0  0  -0.343123  -0.576902  0  2.248618  0
O  O71  1  0.55194779  0.98193253  0.17050716  1  0  -0.650748  0  2.004156  0  0  -0.596262  0  2.24331  0  0  -0.623705  0  2.234715  0  0  -0.343092  -0.576896  0  2.248672  0
O  O72  1  0.90362520  0.80866549  0.68576716  1  0  -0.6737  0  1.987858  0  0  -0.609571  0  2.214663  0  0  -0.637303  0  2.205676  0  0  -0.337681  -0.590172  0  2.221209  0
O  O73  1  0.09638853  0.19132714  0.31422783  1  0  -0.673554  0  1.988057  0  0  -0.609407  0  2.214824  0  0  -0.637126  0  2.20583  0  0  -0.337565  -0.59001  0  2.221366  0
O  O74  1  0.67949818  0.76481380  0.86967416  1  0  -0.648687  0  1.939849  0  0  -0.597207  0  2.17013  0  0  -0.624505  0  2.161914  0  0  -0.358959  -0.577798  0  2.17547  0
O  O75  1  0.32051398  0.23518304  0.13032689  1  0  -0.648638  0  1.940027  0  0  -0.597149  0  2.170282  0  0  -0.624444  0  2.162068  0  0  -0.358909  -0.577738  0  2.175613  0
O  O76  1  0.78164270  0.09943042  0.67168489  1  0  -0.588673  0  2.105945  0  0  -0.526637  0  2.367174  0  0  -0.554224  0  2.361081  0  0  -0.354346  -0.507124  0  2.370741  0
O  O77  1  0.21835565  0.90057059  0.32831613  1  0  -0.588663  0  2.105928  0  0  -0.526632  0  2.36719  0  0  -0.554217  0  2.3611  0  0  -0.354383  -0.507116  0  2.370751  0
O  O78  1  0.81569544  0.04116494  0.42299493  1  0  -0.88365  0  1.851877  0  0  -0.827513  0  2.05277  0  0  -0.850312  0  2.019065  0  0  -0.625675  -0.811217  0  2.076531  0
O  O79  1  0.18429508  0.95884245  0.57700736  1  0  -0.883554  0  1.85192  0  0  -0.827415  0  2.05277  0  0  -0.850213  0  2.019068  0  0  -0.625687  -0.81112  0  2.076535  0
