# generated using pymatgen
data_Cu2H5C4NCl2
_symmetry_space_group_name_H-M   'P 1'
_cell_length_a   6.80781067
_cell_length_b   13.17340867
_cell_length_c   15.36500000
_cell_angle_alpha   90.00000000
_cell_angle_beta   90.00000000
_cell_angle_gamma   90.00000000
_symmetry_Int_Tables_number   1
_chemical_formula_structural   Cu2H5C4NCl2
_chemical_formula_sum   'Cu16 H40 C32 N8 Cl16'
_cell_volume   1377.96503696
_cell_formula_units_Z   8
loop_
 _symmetry_equiv_pos_site_id
 _symmetry_equiv_pos_as_xyz
  1  'x, y, z'
loop_
 _atom_site_type_symbol
 _atom_site_label
 _atom_site_symmetry_multiplicity
 _atom_site_fract_x
 _atom_site_fract_y
 _atom_site_fract_z
 _atom_site_occupancy
 _atom_site_hle17_bader_spin_density
 _atom_site_hle17_ddec_charge
 _atom_site_hle17_ddec_spin_density
 _atom_site_hle17_ddec_sum_bond_order
 _atom_site_hle17_magmom
 _atom_site_hse06_10hf_bader_spin_density
 _atom_site_hse06_10hf_ddec_charge
 _atom_site_hse06_10hf_ddec_spin_density
 _atom_site_hse06_10hf_ddec_sum_bond_order
 _atom_site_hse06_10hf_magmom
 _atom_site_hse06_bader_spin_density
 _atom_site_hse06_ddec_charge
 _atom_site_hse06_ddec_spin_density
 _atom_site_hse06_ddec_sum_bond_order
 _atom_site_hse06_magmom
 _atom_site_pbe_bader_charge
 _atom_site_pbe_bader_spin_density
 _atom_site_pbe_cm5_charge
 _atom_site_pbe_ddec_charge
 _atom_site_pbe_ddec_spin_density
 _atom_site_pbe_ddec_sum_bond_order
 _atom_site_pbe_magmom
Cu  Cu0  1  0.82386986  0.79659033  0.91147413  1  0  0.55118  0  1.980227  0  0  0.477119  0  2.479667  0  0  0.474932  0  2.43219  0  0.679174  0  0.400855  0.480492  0  2.510684  0
Cu  Cu1  1  0.32386623  0.79659868  0.58851936  1  0  0.551143  0  1.980153  0  0  0.477057  0  2.479595  0  0  0.474884  0  2.432072  0  0.679264  0  0.400778  0.48043  0  2.51061  0
Cu  Cu2  1  0.82387573  0.70339729  0.41148715  1  0  0.550978  0  1.979705  0  0  0.476888  0  2.479157  0  0  0.474745  0  2.431605  0  0.679366  0  0.400604  0.48025  0  2.510185  0
Cu  Cu3  1  0.32387798  0.70339729  0.08851220  1  0  0.551064  0  1.979775  0  0  0.476972  0  2.479177  0  0  0.474825  0  2.431607  0  0.679131  0  0.400637  0.480331  0  2.510212  0
Cu  Cu4  1  0.17612417  0.20340294  0.08852001  1  0  0.551071  0  1.979902  0  0  0.47698  0  2.479331  0  0  0.474818  0  2.4318  0  0.679128  0  0.400685  0.480347  0  2.510348  0
Cu  Cu5  1  0.67613073  0.20339990  0.41148454  1  0  0.551152  0  1.979919  0  0  0.477096  0  2.479372  0  0  0.474944  0  2.43182  0  0.679283  0  0.400754  0.480464  0  2.510395  0
Cu  Cu6  1  0.17613005  0.29659901  0.58852131  1  0  0.551162  0  1.980093  0  0  0.47707  0  2.479546  0  0  0.474901  0  2.432009  0  0.679316  0  0.400766  0.480443  0  2.510561  0
Cu  Cu7  1  0.67612632  0.29659825  0.91148194  1  0  0.551139  0  1.980046  0  0  0.477075  0  2.479487  0  0  0.474911  0  2.431955  0  0.679245  0  0.400771  0.480444  0  2.510505  0
Cu  Cu8  1  0.76730101  0.04721329  0.05184315  1  0  0.548983  0  1.980071  0  0  0.507316  0  2.434273  0  0  0.511794  0  2.392386  0  0.654503  0  0.416241  0.50321  0  2.464151  0
Cu  Cu9  1  0.26729886  0.04722240  0.44815490  1  0  0.548968  0  1.980004  0  0  0.507283  0  2.434223  0  0  0.511766  0  2.392335  0  0.654617  0  0.416237  0.503172  0  2.464106  0
Cu  Cu10  1  0.76729954  0.45278258  0.55183925  1  0  0.54904  0  1.980244  0  0  0.507366  0  2.434488  0  0  0.511862  0  2.392603  0  0.654695  0  0.416244  0.503256  0  2.464363  0
Cu  Cu11  1  0.26728857  0.45278258  0.94816206  1  0  0.54899  0  1.980048  0  0  0.507321  0  2.434258  0  0  0.511802  0  2.392373  0  0.654655  0  0.416213  0.503213  0  2.464137  0
Cu  Cu12  1  0.23269155  0.95278909  0.94816466  1  0  0.548966  0  1.979957  0  0  0.50728  0  2.434163  0  0  0.511756  0  2.392266  0  0.654755  0  0.416157  0.503173  0  2.464045  0
Cu  Cu13  1  0.73270252  0.95277770  0.55183599  1  0  0.548922  0  1.98016  0  0  0.507222  0  2.434429  0  0  0.511713  0  2.392543  0  0.65472  0  0.416162  0.503112  0  2.464308  0
Cu  Cu14  1  0.23270036  0.54722207  0.44815945  1  0  0.548916  0  1.979975  0  0  0.507218  0  2.434182  0  0  0.511699  0  2.392283  0  0.654526  0  0.416181  0.503112  0  2.464061  0
Cu  Cu15  1  0.73269370  0.54721069  0.05183990  1  0  0.548954  0  1.980169  0  0  0.507281  0  2.434384  0  0  0.511754  0  2.392496  0  0.654476  0  0.416178  0.503171  0  2.464264  0
H  H16  1  0.02315429  0.57971784  0.67112528  1  0  0.127966  0  0.944954  0  0  0.144134  0  0.999347  0  0  0.14513  0  1.001587  0  0.137132  0  0.103786  0.143295  0  0.99798  0
H  H17  1  0.52313147  0.57971784  0.82886821  1  0  0.127962  0  0.944912  0  0  0.144119  0  0.999312  0  0  0.145117  0  1.00156  0  0.128986  0  0.103764  0.143279  0  0.997949  0
H  H18  1  0.02313519  0.92027207  0.17112138  1  0  0.127908  0  0.945134  0  0  0.144038  0  0.999548  0  0  0.145038  0  1.001792  0  0.128938  0  0.103783  0.143199  0  0.998187  0
H  H19  1  0.52313735  0.92028573  0.32886951  1  0  0.127847  0  0.945201  0  0  0.144025  0  0.999523  0  0  0.145019  0  1.001773  0  0.128992  0  0.103772  0.143187  0  0.99816  0
H  H20  1  0.97687940  0.42027315  0.32886886  1  0  0.127905  0  0.945073  0  0  0.144047  0  0.999493  0  0  0.145046  0  1.001736  0  0.129033  0  0.103739  0.143207  0  0.998132  0
H  H21  1  0.47685374  0.42027391  0.17112073  1  0  0.127952  0  0.945026  0  0  0.1441  0  0.999418  0  0  0.145102  0  1.001659  0  0.128906  0  0.103776  0.143257  0  0.998062  0
H  H22  1  0.97685149  0.07972955  0.82888383  1  0  0.128031  0  0.944856  0  0  0.144112  0  0.999335  0  0  0.145114  0  1.001574  0  0.128929  0  0.103781  0.143271  0  0.997975  0
H  H23  1  0.47684934  0.07971361  0.67112203  1  0  0.128045  0  0.944828  0  0  0.144167  0  0.999245  0  0  0.145162  0  1.001494  0  0.137167  0  0.10376  0.14333  0  0.997875  0
H  H24  1  0.90679373  0.67382105  0.60714676  1  0  0.127586  0  0.965572  0  0  0.134013  0  1.037331  0  0  0.137903  0  1.034267  0  0.144862  0  0.096577  0.131173  0  1.039504  0
H  H25  1  0.40678276  0.67381421  0.89285063  1  0  0.127656  0  0.965477  0  0  0.134042  0  1.037259  0  0  0.137938  0  1.034183  0  0.144994  0  0.096629  0.1312  0  1.039437  0
H  H26  1  0.90681282  0.82618632  0.10716759  1  0  0.127678  0  0.965539  0  0  0.134075  0  1.03729  0  0  0.137966  0  1.034228  0  0.145295  0  0.09666  0.13124  0  1.039463  0
H  H27  1  0.40682389  0.82620454  0.39282720  1  0  0.127672  0  0.965431  0  0  0.133989  0  1.037288  0  0  0.137873  0  1.034223  0  0.145221  0  0.096573  0.131152  0  1.039462  0
H  H28  1  0.09318561  0.32619424  0.39284998  1  0  0.127531  0  0.965725  0  0  0.133936  0  1.037476  0  0  0.137825  0  1.034407  0  0.145094  0  0.096616  0.131099  0  1.039648  0
H  H29  1  0.59319364  0.32617678  0.10716824  1  0  0.127615  0  0.965646  0  0  0.134034  0  1.037382  0  0  0.137925  0  1.034316  0  0.144888  0  0.096615  0.131198  0  1.039553  0
H  H30  1  0.09320618  0.17382365  0.89284087  1  0  0.12756  0  0.965734  0  0  0.133995  0  1.037446  0  0  0.137886  0  1.034378  0  0.144925  0  0.096618  0.13116  0  1.039616  0
H  H31  1  0.59322302  0.17381986  0.60715587  1  0  0.127687  0  0.965486  0  0  0.134038  0  1.037273  0  0  0.137923  0  1.034215  0  0.145019  0  0.096603  0.131201  0  1.039445  0
H  H32  1  0.57495870  0.58856521  0.63026749  1  0  0.099875  0  0.970047  0  0  0.10608  0  1.038058  0  0  0.108026  0  1.038327  0  0.148421  0  0.091724  0.104641  0  1.037966  0
H  H33  1  0.07495508  0.58856217  0.86972730  1  0  0.099923  0  0.969929  0  0  0.10611  0  1.037966  0  0  0.10806  0  1.038229  0  0.14845  0  0.091692  0.104669  0  1.037878  0
H  H34  1  0.57499983  0.91143608  0.13027400  1  0  0.099865  0  0.969712  0  0  0.106019  0  1.037891  0  0  0.107952  0  1.038168  0  0.148523  0  0.09163  0.104577  0  1.037802  0
H  H35  1  0.07500796  0.91144671  0.36972340  1  0  0.099895  0  0.969792  0  0  0.106049  0  1.037947  0  0  0.107995  0  1.03821  0  0.148602  0  0.091679  0.104608  0  1.037858  0
H  H36  1  0.42501035  0.41143945  0.36973121  1  0  0.099873  0  0.969936  0  0  0.105978  0  1.038105  0  0  0.107922  0  1.03837  0  0.148336  0  0.091645  0.104537  0  1.038013  0
H  H37  1  0.92500516  0.41142806  0.13027009  1  0  0.099807  0  0.969887  0  0  0.106001  0  1.037973  0  0  0.107948  0  1.038237  0  0.148261  0  0.091664  0.104559  0  1.037884  0
H  H38  1  0.42500301  0.08856098  0.86972860  1  0  0.099856  0  0.969955  0  0  0.105996  0  1.03809  0  0  0.107943  0  1.038352  0  0.14836  0  0.091639  0.104557  0  1.037998  0
H  H39  1  0.92505070  0.08856326  0.63026684  1  0  0.099879  0  0.969973  0  0  0.106075  0  1.037989  0  0  0.108023  0  1.038254  0  0.148389  0  0.091685  0.104634  0  1.037899  0
H  H40  1  0.83828859  0.42209956  0.71504133  1  0  0.138615  0  0.961375  0  0  0.152407  0  1.022256  0  0  0.154617  0  1.021417  0  0.08197  0  0.093201  0.150739  0  1.022968  0
H  H41  1  0.33822621  0.42209652  0.78496193  1  0  0.138534  0  0.961593  0  0  0.152232  0  1.022668  0  0  0.154439  0  1.021825  0  0.082192  0  0.09311  0.150561  0  1.02339  0
H  H42  1  0.83823424  0.07788645  0.21502896  1  0  0.138528  0  0.961721  0  0  0.152289  0  1.022677  0  0  0.154495  0  1.021832  0  0.082179  0  0.093195  0.150623  0  1.023395  0
H  H43  1  0.33820418  0.07790239  0.28496583  1  0  0.138537  0  0.961674  0  0  0.152246  0  1.02272  0  0  0.15445  0  1.02188  0  0.082272  0  0.093145  0.150577  0  1.023443  0
H  H44  1  0.16178623  0.57789143  0.28496518  1  0  0.138509  0  0.96173  0  0  0.15225  0  1.022708  0  0  0.154455  0  1.02187  0  0.082352  0  0.093122  0.150579  0  1.023436  0
H  H45  1  0.66176341  0.57788460  0.21503677  1  0  0.13855  0  0.961543  0  0  0.152269  0  1.022591  0  0  0.154474  0  1.02175  0  0.082213  0  0.093184  0.150599  0  1.023315  0
H  H46  1  0.16174804  0.92211062  0.78497039  1  0  0.138526  0  0.961525  0  0  0.152259  0  1.022549  0  0  0.15447  0  1.021701  0  0.082145  0  0.093208  0.150591  0  1.02327  0
H  H47  1  0.66175313  0.92209999  0.71504003  1  0  0.138498  0  0.961438  0  0  0.152231  0  1.022483  0  0  0.154439  0  1.021642  0  0.08213  0  0.093132  0.15056  0  1.023205  0
H  H48  1  0.57488379  0.41104092  0.68503157  1  0  0.136873  0  0.969896  0  0  0.147411  0  1.035199  0  0  0.150107  0  1.033407  0  0.088019  0  0.090077  0.145466  0  1.036466  0
H  H49  1  0.07488751  0.41104471  0.81497364  1  0  0.136834  0  0.96997  0  0  0.147339  0  1.035309  0  0  0.150034  0  1.033512  0  0.088256  0  0.090057  0.145394  0  1.036579  0
H  H50  1  0.57495430  0.08894053  0.18503352  1  0  0.136941  0  0.970219  0  0  0.147522  0  1.0354  0  0  0.150214  0  1.033605  0  0.088542  0  0.090165  0.14558  0  1.036671  0
H  H51  1  0.07493158  0.08894888  0.31496583  1  0  0.136811  0  0.970274  0  0  0.147398  0  1.035467  0  0  0.150089  0  1.033671  0  0.088409  0  0.090099  0.145453  0  1.036738  0
H  H52  1  0.42507792  0.58894552  0.31496713  1  0  0.136912  0  0.97019  0  0  0.147468  0  1.035428  0  0  0.15016  0  1.033634  0  0.088353  0  0.090119  0.145523  0  1.0367  0
H  H53  1  0.92508742  0.58893869  0.18503091  1  0  0.136909  0  0.970106  0  0  0.147429  0  1.035401  0  0  0.150121  0  1.033606  0  0.088355  0  0.090103  0.145484  0  1.036675  0
H  H54  1  0.42507351  0.91105122  0.81497039  1  0  0.136916  0  0.97008  0  0  0.147447  0  1.035349  0  0  0.150142  0  1.033551  0  0.088234  0  0.090088  0.145502  0  1.036621  0
H  H55  1  0.92510798  0.91104590  0.68503026  1  0  0.136837  0  0.970047  0  0  0.147367  0  1.035342  0  0  0.150062  0  1.033548  0  0.088115  0  0.090084  0.145422  0  1.03661  0
C  C56  1  0.85899275  0.68516966  0.74023300  1  0  0.399444  0  3.603181  0  0  0.390083  0  3.8657  0  0  0.404018  0  3.879793  0  0.893268  0  0.214309  0.380301  0  3.856589  0
C  C57  1  0.35899059  0.68515296  0.75976830  1  0  0.39953  0  3.603033  0  0  0.390131  0  3.865581  0  0  0.404072  0  3.879688  0  0.892778  0  0.214301  0.380363  0  3.856426  0
C  C58  1  0.85902066  0.81484605  0.24021347  1  0  0.399477  0  3.60415  0  0  0.390063  0  3.866647  0  0  0.404004  0  3.880768  0  0.892527  0  0.214101  0.380288  0  3.857512  0
C  C59  1  0.35901557  0.81485440  0.25978197  1  0  0.399443  0  3.603675  0  0  0.390062  0  3.866148  0  0  0.404001  0  3.880257  0  0.892453  0  0.214221  0.380298  0  3.856988  0
C  C60  1  0.14098512  0.31485625  0.25977351  1  0  0.399464  0  3.6037  0  0  0.390073  0  3.866213  0  0  0.404011  0  3.880325  0  0.89337  0  0.214214  0.380311  0  3.857043  0
C  C61  1  0.64099021  0.31483195  0.24022128  1  0  0.399544  0  3.603459  0  0  0.390146  0  3.86597  0  0  0.404084  0  3.880081  0  0.893208  0  0.214273  0.380368  0  3.856851  0
C  C62  1  0.14099393  0.18516620  0.75977742  1  0  0.399463  0  3.603509  0  0  0.390096  0  3.865998  0  0  0.404033  0  3.880103  0  0.89329  0  0.214244  0.380323  0  3.856861  0
C  C63  1  0.64101371  0.18516164  0.74022649  1  0  0.399484  0  3.603489  0  0  0.390109  0  3.865954  0  0  0.40404  0  3.880062  0  0.893654  0  0.214265  0.380342  0  3.856803  0
C  C64  1  0.88591330  0.62312498  0.66341686  1  0  -0.200584  0  3.78934  0  0  -0.226617  0  4.007749  0  0  -0.230351  0  4.015565  0  0.031556  0  -0.146009  -0.223938  0  4.002684  0
C  C65  1  0.38590380  0.62312877  0.83657598  1  0  -0.200578  0  3.789658  0  0  -0.226525  0  4.007996  0  0  -0.230274  0  4.015827  0  0.039971  0  -0.145971  -0.223845  0  4.002935  0
C  C66  1  0.88592652  0.87686796  0.16343378  1  0  -0.200561  0  3.790614  0  0  -0.226475  0  4.008923  0  0  -0.230237  0  4.016771  0  0.039994  0  -0.146045  -0.223802  0  4.003866  0
C  C67  1  0.38591849  0.87689149  0.33657143  1  0  -0.200521  0  3.790551  0  0  -0.226374  0  4.00883  0  0  -0.230119  0  4.016673  0  0.039768  0  -0.145939  -0.2237  0  4.003772  0
C  C68  1  0.11409395  0.37687284  0.33658119  1  0  -0.200322  0  3.790213  0  0  -0.226301  0  4.008584  0  0  -0.230048  0  4.016421  0  0.039541  0  -0.145919  -0.223623  0  4.003517  0
C  C69  1  0.61407407  0.37686905  0.16342532  1  0  -0.200556  0  3.790028  0  0  -0.22649  0  4.008289  0  0  -0.230243  0  4.016128  0  0.039939  0  -0.145994  -0.223814  0  4.003226  0
C  C70  1  0.11408514  0.12312986  0.83658119  1  0  -0.200551  0  3.789991  0  0  -0.226539  0  4.008437  0  0  -0.230287  0  4.016268  0  0.039804  0  -0.146044  -0.223862  0  4.00337  0
C  C71  1  0.61409317  0.12312075  0.66342141  1  0  -0.200781  0  3.789603  0  0  -0.226622  0  4.007869  0  0  -0.230358  0  4.0157  0  0.031401  0  -0.145954  -0.223944  0  4.002806  0
C  C72  1  0.71253450  0.55240752  0.64954312  1  0  -0.064118  0  3.735351  0  0  -0.076531  0  4.01857  0  0  -0.074691  0  4.03064  0  -0.187611  0  -0.157329  -0.07746  0  4.01001  0
C  C73  1  0.21253529  0.55240828  0.85045233  1  0  -0.064311  0  3.73601  0  0  -0.076701  0  4.019226  0  0  -0.074855  0  4.031287  0  -0.18797  0  -0.157299  -0.077631  0  4.010672  0
C  C74  1  0.71256535  0.94760136  0.14956264  1  0  -0.06412  0  3.735942  0  0  -0.076541  0  4.019202  0  0  -0.074677  0  4.031263  0  -0.187724  0  -0.157154  -0.077468  0  4.01065  0
C  C75  1  0.21256613  0.94759909  0.35043150  1  0  -0.064035  0  3.736395  0  0  -0.076462  0  4.019629  0  0  -0.07461  0  4.031686  0  -0.187819  0  -0.157179  -0.077392  0  4.011077  0
C  C76  1  0.28744483  0.44758499  0.35044126  1  0  -0.064082  0  3.736058  0  0  -0.07642  0  4.019197  0  0  -0.074563  0  4.031251  0  -0.187689  0  -0.157179  -0.077347  0  4.010641  0
C  C77  1  0.78743964  0.44758575  0.14955288  1  0  -0.064143  0  3.735851  0  0  -0.076605  0  4.019115  0  0  -0.07475  0  4.031165  0  -0.187662  0  -0.157263  -0.077533  0  4.010563  0
C  C78  1  0.28743014  0.05241923  0.85045428  1  0  -0.064117  0  3.736155  0  0  -0.076482  0  4.019322  0  0  -0.074625  0  4.031369  0  -0.187904  0  -0.157261  -0.077413  0  4.010771  0
C  C79  1  0.78747196  0.05240709  0.64954963  1  0  -0.064076  0  3.735835  0  0  -0.076477  0  4.018986  0  0  -0.074632  0  4.03105  0  -0.187707  0  -0.157208  -0.077409  0  4.01043  0
C  C80  1  0.71226423  0.45332838  0.68035600  1  0  -0.317575  0  3.678079  0  0  -0.371635  0  3.962879  0  0  -0.370372  0  3.969211  0  -0.164663  0  -0.246905  -0.372061  0  3.958363  0
C  C81  1  0.21222976  0.45335115  0.81963163  1  0  -0.317198  0  3.678696  0  0  -0.371228  0  3.96343  0  0  -0.369961  0  3.96978  0  -0.16509  0  -0.246704  -0.371657  0  3.958916  0
C  C82  1  0.71226423  0.04664548  0.18036381  1  0  -0.317311  0  3.679884  0  0  -0.371439  0  3.964661  0  0  -0.370167  0  3.970992  0  -0.165416  0  -0.24689  -0.37187  0  3.960141  0
C  C83  1  0.21225032  0.04664700  0.31964139  1  0  -0.317254  0  3.679912  0  0  -0.371333  0  3.964588  0  0  -0.370066  0  3.970933  0  -0.165195  0  -0.246825  -0.371762  0  3.960073  0
C  C84  1  0.28775771  0.54663604  0.31963423  1  0  -0.317307  0  3.679492  0  0  -0.371358  0  3.964144  0  0  -0.370088  0  3.970476  0  -0.16529  0  -0.246736  -0.371786  0  3.959627  0
C  C85  1  0.78775105  0.54664136  0.18036577  1  0  -0.317241  0  3.678999  0  0  -0.371298  0  3.96372  0  0  -0.370023  0  3.970052  0  -0.165014  0  -0.246757  -0.371726  0  3.959201  0
C  C86  1  0.28774743  0.95336904  0.81962968  1  0  -0.317294  0  3.678958  0  0  -0.371374  0  3.963688  0  0  -0.370102  0  3.970015  0  -0.164902  0  -0.246728  -0.3718  0  3.959165  0
C  C87  1  0.78775693  0.95334551  0.68036381  1  0  -0.317254  0  3.678715  0  0  -0.371314  0  3.963458  0  0  -0.370055  0  3.969817  0  -0.164853  0  -0.246796  -0.371744  0  3.958952  0
N  N88  1  0.83686082  0.73237233  0.80374943  1  0  -0.468562  0  3.133168  0  0  -0.4318  0  3.473558  0  0  -0.437354  0  3.467524  0  -1.285526  0  -0.400935  -0.428973  0  3.477777  0
N  N89  1  0.33686748  0.73237916  0.69625578  1  0  -0.4686  0  3.132101  0  0  -0.431833  0  3.472469  0  0  -0.437383  0  3.466432  0  -1.285146  0  -0.400895  -0.429  0  3.476681  0
N  N90  1  0.83688873  0.76764414  0.30373121  1  0  -0.468497  0  3.131654  0  0  -0.431706  0  3.471906  0  0  -0.437266  0  3.465884  0  -1.285301  0  -0.400594  -0.428874  0  3.476119  0
N  N91  1  0.33689979  0.76764718  0.19626749  1  0  -0.468554  0  3.131847  0  0  -0.431803  0  3.472153  0  0  -0.43735  0  3.466103  0  -1.285067  0  -0.400733  -0.428969  0  3.476368  0
N  N92  1  0.16312146  0.26762625  0.19627009  1  0  -0.468628  0  3.13236  0  0  -0.431842  0  3.472671  0  0  -0.437397  0  3.466643  0  -1.285449  0  -0.400778  -0.429006  0  3.476883  0
N  N93  1  0.66310892  0.26763460  0.30374487  1  0  -0.468666  0  3.132281  0  0  -0.431906  0  3.472621  0  0  -0.437469  0  3.466615  0  -1.285575  0  -0.400885  -0.42908  0  3.476833  0
N  N94  1  0.16311411  0.23237114  0.69625773  1  0  -0.468617  0  3.132655  0  0  -0.431861  0  3.472995  0  0  -0.437416  0  3.466965  0  -1.285537  0  -0.400833  -0.429029  0  3.477206  0
N  N95  1  0.66312361  0.23236203  0.80374487  1  0  -0.46851  0  3.132691  0  0  -0.431767  0  3.473041  0  0  -0.437324  0  3.467019  0  -1.285857  0  -0.400824  -0.428934  0  3.477254  0
Cl  Cl96  1  0.75661476  0.96643172  0.92361276  1  0  -0.545331  0  1.395222  0  0  -0.484178  0  1.791424  0  0  -0.495145  0  1.751769  0  -0.61703  0  -0.282768  -0.476516  0  1.819095  0
Cl  Cl97  1  0.25662141  0.96643627  0.57638269  1  0  -0.545299  0  1.395274  0  0  -0.484145  0  1.791463  0  0  -0.495119  0  1.751809  0  -0.617175  0  -0.282744  -0.476482  0  1.819138  0
Cl  Cl98  1  0.75661622  0.53356502  0.42361341  1  0  -0.545253  0  1.395332  0  0  -0.484113  0  1.791587  0  0  -0.495094  0  1.751926  0  -0.617016  0  -0.282758  -0.476444  0  1.819256  0
Cl  Cl99  1  0.25661701  0.53356881  0.07638529  1  0  -0.545266  0  1.395416  0  0  -0.484132  0  1.791694  0  0  -0.495107  0  1.752028  0  -0.616947  0  -0.282767  -0.476463  0  1.819362  0
Cl  Cl100  1  0.24339249  0.03356762  0.07639050  1  0  -0.545267  0  1.395281  0  0  -0.484116  0  1.791508  0  0  -0.495089  0  1.751842  0  -0.616986  0  -0.282768  -0.476474  0  1.819226  0
Cl  Cl101  1  0.74339171  0.03356459  0.42361601  1  0  -0.545265  0  1.395366  0  0  -0.48413  0  1.791594  0  0  -0.495107  0  1.751936  0  -0.617019  0  -0.282761  -0.476444  0  1.819224  0
Cl  Cl102  1  0.24337633  0.46643736  0.57638789  1  0  -0.545285  0  1.395268  0  0  -0.48416  0  1.791495  0  0  -0.495137  0  1.751835  0  -0.617165  0  -0.282765  -0.476511  0  1.819197  0
Cl  Cl103  1  0.74337996  0.46643357  0.92361341  1  0  -0.545289  0  1.395333  0  0  -0.484159  0  1.791553  0  0  -0.495128  0  1.751891  0  -0.616953  0  -0.282771  -0.4765  0  1.819233  0
Cl  Cl104  1  0.15683456  0.78895070  0.97681093  1  0  -0.534593  0  1.565686  0  0  -0.467901  0  1.987064  0  0  -0.478735  0  1.945141  0  -0.60436  0  -0.272878  -0.460476  0  2.015652  0
Cl  Cl105  1  0.65683378  0.78895146  0.52319037  1  0  -0.534575  0  1.565815  0  0  -0.467907  0  1.98725  0  0  -0.478744  0  1.945328  0  -0.604329  0  -0.272911  -0.460476  0  2.015839  0
Cl  Cl106  1  0.15684337  0.71105287  0.47680573  1  0  -0.534537  0  1.565782  0  0  -0.467863  0  1.987215  0  0  -0.478699  0  1.945288  0  -0.60427  0  -0.272917  -0.460439  0  2.015812  0
Cl  Cl107  1  0.65683965  0.71104148  0.02319102  1  0  -0.534574  0  1.565749  0  0  -0.467919  0  1.987201  0  0  -0.478756  0  1.945284  0  -0.604306  0  -0.272901  -0.460452  0  2.015703  0
Cl  Cl108  1  0.84316387  0.21104712  0.02318842  1  0  -0.534616  0  1.565709  0  0  -0.46795  0  1.987129  0  0  -0.478783  0  1.945211  0  -0.604373  0  -0.272918  -0.460523  0  2.015723  0
Cl  Cl109  1  0.34316466  0.21105320  0.47681093  1  0  -0.534567  0  1.565691  0  0  -0.467905  0  1.987105  0  0  -0.478738  0  1.945181  0  -0.604267  0  -0.272891  -0.460481  0  2.015701  0
Cl  Cl110  1  0.84316828  0.28895027  0.52319167  1  0  -0.534551  0  1.5657  0  0  -0.467894  0  1.987105  0  0  -0.47873  0  1.945183  0  -0.60431  0  -0.272895  -0.460471  0  2.015701  0
Cl  Cl111  1  0.34316466  0.28895331  0.97681028  1  0  -0.534585  0  1.565715  0  0  -0.467913  0  1.987128  0  0  -0.478748  0  1.945209  0  -0.604369  0  -0.27291  -0.460486  0  2.015722  0
