# generated using pymatgen
data_LaH23C21(NO5)2
_symmetry_space_group_name_H-M   'P 1'
_cell_length_a   8.73010123
_cell_length_b   11.19416418
_cell_length_c   12.61407464
_cell_angle_alpha   73.71266257
_cell_angle_beta   85.85260252
_cell_angle_gamma   76.28779623
_symmetry_Int_Tables_number   1
_chemical_formula_structural   LaH23C21(NO5)2
_chemical_formula_sum   'La2 H46 C42 N4 O20'
_cell_volume   1149.50594703
_cell_formula_units_Z   2
loop_
 _symmetry_equiv_pos_site_id
 _symmetry_equiv_pos_as_xyz
  1  'x, y, z'
loop_
 _atom_site_type_symbol
 _atom_site_label
 _atom_site_symmetry_multiplicity
 _atom_site_fract_x
 _atom_site_fract_y
 _atom_site_fract_z
 _atom_site_occupancy
 _atom_site_hle17_bader_spin_density
 _atom_site_hle17_ddec_charge
 _atom_site_hle17_ddec_spin_density
 _atom_site_hle17_ddec_sum_bond_order
 _atom_site_hle17_magmom
 _atom_site_hse06_10hf_bader_spin_density
 _atom_site_hse06_10hf_ddec_charge
 _atom_site_hse06_10hf_ddec_spin_density
 _atom_site_hse06_10hf_ddec_sum_bond_order
 _atom_site_hse06_10hf_magmom
 _atom_site_hse06_bader_spin_density
 _atom_site_hse06_ddec_charge
 _atom_site_hse06_ddec_spin_density
 _atom_site_hse06_ddec_sum_bond_order
 _atom_site_hse06_magmom
 _atom_site_pbe_bader_spin_density
 _atom_site_pbe_cm5_charge
 _atom_site_pbe_ddec_charge
 _atom_site_pbe_ddec_spin_density
 _atom_site_pbe_ddec_sum_bond_order
 _atom_site_pbe_magmom
La  La0  1  0.66138245  0.11557399  0.61681937  1  0  2.076577  0  1.793786  0  0  1.952894  0  2.317318  0  0  2.052887  0  2.21841  0  0  1.387964  1.87792  0  2.386451  0
La  La1  1  0.33862365  0.88442882  0.38317988  1  0  2.076576  0  1.793836  0  0  1.952921  0  2.317355  0  0  2.052899  0  2.218464  0  0  1.38795  1.877936  0  2.386512  0
H  H2  1  0.44463747  0.40623224  0.42340256  1  0  0.116008  0  0.967337  0  0  0.120421  0  1.041362  0  0  0.124475  0  1.037816  0  0  0.113804  0.117432  0  1.044076  0
H  H3  1  0.55536862  0.59377057  0.57659589  1  0  0.115949  0  0.967365  0  0  0.120414  0  1.041337  0  0  0.124473  0  1.037788  0  0  0.113829  0.117426  0  1.044052  0
H  H4  1  0.30797662  0.65016393  0.09924251  1  0  0.116503  0  0.969346  0  0  0.125762  0  1.033435  0  0  0.129381  0  1.03127  0  0  0.108219  0.123134  0  1.03511  0
H  H5  1  0.69201341  0.34983877  0.90075608  1  0  0.116572  0  0.969389  0  0  0.125816  0  1.033466  0  0  0.12944  0  1.031296  0  0  0.108254  0.123188  0  1.03514  0
H  H6  1  0.35461481  0.24229751  0.17018137  1  0  0.126943  0  0.95307  0  0  0.131501  0  1.024634  0  0  0.136044  0  1.02046  0  0  0.112169  0.128208  0  1.027692  0
H  H7  1  0.64538242  0.75770427  0.82982022  1  0  0.126983  0  0.95301  0  0  0.131543  0  1.024573  0  0  0.136085  0  1.020402  0  0  0.112215  0.128252  0  1.02763  0
H  H8  1  0.02426373  0.58143201  0.07962355  1  0  0.107825  0  0.953154  0  0  0.118193  0  1.014086  0  0  0.12128  0  1.013431  0  0  0.104423  0.115935  0  1.014746  0
H  H9  1  0.97572708  0.41856016  0.92037919  1  0  0.107847  0  0.953082  0  0  0.118205  0  1.014018  0  0  0.121297  0  1.01337  0  0  0.104422  0.115947  0  1.014678  0
H  H10  1  0.85367134  0.78027475  0.96219752  1  0  0.099898  0  0.948015  0  0  0.109881  0  1.008459  0  0  0.113841  0  1.004805  0  0  0.105143  0.106957  0  1.011227  0
H  H11  1  0.14632147  0.21971838  0.03780408  1  0  0.099829  0  0.947957  0  0  0.109795  0  1.008443  0  0  0.113759  0  1.004784  0  0  0.105092  0.10687  0  1.011211  0
H  H12  1  0.19485051  0.78085454  0.69892097  1  0  0.106719  0  0.965788  0  0  0.114359  0  1.030533  0  0  0.117712  0  1.028106  0  0  0.110423  0.111899  0  1.032371  0
H  H13  1  0.80514463  0.21913861  0.30108367  1  0  0.106771  0  0.965845  0  0  0.114431  0  1.030543  0  0  0.117785  0  1.028118  0  0  0.110456  0.111972  0  1.032382  0
H  H14  1  0.35997426  0.57783604  0.81321430  1  0  0.105447  0  1.001295  0  0  0.113083  0  1.068116  0  0  0.114475  0  1.070563  0  0  0.099287  0.112004  0  1.066615  0
H  H15  1  0.64002607  0.42215906  0.18679036  1  0  0.105395  0  1.001295  0  0  0.113046  0  1.068108  0  0  0.114464  0  1.070529  0  0  0.099287  0.111966  0  1.066607  0
H  H16  1  0.20123469  0.84927213  0.98093181  1  0  0.093061  0  0.964817  0  0  0.110427  0  1.035245  0  0  0.110004  0  1.037718  0  0  0.09838  0.11063  0  1.033589  0
H  H17  1  0.79876851  0.15072874  0.01906729  1  0  0.093037  0  0.964772  0  0  0.110403  0  1.035203  0  0  0.10998  0  1.037675  0  0  0.098386  0.110606  0  1.033547  0
H  H18  1  0.23980383  0.95173061  0.05777169  1  0  0.11999  0  0.958441  0  0  0.13585  0  1.025221  0  0  0.137583  0  1.02413  0  0  0.105725  0.134443  0  1.02622  0
H  H19  1  0.76019879  0.04827218  0.94222459  1  0  0.119997  0  0.958336  0  0  0.135802  0  1.025195  0  0  0.137537  0  1.024101  0  0  0.105705  0.134398  0  1.026191  0
H  H20  1  0.39924282  0.85335651  0.00413385  1  0  0.102697  0  0.926679  0  0  0.124535  0  0.986513  0  0  0.125211  0  0.985915  0  0  0.109897  0.123861  0  0.987118  0
H  H21  1  0.60075924  0.14664819  0.99586198  1  0  0.102675  0  0.926676  0  0  0.124526  0  0.986486  0  0  0.125192  0  0.985901  0  0  0.109897  0.123848  0  0.987094  0
H  H22  1  0.03219716  0.04200798  0.87106061  1  0  0.104527  0  0.94544  0  0  0.126629  0  1.00628  0  0  0.126675  0  1.007126  0  0  0.110309  0.126463  0  1.005832  0
H  H23  1  0.96779915  0.95799284  0.12893809  1  0  0.104537  0  0.94554  0  0  0.126648  0  1.00634  0  0  0.126694  0  1.007187  0  0  0.110311  0.126482  0  1.005892  0
H  H24  1  0.12830771  0.12384114  0.75268735  1  0  0.114632  0  0.931217  0  0  0.135137  0  0.989829  0  0  0.136867  0  0.988189  0  0  0.116773  0.133787  0  0.991127  0
H  H25  1  0.87168778  0.87616255  0.24731068  1  0  0.114658  0  0.931232  0  0  0.135138  0  0.989862  0  0  0.136865  0  0.988224  0  0  0.116774  0.133787  0  0.991159  0
H  H26  1  0.09795185  0.17991871  0.87347696  1  0  0.089406  0  0.945923  0  0  0.11179  0  1.009571  0  0  0.111445  0  1.010161  0  0  0.101308  0.111926  0  1.009234  0
H  H27  1  0.90204737  0.82008405  0.12652268  1  0  0.089421  0  0.945971  0  0  0.111796  0  1.009619  0  0  0.111449  0  1.010209  0  0  0.101314  0.111928  0  1.009292  0
H  H28  1  0.51757955  0.95854406  0.86784201  1  0  0.0464  0  0.940684  0  0  0.054547  0  1.012305  0  0  0.056781  0  1.006314  0  0  0.128017  0.052715  0  1.016746  0
H  H29  1  0.48241677  0.04146060  0.13215336  1  0  0.046477  0  0.940615  0  0  0.054576  0  1.012291  0  0  0.056804  0  1.00631  0  0  0.128025  0.05275  0  1.016725  0
H  H30  1  0.66426823  0.45186463  0.45412797  1  0  0.055327  0  0.96622  0  0  0.060458  0  1.042036  0  0  0.062471  0  1.03706  0  0  0.128273  0.058793  0  1.045755  0
H  H31  1  0.33573352  0.54813720  0.54586859  1  0  0.055363  0  0.966424  0  0  0.060544  0  1.042171  0  0  0.062515  0  1.037241  0  0  0.12832  0.058875  0  1.045897  0
H  H32  1  0.13239545  0.42735762  0.40256783  1  0  0.092985  0  0.958577  0  0  0.114038  0  1.022464  0  0  0.113374  0  1.024557  0  0  0.101643  0.114394  0  1.021069  0
H  H33  1  0.86761070  0.57264517  0.59743618  1  0  0.09291  0  0.958477  0  0  0.113971  0  1.022371  0  0  0.113306  0  1.024466  0  0  0.101621  0.114327  0  1.020976  0
H  H34  1  0.07007731  0.37973208  0.29249712  1  0  0.09131  0  0.953745  0  0  0.110511  0  1.021795  0  0  0.109094  0  1.0255  0  0  0.098751  0.111375  0  1.019346  0
H  H35  1  0.92992853  0.62026783  0.70750762  1  0  0.091302  0  0.953695  0  0  0.11047  0  1.021793  0  0  0.109053  0  1.025499  0  0  0.098733  0.111341  0  1.01934  0
H  H36  1  0.06475714  0.28187803  0.43086502  1  0  0.12252  0  0.930742  0  0  0.142279  0  0.988748  0  0  0.144839  0  0.986042  0  0  0.117424  0.140288  0  0.990879  0
H  H37  1  0.93524701  0.71812379  0.56914014  1  0  0.122502  0  0.930753  0  0  0.142259  0  0.988752  0  0  0.144819  0  0.986045  0  0  0.117424  0.140268  0  0.990886  0
H  H38  1  0.92826082  0.63414448  0.36739034  1  0  0.102921  0  0.924741  0  0  0.124932  0  0.983088  0  0  0.125855  0  0.982905  0  0  0.106713  0.124175  0  0.983303  0
H  H39  1  0.07174022  0.36586019  0.63261508  1  0  0.102981  0  0.924643  0  0  0.124981  0  0.983005  0  0  0.125902  0  0.982825  0  0  0.106746  0.124246  0  0.983192  0
H  H40  1  0.72630182  0.62742687  0.35754288  1  0  0.132723  0  0.96216  0  0  0.148786  0  1.027621  0  0  0.150904  0  1.026295  0  0  0.117588  0.147125  0  1.028698  0
H  H41  1  0.27370320  0.37257591  0.64246199  1  0  0.132709  0  0.962146  0  0  0.14877  0  1.02762  0  0  0.15089  0  1.026293  0  0  0.117574  0.14711  0  1.028697  0
H  H42  1  0.86303316  0.60262361  0.24934653  1  0  0.091648  0  0.932038  0  0  0.112393  0  0.995473  0  0  0.112925  0  0.995447  0  0  0.100087  0.111917  0  0.99556  0
H  H43  1  0.13696963  0.39738297  0.75065990  1  0  0.091678  0  0.931997  0  0  0.112428  0  0.995428  0  0  0.112965  0  0.995398  0  0  0.10007  0.111951  0  0.99552  0
H  H44  1  0.86812401  0.02136341  0.40841188  1  0  0.448283  0  0.841169  0  0  0.419151  0  0.900847  0  0  0.431592  0  0.882577  0  0  0.302748  0.41019  0  0.913986  0
H  H45  1  0.13187519  0.97863551  0.59159031  1  0  0.448251  0  0.841216  0  0  0.419109  0  0.900912  0  0  0.431553  0  0.882638  0  0  0.302719  0.410149  0  0.91405  0
H  H46  1  0.71140932  0.96485114  0.43520533  1  0  0.437765  0  0.831912  0  0  0.410601  0  0.898224  0  0  0.421083  0  0.882856  0  0  0.318582  0.403006  0  0.909351  0
H  H47  1  0.28858714  0.03515349  0.56480114  1  0  0.437744  0  0.83192  0  0  0.410569  0  0.89827  0  0  0.421049  0  0.882903  0  0  0.318551  0.402974  0  0.909397  0
C  C48  1  0.42308288  0.18353117  0.38716183  1  0  0.689026  0  3.890555  0  0  0.643289  0  4.180185  0  0  0.679344  0  4.172557  0  0  0.232301  0.618445  0  4.184628  0
C  C49  1  0.57692834  0.81646976  0.61283602  1  0  0.688992  0  3.890282  0  0  0.643247  0  4.179923  0  0  0.679303  0  4.172295  0  0  0.232237  0.618403  0  4.184368  0
C  C50  1  0.40556599  0.31180760  0.30392424  1  0  -0.050223  0  3.757774  0  0  -0.021977  0  3.985933  0  0  -0.02895  0  4.007107  0  0  -0.011261  -0.017549  0  3.971752  0
C  C51  1  0.59444352  0.68819523  0.69607323  1  0  -0.050194  0  3.75759  0  0  -0.021957  0  3.985794  0  0  -0.028931  0  4.006965  0  0  -0.011253  -0.017528  0  3.971616  0
C  C52  1  0.41628918  0.41832861  0.33780786  1  0  -0.110452  0  3.714241  0  0  -0.149496  0  3.967003  0  0  -0.14811  0  3.984396  0  0  -0.083363  -0.150136  0  3.955337  0
C  C53  1  0.58371035  0.58167702  0.66219106  1  0  -0.110444  0  3.71415  0  0  -0.149516  0  3.96691  0  0  -0.148129  0  3.984296  0  0  -0.08337  -0.150155  0  3.955247  0
C  C54  1  0.38027863  0.53992552  0.26357858  1  0  -0.034413  0  3.775201  0  0  -0.007645  0  4.006216  0  0  -0.012784  0  4.02502  0  0  -0.015913  -0.004615  0  3.993793  0
C  C55  1  0.61971628  0.46008009  0.73641742  1  0  -0.034219  0  3.775067  0  0  -0.007452  0  4.006086  0  0  -0.012592  0  4.024887  0  0  -0.015903  -0.004422  0  3.993662  0
C  C56  1  0.37776148  0.65668023  0.30023528  1  0  0.623923  0  3.951475  0  0  0.581432  0  4.239524  0  0  0.614901  0  4.235742  0  0  0.192667  0.558713  0  4.240969  0
C  C57  1  0.62223949  0.34332829  0.69976045  1  0  0.623979  0  3.951139  0  0  0.58144  0  4.239265  0  0  0.61491  0  4.235482  0  0  0.192742  0.55872  0  4.240713  0
C  C58  1  0.33739732  0.55465646  0.15527675  1  0  -0.181607  0  3.715716  0  0  -0.216369  0  3.964689  0  0  -0.216525  0  3.979129  0  0  -0.093154  -0.21596  0  3.955042  0
C  C59  1  0.66259838  0.44534245  0.84472087  1  0  -0.181775  0  3.715825  0  0  -0.216527  0  3.964755  0  0  -0.216686  0  3.979193  0  0  -0.093206  -0.21612  0  3.955118  0
C  C60  1  0.33218679  0.44740719  0.12109872  1  0  0.266531  0  3.795532  0  0  0.258953  0  4.06363  0  0  0.267835  0  4.077959  0  0  0.082904  0.252571  0  4.053879  0
C  C61  1  0.66780581  0.55259073  0.87890328  1  0  0.266483  0  3.795436  0  0  0.258949  0  4.063408  0  0  0.267813  0  4.077743  0  0  0.082918  0.25257  0  4.053655  0
C  C62  1  0.36532083  0.32570272  0.19492668  1  0  -0.163201  0  3.678181  0  0  -0.200238  0  3.933361  0  0  -0.20036  0  3.948509  0  0  -0.085401  -0.199824  0  3.923165  0
C  C63  1  0.63467781  0.67429811  0.80507426  1  0  -0.163274  0  3.677893  0  0  -0.200345  0  3.933079  0  0  -0.200466  0  3.948228  0  0  -0.085488  -0.199933  0  3.922886  0
C  C64  1  0.20297772  0.57033774  0.95288732  1  0  0.272483  0  3.791632  0  0  0.265643  0  4.048395  0  0  0.27667  0  4.063753  0  0  0.085741  0.258163  0  4.037888  0
C  C65  1  0.79701883  0.42965446  0.04711668  1  0  0.272486  0  3.791719  0  0  0.265605  0  4.048501  0  0  0.276623  0  4.063856  0  0  0.085695  0.258113  0  4.03801  0
C  C66  1  0.06052808  0.62598570  0.99631679  1  0  -0.195848  0  3.789363  0  0  -0.216818  0  4.047665  0  0  -0.223138  0  4.067563  0  0  -0.104163  -0.212619  0  4.034263  0
C  C67  1  0.93946388  0.37400647  0.00368668  1  0  -0.195963  0  3.789601  0  0  -0.216925  0  4.047904  0  0  -0.223262  0  4.067813  0  0  -0.104206  -0.212724  0  4.034506  0
C  C68  1  0.96685966  0.73696419  0.93137278  1  0  -0.055141  0  3.760694  0  0  -0.082057  0  4.018783  0  0  -0.079034  0  4.036079  0  0  -0.085646  -0.083812  0  4.007062  0
C  C69  1  0.03313193  0.26302896  0.06862333  1  0  -0.054936  0  3.760586  0  0  -0.081811  0  4.01862  0  0  -0.07879  0  4.035921  0  0  -0.085534  -0.083567  0  4.006896  0
C  C70  1  0.01462538  0.79512332  0.82437871  1  0  -0.091176  0  3.772622  0  0  -0.069958  0  4.009947  0  0  -0.078787  0  4.031923  0  0  -0.027527  -0.064429  0  3.995342  0
C  C71  1  0.98537065  0.20487462  0.17562310  1  0  -0.091257  0  3.772613  0  0  -0.070062  0  4.009968  0  0  -0.078895  0  4.031943  0  0  -0.027505  -0.064531  0  3.995359  0
C  C72  1  0.91004212  0.91537825  0.75869032  1  0  0.627601  0  3.942526  0  0  0.579743  0  4.241311  0  0  0.613896  0  4.237588  0  0  0.196767  0.556551  0  4.242773  0
C  C73  1  0.08995352  0.08461300  0.24131080  1  0  0.627748  0  3.942508  0  0  0.579915  0  4.241251  0  0  0.614075  0  4.237517  0  0  0.196861  0.556721  0  4.242714  0
C  C74  1  0.15695771  0.73736067  0.78205554  1  0  -0.037052  0  3.711662  0  0  -0.059661  0  3.957378  0  0  -0.056756  0  3.975361  0  0  -0.07743  -0.06131  0  3.945207  0
C  C75  1  0.84303716  0.26263343  0.21794967  1  0  -0.037185  0  3.711733  0  0  -0.059805  0  3.957475  0  0  -0.056898  0  3.975456  0  0  -0.077529  -0.061456  0  3.945302  0
C  C76  1  0.25011116  0.62423563  0.84556369  1  0  -0.179555  0  3.734986  0  0  -0.200714  0  3.985748  0  0  -0.206926  0  4.007118  0  0  -0.102159  -0.196625  0  3.971427  0
C  C77  1  0.74988250  0.37575464  0.15444016  1  0  -0.179329  0  3.734787  0  0  -0.200508  0  3.985571  0  0  -0.206749  0  4.006928  0  0  -0.102098  -0.196417  0  3.971254  0
C  C78  1  0.27861253  0.91116193  0.98784129  1  0  -0.181109  0  3.6524  0  0  -0.28447  0  3.905517  0  0  -0.28106  0  3.91625  0  0  -0.133852  -0.286434  0  3.898287  0
C  C79  1  0.72139010  0.08884086  0.01215578  1  0  -0.181091  0  3.652225  0  0  -0.28442  0  3.905348  0  0  -0.281003  0  3.916086  0  0  -0.133861  -0.286384  0  3.898117  0
C  C80  1  0.12551250  0.09421058  0.84307964  1  0  -0.15432  0  3.628428  0  0  -0.255692  0  3.871642  0  0  -0.250848  0  3.880887  0  0  -0.127503  -0.258752  0  3.865481  0
C  C81  1  0.87448554  0.90579217  0.15691690  1  0  -0.154334  0  3.628555  0  0  -0.255674  0  3.871712  0  0  -0.250826  0  3.880953  0  0  -0.12748  -0.258734  0  3.865548  0
C  C82  1  0.41047459  0.02847338  0.83053004  1  0  0.396629  0  3.814594  0  0  0.32328  0  4.100958  0  0  0.352364  0  4.102192  0  0  0.182212  0.30371  0  4.099495  0
C  C83  1  0.58952073  0.97152652  0.16945864  1  0  0.396602  0  3.814273  0  0  0.32323  0  4.100714  0  0  0.352317  0  4.101944  0  0  0.182244  0.303654  0  4.099255  0
C  C84  1  0.78091482  0.38911112  0.44872337  1  0  0.396183  0  3.792245  0  0  0.323221  0  4.080391  0  0  0.351653  0  4.082218  0  0  0.182126  0.304012  0  4.078604  0
C  C85  1  0.21909211  0.61088882  0.55127734  1  0  0.396173  0  3.792381  0  0  0.323182  0  4.080485  0  0  0.351642  0  4.082326  0  0  0.182215  0.303975  0  4.078697  0
C  C86  1  0.04834488  0.38045097  0.37923751  1  0  -0.172364  0  3.658782  0  0  -0.274806  0  3.906585  0  0  -0.271233  0  3.917759  0  0  -0.13763  -0.27696  0  3.899062  0
C  C87  1  0.95166410  0.61954993  0.62076523  1  0  -0.172295  0  3.658748  0  0  -0.274707  0  3.906512  0  0  -0.271137  0  3.91769  0  0  -0.137625  -0.276865  0  3.898988  0
C  C88  1  0.84891583  0.58630258  0.33937692  1  0  -0.179669  0  3.64879  0  0  -0.281781  0  3.900227  0  0  -0.278641  0  3.909826  0  0  -0.130456  -0.283554  0  3.893679  0
C  C89  1  0.15108805  0.41370019  0.66062881  1  0  -0.179864  0  3.648689  0  0  -0.281971  0  3.90015  0  0  -0.278838  0  3.909744  0  0  -0.130535  -0.283762  0  3.893597  0
N  N90  1  0.27670158  0.01116385  0.88468211  1  0  -0.091828  0  3.497437  0  0  0.013883  0  3.730471  0  0  -0.006947  0  3.755495  0  0  -0.280328  0.027831  0  3.713089  0
N  N91  1  0.72329216  0.98883792  0.11531571  1  0  -0.091746  0  3.497498  0  0  0.013981  0  3.730502  0  0  -0.006845  0  3.755517  0  0  -0.280276  0.027925  0  3.713127  0
N  N92  1  0.88887999  0.44982812  0.39329305  1  0  -0.086566  0  3.519548  0  0  0.018295  0  3.75292  0  0  -0.001623  0  3.777794  0  0  -0.281838  0.031617  0  3.73572  0
N  N93  1  0.11112697  0.55017565  0.60670591  1  0  -0.086457  0  3.519866  0  0  0.018389  0  3.753232  0  0  -0.001524  0  3.778097  0  0  -0.281801  0.031707  0  3.736045  0
O  O94  1  0.41755780  0.08965577  0.35176430  1  0  -0.690034  0  2.068337  0  0  -0.64306  0  2.326951  0  0  -0.676115  0  2.319037  0  0  -0.379209  -0.619248  0  2.331552  0
O  O95  1  0.58246279  0.91033661  0.64823515  1  0  -0.689937  0  2.068252  0  0  -0.642939  0  2.326859  0  0  -0.675993  0  2.318946  0  0  -0.379126  -0.619129  0  2.33146  0
O  O96  1  0.43708822  0.17806545  0.48868000  1  0  -0.705094  0  1.998601  0  0  -0.655499  0  2.25199  0  0  -0.68746  0  2.240808  0  0  -0.388052  -0.632228  0  2.258774  0
O  O97  1  0.56291518  0.82193448  0.51131298  1  0  -0.705065  0  1.998297  0  0  -0.655557  0  2.251823  0  0  -0.68752  0  2.240646  0  0  -0.388074  -0.632283  0  2.258608  0
O  O98  1  0.46533176  0.64732780  0.38039712  1  0  -0.670954  0  1.993206  0  0  -0.624383  0  2.237293  0  0  -0.654794  0  2.230087  0  0  -0.355846  -0.602577  0  2.24128  0
O  O99  1  0.53466772  0.35267401  0.61960116  1  0  -0.670969  0  1.99323  0  0  -0.624375  0  2.237348  0  0  -0.654787  0  2.230143  0  0  -0.355862  -0.60257  0  2.241333  0
O  O100  1  0.28420077  0.76103742  0.25133691  1  0  -0.658912  0  1.927699  0  0  -0.617081  0  2.159895  0  0  -0.64715  0  2.154176  0  0  -0.370895  -0.595419  0  2.16276  0
O  O101  1  0.71579786  0.23896725  0.74865912  1  0  -0.659012  0  1.9273  0  0  -0.617176  0  2.159527  0  0  -0.647249  0  2.153807  0  0  -0.370969  -0.595513  0  2.162393  0
O  O102  1  0.29823567  0.45703731  0.01290395  1  0  -0.294795  0  2.3163  0  0  -0.227605  0  2.536075  0  0  -0.245002  0  2.537798  0  0  -0.158165  -0.215193  0  2.534487  0
O  O103  1  0.70176148  0.54295681  0.98709954  1  0  -0.294835  0  2.316328  0  0  -0.227576  0  2.536013  0  0  -0.244937  0  2.537711  0  0  -0.15814  -0.215161  0  2.534431  0
O  O104  1  0.77614160  0.95504546  0.79981903  1  0  -0.669404  0  2.005662  0  0  -0.625324  0  2.256964  0  0  -0.655717  0  2.249634  0  0  -0.362208  -0.603621  0  2.26109  0
O  O105  1  0.22385490  0.04495059  0.20017609  1  0  -0.669476  0  2.005578  0  0  -0.625432  0  2.256925  0  0  -0.655814  0  2.249567  0  0  -0.362265  -0.603727  0  2.261051  0
O  O106  1  0.95303865  0.97574767  0.66303307  1  0  -0.675796  0  1.954088  0  0  -0.621953  0  2.183795  0  0  -0.652366  0  2.174477  0  0  -0.345929  -0.600228  0  2.189374  0
O  O107  1  0.04696066  0.02424265  0.33696410  1  0  -0.675813  0  1.95419  0  0  -0.622013  0  2.183952  0  0  -0.652425  0  2.17463  0  0  -0.345956  -0.600288  0  2.189533  0
O  O108  1  0.41757273  0.11596593  0.74399690  1  0  -0.56633  0  2.047394  0  0  -0.517538  0  2.299938  0  0  -0.546406  0  2.294263  0  0  -0.344471  -0.496996  0  2.303003  0
O  O109  1  0.58242429  0.88402438  0.25600041  1  0  -0.566495  0  2.047049  0  0  -0.517628  0  2.299544  0  0  -0.546499  0  2.293866  0  0  -0.344562  -0.497081  0  2.302612  0
O  O110  1  0.80865586  0.27032156  0.49192436  1  0  -0.593436  0  2.060599  0  0  -0.545637  0  2.320632  0  0  -0.57618  0  2.31468  0  0  -0.361628  -0.523713  0  2.32385  0
O  O111  1  0.19134127  0.72968408  0.50806597  1  0  -0.593426  0  2.060328  0  0  -0.545646  0  2.320395  0  0  -0.576187  0  2.31443  0  0  -0.361684  -0.523715  0  2.323608  0
O  O112  1  0.76558111  0.02608569  0.44903887  1  0  -0.885249  0  1.824163  0  0  -0.836137  0  2.01099  0  0  -0.860546  0  1.976132  0  0  -0.614341  -0.818388  0  2.035545  0
O  O113  1  0.23442191  0.97391612  0.55096714  1  0  -0.885201  0  1.824128  0  0  -0.836071  0  2.01096  0  0  -0.86048  0  1.976103  0  0  -0.614274  -0.818322  0  2.035512  0
