# generated using pymatgen
data_MnH4C9(NO2)2
_symmetry_space_group_name_H-M   'P 1'
_cell_length_a   5.84054357
_cell_length_b   10.35310823
_cell_length_c   13.50860901
_cell_angle_alpha   96.18807195
_cell_angle_beta   89.99938190
_cell_angle_gamma   90.00047203
_symmetry_Int_Tables_number   1
_chemical_formula_structural   MnH4C9(NO2)2
_chemical_formula_sum   'Mn4 H16 C36 N8 O16'
_cell_volume   812.07623994
_cell_formula_units_Z   4
loop_
 _symmetry_equiv_pos_site_id
 _symmetry_equiv_pos_as_xyz
  1  'x, y, z'
loop_
 _atom_site_type_symbol
 _atom_site_label
 _atom_site_symmetry_multiplicity
 _atom_site_fract_x
 _atom_site_fract_y
 _atom_site_fract_z
 _atom_site_occupancy
 _atom_site_hle17_ddec_charge
 _atom_site_hle17_ddec_spin_density
 _atom_site_hle17_ddec_sum_bond_order
 _atom_site_hle17_magmom
 _atom_site_hse06_10hf_ddec_charge
 _atom_site_hse06_10hf_ddec_spin_density
 _atom_site_hse06_10hf_ddec_sum_bond_order
 _atom_site_hse06_10hf_magmom
 _atom_site_hse06_ddec_charge
 _atom_site_hse06_ddec_spin_density
 _atom_site_hse06_ddec_sum_bond_order
 _atom_site_hse06_magmom
 _atom_site_pbe_cm5_charge
 _atom_site_pbe_ddec_charge
 _atom_site_pbe_ddec_spin_density
 _atom_site_pbe_ddec_sum_bond_order
 _atom_site_pbe_magmom
Mn  Mn0  1  0.71819097  0.25519687  0.33507847  1  1.207994  -4.786041  1.707563  -4.65  1.045669  -4.712592  2.212319  -4.502  1.107456  -4.762195  2.138565  -4.573  0.640323  0.996217  -4.660252  2.268127  -4.43
Mn  Mn1  1  0.21820010  0.24481131  0.16493173  1  1.208091  -4.786062  1.707442  -4.65  1.045614  -4.712638  2.212196  -4.502  1.10742  -4.762213  2.138418  -4.573  0.640295  0.996159  -4.660427  2.267959  -4.43
Mn  Mn2  1  0.28252849  0.74458353  0.66536864  1  1.206421  4.78389  1.71392  4.646  1.043967  4.700442  2.219641  4.493  1.105951  4.76115  2.145384  4.569  0.639121  0.993575  4.632623  2.276901  4.413
Mn  Mn3  1  0.78253821  0.75541433  0.83462702  1  1.20636  -4.784154  1.713906  -4.647  1.043866  -4.705378  2.219583  -4.493  1.105848  -4.759682  2.145439  -4.569  0.639051  0.993468  -4.643864  2.276749  -4.413
H  H4  1  0.33040162  0.17292155  0.72940091  1  0.119836  -7.3e-05  0.951538  0.0  0.127472  -0.000107  1.015985  0.0  0.129889  -8.2e-05  1.016543  0.0  0.107886  0.125622  -0.000117  1.015944  0.0
H  H5  1  0.83041546  0.32708084  0.77059701  1  0.11981  -4e-05  0.951598  0.0  0.127402  -6e-05  1.016104  0.0  0.129824  -3.8e-05  1.016643  0.0  0.107855  0.125541  -0.000102  1.016084  0.0
H  H6  1  0.66977851  0.82624231  0.27088082  1  0.118808  0.000199  0.952838  0.0  0.126583  0.000261  1.017301  0.0  0.128972  0.000242  1.017854  0.0  0.107456  0.124778  0.000254  1.017258  0.0
H  H7  1  0.16979721  0.67376720  0.22913499  1  0.118819  -3.4e-05  0.952789  0.0  0.126627  -4.4e-05  1.017194  0.0  0.129014  -2e-06  1.017749  0.0  0.107477  0.124818  -0.000112  1.017172  0.0
H  H8  1  0.61206386  0.07477691  0.52836811  1  0.127232  0.000253  0.973055  0.0  0.133618  0.000221  1.038532  0.0  0.13802  0.000255  1.034698  0.0  0.111448  0.130416  0.000174  1.041495  0.0
H  H9  1  0.11207126  0.42522055  0.97162899  1  0.127306  0.000347  0.973051  0.0  0.133692  0.000369  1.038502  0.0  0.138093  0.000437  1.034671  0.0  0.111478  0.130491  0.000291  1.041452  0.0
H  H10  1  0.38762831  0.92571949  0.47193399  1  0.127867  -0.000128  0.972052  0.0  0.133823  -0.000229  1.037887  0.0  0.138209  -0.000237  1.034073  0.0  0.111708  0.130662  -0.000222  1.040743  0.0
H  H11  1  0.88763118  0.57428517  0.02806779  1  0.1278  0.000508  0.972126  0.0  0.133752  0.000465  1.037973  0.0  0.138133  0.000525  1.034167  0.0  0.111707  0.130591  0.000399  1.040832  0.0
H  H12  1  0.16071183  0.41491733  0.43377269  1  0.101782  0.000794  0.983249  0.0  0.107002  0.000444  1.049155  0.0  0.11034  0.000544  1.045063  0.0  0.139366  0.10405  0.000349  1.053252  0.0
H  H13  1  0.66073104  0.08509442  0.06622845  1  0.101752  0.000764  0.983337  0.0  0.107022  0.000466  1.049182  0.0  0.110337  0.00056  1.04512  0.0  0.139378  0.104068  0.000385  1.053273  0.0
H  H14  1  0.84093906  0.58486402  0.56667005  1  0.100089  -0.000297  0.984271  0.0  0.105391  -3.6e-05  1.050591  0.0  0.108643  -7.6e-05  1.046532  0.0  0.138339  0.102568  0.0  1.054505  0.0
H  H15  1  0.34089247  0.91510396  0.93331554  1  0.100163  0.00036  0.984386  0.0  0.105434  -1e-05  1.050713  0.0  0.108729  6.2e-05  1.04659  0.0  0.138333  0.102608  -7.1e-05  1.05461  0.0
H  H16  1  0.38601408  0.35996537  0.58260682  1  0.319756  -0.000206  0.924962  0.0  0.298367  -0.000435  0.987378  0.0  0.307126  -0.000352  0.980753  0.0  0.314597  0.292356  -0.000496  0.991736  0.0
H  H17  1  0.88602896  0.14004117  0.91739042  1  0.319922  -0.000268  0.924806  0.0  0.298564  -0.000549  0.987247  0.0  0.307336  -0.00042  0.980605  0.0  0.314606  0.292545  -0.000681  0.991608  0.0
H  H18  1  0.61466429  0.63961908  0.41788463  1  0.320572  0.00023  0.925773  0.0  0.298873  0.000372  0.98841  0.0  0.307715  0.000329  0.98168  0.0  0.314626  0.292821  0.000407  0.992851  0.0
H  H19  1  0.11465970  0.86037168  0.08212329  1  0.320693  -0.000259  0.92583  0.0  0.299021  -0.000622  0.988425  0.0  0.30786  -0.000456  0.981692  0.0  0.3147  0.292963  -0.000771  0.992872  0.0
C  C20  1  0.81828433  0.02951031  0.65353139  1  -0.098638  0.000338  3.765747  0.001  -0.087383  -0.000226  4.012039  0.0  -0.096463  -0.000184  4.035737  0.0  -0.021652  -0.081394  -0.000156  3.997039  0.0
C  C21  1  0.31829529  0.47048327  0.84646440  1  -0.098689  -0.001195  3.765724  -0.001  -0.087545  -0.000966  4.012044  -0.001  -0.096633  -0.000825  4.035744  -0.001  -0.021717  -0.081558  -0.001245  3.997047  -0.001
C  C22  1  0.18139243  0.97036565  0.34660206  1  -0.100437  0.001291  3.767545  0.001  -0.089755  0.001023  4.013543  0.001  -0.098761  0.001594  4.037324  0.001  -0.02238  -0.083915  0.000603  3.998447  0.001
C  C23  1  0.68140202  0.52964678  0.15340208  1  -0.100266  0.000472  3.767431  0.0  -0.089696  -0.000184  4.013578  0.0  -0.098694  0.000485  4.037357  0.0  -0.022406  -0.083859  -0.000806  3.998489  0.0
C  C24  1  0.02223291  0.05671455  0.70948173  1  -0.076321  -0.000845  3.760124  -0.001  -0.068171  -0.00047  4.007395  -0.001  -0.072529  -0.000224  4.028399  -0.001  -0.015269  -0.064812  -0.000554  3.993164  -0.001
C  C25  1  0.52225112  0.44328050  0.79051043  1  -0.07669  0.000586  3.760305  0.001  -0.068344  -0.00053  4.00739  0.0  -0.072678  -0.000307  4.028403  0.0  -0.015355  -0.065001  -0.001015  3.993174  0.0
C  C26  1  0.97762191  0.94270458  0.29057533  1  -0.074544  -0.002422  3.759411  -0.002  -0.065491  -0.002729  4.005282  -0.002  -0.069885  -0.002262  4.026295  -0.002  -0.014415  -0.061989  -0.003207  3.990972  -0.002
C  C27  1  0.47764480  0.55729959  0.20943561  1  -0.074599  -0.002733  3.758842  -0.003  -0.065493  -0.003638  4.004821  -0.003  -0.069901  -0.002754  4.025837  -0.003  -0.014428  -0.061986  -0.004594  3.990512  -0.004
C  C28  1  0.17571779  0.15171955  0.68554336  1  -0.153087  0.000841  3.708852  0.001  -0.18012  0.000379  3.964264  0.001  -0.182536  0.000514  3.983057  0.001  -0.085724  -0.178864  0.000248  3.951876  0.001
C  C29  1  0.67573768  0.34828209  0.81445228  1  -0.153  -0.001148  3.708983  -0.001  -0.180016  -0.000635  3.964317  -0.001  -0.182422  -0.000685  3.983111  -0.001  -0.085757  -0.178751  -0.00062  3.951933  -0.001
C  C30  1  0.82445892  0.84765768  0.31467913  1  -0.153894  0.001018  3.708224  0.001  -0.180978  -0.000311  3.964091  0.0  -0.183332  0.000383  3.982856  0.0  -0.08625  -0.179827  -0.001176  3.951654  -0.001
C  C31  1  0.32447499  0.65235157  0.18532999  1  -0.15406  0.000847  3.708296  0.001  -0.181169  -0.000683  3.964163  -0.001  -0.183514  0.000156  3.982936  0.0  -0.086269  -0.180022  -0.001598  3.951714  -0.001
C  C32  1  0.12372401  0.21611105  0.60271732  1  0.168391  -0.002059  3.774446  -0.002  0.157378  -0.002715  4.020666  -0.002  0.162952  -0.001939  4.041123  -0.002  0.104493  0.153982  -0.003582  4.006762  -0.003
C  C33  1  0.62373428  0.28389521  0.89728043  1  0.16849  0.000289  3.774206  0.0  0.157496  -0.000201  4.020492  0.0  0.163062  -3.6e-05  4.040976  0.0  0.104564  0.154103  -0.00039  4.006566  0.0
C  C34  1  0.87674719  0.78348321  0.39759799  1  0.168767  -0.001214  3.771573  -0.001  0.156484  -0.001201  4.019546  -0.001  0.162038  -0.001087  4.040091  -0.001  0.104509  0.153185  -0.001522  4.005543  -0.001
C  C35  1  0.37675234  0.71651462  0.10240775  1  0.168707  -0.002903  3.771617  -0.003  0.156492  -0.003799  4.019528  -0.003  0.162021  -0.002855  4.04009  -0.003  0.104448  0.15322  -0.004953  4.005497  -0.004
C  C36  1  0.92388978  0.18737630  0.54462178  1  0.152818  -0.002763  3.799249  -0.004  0.151842  -0.004585  4.04653  -0.005  0.154886  -0.003659  4.069831  -0.004  0.093821  0.149657  -0.005449  4.030766  -0.006
C  C37  1  0.42390476  0.31262459  0.95537483  1  0.152776  -0.002384  3.799181  -0.003  0.151767  -0.003564  4.046488  -0.004  0.154819  -0.003028  4.06979  -0.004  0.093742  0.1496  -0.004169  4.030693  -0.005
C  C38  1  0.07660539  0.81247597  0.45562971  1  0.15501  0.002697  3.796114  0.004  0.153792  0.003315  4.043524  0.004  0.156929  0.003101  4.066817  0.004  0.094474  0.151521  0.003669  4.027648  0.005
C  C39  1  0.57661097  0.68752039  0.04436922  1  0.155165  -0.002333  3.79582  -0.003  0.153945  -0.004656  4.043251  -0.005  0.157077  -0.003481  4.066545  -0.004  0.094531  0.151666  -0.005667  4.02739  -0.006
C  C40  1  0.76901804  0.09430306  0.57054042  1  -0.118729  0.000219  3.680814  0.0  -0.152333  -0.000304  3.936031  0.0  -0.151166  0.000269  3.952745  0.0  -0.077378  -0.153666  -0.001835  3.925695  -0.001
C  C41  1  0.26902622  0.40569514  0.92945524  1  -0.118798  0.001713  3.680698  0.001  -0.152339  0.001554  3.935881  0.001  -0.151169  0.001367  3.952597  0.001  -0.077379  -0.153664  0.002547  3.925525  0.002
C  C42  1  0.23094293  0.90577817  0.42966492  1  -0.119779  -0.003238  3.681  -0.003  -0.152465  -0.004005  3.935947  -0.003  -0.151403  -0.003354  3.9527  -0.003  -0.077395  -0.153572  -0.005619  3.925501  -0.004
C  C43  1  0.73095188  0.59422767  0.07033476  1  -0.119719  -0.001362  3.680887  -0.001  -0.152401  -0.002648  3.935926  -0.002  -0.151328  -0.001561  3.952666  -0.002  -0.077384  -0.153519  -0.004624  3.925497  -0.004
C  C44  1  0.64570451  0.93768973  0.68733698  1  0.670356  -0.005257  3.859409  -0.005  0.615249  -0.006537  4.150762  -0.005  0.653003  -0.004449  4.143399  -0.004  0.222877  0.588008  -0.00971  4.155206  -0.008
C  C45  1  0.14571300  0.56230162  0.81265512  1  0.670368  0.005349  3.85938  0.005  0.615269  0.006464  4.150728  0.006  0.653025  0.004452  4.143361  0.004  0.222853  0.588036  0.009541  4.155173  0.008
C  C46  1  0.35314869  0.06292542  0.31321592  1  0.670709  -0.0152  3.86119  -0.014  0.616299  -0.023846  4.152097  -0.021  0.653622  -0.018474  4.145053  -0.017  0.223285  0.589686  -0.029756  4.156172  -0.026
C  C47  1  0.85316246  0.43708439  0.18679449  1  0.670619  -0.015152  3.861249  -0.014  0.616294  -0.023872  4.152135  -0.021  0.65361  -0.018481  4.145088  -0.017  0.223362  0.58968  -0.029826  4.156219  -0.026
C  C48  1  0.07771355  0.98207803  0.79547295  1  0.681441  -0.000429  3.852233  0.0  0.623824  -0.000864  4.154789  0.0  0.660383  -0.000493  4.143691  0.001  0.22927  0.597902  -0.001341  4.161603  0.0
C  C49  1  0.57773204  0.51790908  0.70451247  1  0.681577  0.000363  3.85256  0.0  0.623839  0.000656  4.155212  0.0  0.660333  0.000367  4.144194  -0.001  0.229219  0.597934  0.000999  4.162022  0.0
C  C50  1  0.92161392  0.01714366  0.20452468  1  0.681375  -0.009025  3.854082  -0.008  0.623601  -0.015625  4.156218  -0.013  0.660297  -0.011055  4.14503  -0.009  0.228493  0.597436  -0.02061  4.163298  -0.017
C  C51  1  0.42161941  0.48287136  0.29549248  1  0.681578  -0.00892  3.85383  -0.008  0.623654  -0.01556  4.156105  -0.013  0.660349  -0.010986  4.14492  -0.009  0.228591  0.597487  -0.020542  4.163207  -0.017
C  C52  1  0.10773458  0.34093488  0.48031300  1  0.292984  -0.00893  3.611766  -0.009  0.226002  -0.012285  3.892807  -0.011  0.245168  -0.010435  3.900526  -0.01  0.177406  0.212811  -0.014522  3.888494  -0.013
C  C53  1  0.60775068  0.15906981  0.01968783  1  0.293152  -0.006864  3.611694  -0.007  0.2262  -0.009856  3.892754  -0.009  0.245395  -0.008616  3.900476  -0.008  0.177422  0.212992  -0.010645  3.888432  -0.01
C  C54  1  0.89341121  0.65885892  0.52009521  1  0.295336  0.007158  3.611532  0.007  0.227906  0.009786  3.892198  0.009  0.247165  0.008863  3.900054  0.008  0.179095  0.214671  0.010315  3.887627  0.009
C  C55  1  0.39338143  0.84112002  0.97989619  1  0.295279  -0.009065  3.611577  -0.009  0.227917  -0.012674  3.89223  -0.011  0.247143  -0.010714  3.900062  -0.009  0.179109  0.214714  -0.015032  3.887621  -0.013
N  N56  1  0.23413095  0.31323830  0.55929029  1  -0.324122  -0.002138  3.358867  -0.002  -0.259554  -0.004389  3.593012  -0.004  -0.277954  -0.003407  3.604086  -0.003  -0.363539  -0.247051  -0.005262  3.58516  -0.004
N  N57  1  0.73415782  0.18676753  0.94070985  1  -0.324351  -0.002726  3.358516  -0.003  -0.260019  -0.004891  3.592919  -0.005  -0.278451  -0.00381  3.604005  -0.004  -0.36361  -0.24752  -0.005928  3.585061  -0.006
N  N58  1  0.76667926  0.68634683  0.44114273  1  -0.325198  0.002684  3.358609  0.003  -0.259646  0.00442  3.592677  0.004  -0.278252  0.003669  3.603907  0.003  -0.36361  -0.247066  0.005063  3.584775  0.004
N  N59  1  0.26665582  0.81364463  0.05885933  1  -0.325437  -0.002072  3.358683  -0.002  -0.259925  -0.004558  3.592772  -0.004  -0.278511  -0.003383  3.603998  -0.003  -0.363717  -0.247365  -0.00566  3.584854  -0.005
N  N60  1  0.92010730  0.26724442  0.46767701  1  -0.463942  -0.029682  3.13613  -0.01  -0.402099  -0.033715  3.445581  -0.007  -0.426999  -0.029128  3.454059  -0.004  -0.348903  -0.383414  -0.03802  3.439692  -0.011
N  N61  1  0.42012289  0.23275399  0.03232181  1  -0.463981  -0.030245  3.135965  -0.011  -0.402041  -0.033977  3.445313  -0.008  -0.426943  -0.029471  3.453785  -0.004  -0.348836  -0.383356  -0.038521  3.439381  -0.012
N  N62  1  0.08081934  0.73269848  0.53263871  1  -0.465422  0.029927  3.134745  0.011  -0.402894  0.033308  3.443926  0.007  -0.427914  0.029131  3.452321  0.004  -0.349224  -0.383848  0.037353  3.437928  0.011
N  N63  1  0.58079348  0.76728481  0.96735751  1  -0.465394  -0.029786  3.134709  -0.011  -0.402893  -0.033745  3.443904  -0.007  -0.427904  -0.029242  3.452324  -0.004  -0.349216  -0.383862  -0.03793  3.437875  -0.011
O  O64  1  0.50662715  0.88313352  0.62281069  1  -0.638039  0.03026  2.060252  0.016  -0.566257  0.030349  2.331851  0.011  -0.599648  0.028244  2.319413  0.009  -0.303515  -0.540679  0.032253  2.339517  0.013
O  O65  1  0.00662277  0.61685231  0.87718164  1  -0.637981  -0.030451  2.060172  -0.016  -0.566181  -0.0307  2.331728  -0.011  -0.599576  -0.028495  2.319321  -0.009  -0.30344  -0.540598  -0.032694  2.339354  -0.013
O  O66  1  0.49091967  0.11790199  0.37810367  1  -0.638497  -0.040834  2.06077  -0.028  -0.566203  -0.047283  2.330682  -0.03  -0.599449  -0.041056  2.318738  -0.024  -0.302989  -0.541035  -0.053814  2.337965  -0.037
O  O67  1  0.99094118  0.38211332  0.12190429  1  -0.638575  -0.041005  2.06067  -0.028  -0.566149  -0.047586  2.330426  -0.031  -0.599396  -0.041313  2.31848  -0.025  -0.302999  -0.540971  -0.054156  2.337691  -0.037
O  O68  1  0.63883749  0.91908983  0.77964082  1  -0.665574  -0.02442  2.042977  -0.012  -0.59485  -0.026091  2.311798  -0.01  -0.627212  -0.023873  2.297984  -0.008  -0.316135  -0.569947  -0.028354  2.320713  -0.012
O  O69  1  0.13886041  0.58090053  0.72035271  1  -0.665628  0.024495  2.043104  0.012  -0.594907  0.026189  2.311959  0.01  -0.62727  0.024007  2.298117  0.008  -0.316195  -0.570008  0.028356  2.320906  0.012
O  O70  1  0.36062867  0.08183834  0.22097331  1  -0.665593  -0.031183  2.042753  -0.017  -0.594952  -0.040242  2.311417  -0.022  -0.627563  -0.035154  2.298013  -0.018  -0.315668  -0.569909  -0.04556  2.319859  -0.027
O  O71  1  0.86062630  0.41817245  0.27903344  1  -0.665395  -0.031192  2.042909  -0.017  -0.594959  -0.040337  2.31171  -0.022  -0.627569  -0.035224  2.298303  -0.018  -0.315706  -0.569911  -0.045664  2.320164  -0.027
O  O72  1  0.09186578  0.85514730  0.77771387  1  -0.735668  0.012957  2.134211  0.012  -0.656873  0.01344  2.445866  0.012  -0.693234  0.011327  2.424084  0.01  -0.322025  -0.628104  0.01552  2.460271  0.015
O  O73  1  0.59188368  0.64484671  0.72227722  1  -0.735822  -0.012983  2.13409  -0.012  -0.65702  -0.013571  2.445793  -0.012  -0.69336  -0.011341  2.424043  -0.01  -0.322037  -0.628244  -0.01579  2.460186  -0.015
O  O74  1  0.90648576  0.14386544  0.22225379  1  -0.734831  -0.061245  2.134203  -0.035  -0.65705  -0.076797  2.445765  -0.043  -0.693089  -0.06908  2.424098  -0.037  -0.322161  -0.628891  -0.084036  2.460025  -0.05
O  O75  1  0.40650382  0.35614364  0.27775631  1  -0.735116  -0.061232  2.134036  -0.035  -0.657182  -0.0768  2.445563  -0.043  -0.693233  -0.06907  2.423906  -0.037  -0.322188  -0.629007  -0.084089  2.459817  -0.05
O  O76  1  0.10998288  0.04133640  0.87987979  1  -0.566137  0.001092  1.964101  0.002  -0.516636  -0.000208  2.184518  0.001  -0.539361  -0.000327  2.175171  0.0  -0.286122  -0.500461  0.000111  2.190705  0.001
O  O77  1  0.60999681  0.45865913  0.62012308  1  -0.565899  -0.001016  1.964739  -0.002  -0.516363  -0.00025  2.185166  -0.001  -0.539046  0.00013  2.175848  -0.001  -0.285936  -0.500185  -0.000866  2.191358  -0.002
O  O78  1  0.88988050  0.95775296  0.12006510  1  -0.569049  -0.008291  1.963401  -0.01  -0.519377  -0.013594  2.183528  -0.015  -0.541972  -0.010595  2.174072  -0.012  -0.288184  -0.503434  -0.01682  2.189946  -0.018
O  O79  1  0.38985973  0.54225462  0.37993395  1  -0.569071  -0.00843  1.96393  -0.01  -0.51928  -0.013321  2.184057  -0.015  -0.541874  -0.01049  2.174599  -0.012  -0.2882  -0.503342  -0.016414  2.190492  -0.018
