# generated using pymatgen
data_Zr3H7C27S5Cl5O16
_symmetry_space_group_name_H-M   'P 1'
_cell_length_a   16.46234468
_cell_length_b   16.45596103
_cell_length_c   16.53201617
_cell_angle_alpha   61.60949679
_cell_angle_beta   59.83056506
_cell_angle_gamma   60.30181569
_symmetry_Int_Tables_number   1
_chemical_formula_structural   Zr3H7C27S5Cl5O16
_chemical_formula_sum   'Zr6 H14 C54 S10 Cl10 O32'
_cell_volume   3206.72666218
_cell_formula_units_Z   2
loop_
 _symmetry_equiv_pos_site_id
 _symmetry_equiv_pos_as_xyz
  1  'x, y, z'
loop_
 _atom_site_type_symbol
 _atom_site_label
 _atom_site_symmetry_multiplicity
 _atom_site_fract_x
 _atom_site_fract_y
 _atom_site_fract_z
 _atom_site_occupancy
 _atom_site_pbe_bader_charge
 _atom_site_pbe_bader_spin_density
 _atom_site_pbe_cm5_charge
 _atom_site_pbe_ddec_charge
 _atom_site_pbe_ddec_spin_density
 _atom_site_pbe_ddec_sum_bond_order
 _atom_site_pbe_magmom
Zr  Zr0  1  0.88818569  0.90250127  0.59796489  1  2.636788  0  1.629682  2.375895  0  2.778334  0
Zr  Zr1  1  0.11133942  0.10332443  0.39719372  1  2.635104  0  1.629951  2.37578  0  2.778524  0
Zr  Zr2  1  0.10213912  0.89416567  0.60655052  1  2.637377  0  1.621519  2.379048  0  2.740068  0
Zr  Zr3  1  0.89711755  0.11197403  0.38876152  1  2.637034  0  1.621249  2.379112  0  2.738217  0
Zr  Zr4  1  0.10854527  0.89414946  0.38869681  1  2.636613  0  1.618844  2.380922  0  2.728514  0
Zr  Zr5  1  0.89078067  0.11186517  0.60649801  1  2.637929  0  1.619313  2.38116  0  2.728382  0
H  H6  1  0.07758497  0.75286732  0.57742096  1  0.593917  0  0.332143  0.426304  0  0.851103  0
H  H7  1  0.09214798  0.08277760  0.24745789  1  0.601579  0  0.332196  0.425796  0  0.853872  0
H  H8  1  0.08346763  0.08237262  0.58901752  1  0.598951  0  0.331121  0.426162  0  0.850679  0
H  H9  1  0.74511823  0.09431838  0.57708929  1  0.599318  0  0.330971  0.425801  0  0.851306  0
H  H10  1  0.09958573  0.63940137  0.86890964  1  0.093006  0  0.103712  0.108725  0  1.038024  0
H  H11  1  0.84256435  0.65467782  0.85045607  1  0.052641  0  0.105416  0.117547  0  1.00269  0
H  H12  1  0.89241690  0.37438651  0.13400081  1  0.073508  0  0.104059  0.108896  0  1.037405  0
H  H13  1  0.15262093  0.35585809  0.14933362  1  0.095041  0  0.105207  0.117548  0  1.002585  0
H  H14  1  0.26626484  0.44777076  0.97747103  1  0.05169  0  0.095168  0.13302  0  0.988042  0
H  H15  1  0.19906117  0.57093743  0.92698990  1  0.038059  0  0.087988  0.122635  0  1.035787  0
H  H16  1  0.19174315  0.52830399  0.05018633  1  0.042023  0  0.094502  0.132425  0  0.990619  0
H  H17  1  0.80888444  0.48274547  0.94239583  1  0.034804  0  0.094914  0.133037  0  0.988431  0
H  H18  1  0.80336935  0.43234758  0.06558217  1  0.026856  0  0.088  0.122702  0  1.036117  0
H  H19  1  0.73018987  0.55548767  0.02286875  1  0.033305  0  0.094408  0.132676  0  0.990522  0
C  C20  1  0.99569102  0.73981427  0.48271021  1  1.601682  0  0.223505  0.656304  0  4.150078  0
C  C21  1  0.28188479  0.98800586  0.23462671  1  1.569508  0  0.222999  0.654706  0  4.148259  0
C  C22  1  0.99643411  0.27362261  0.50463337  1  1.597501  0  0.224579  0.656801  0  4.147008  0
C  C23  1  0.72552216  0.00970998  0.76841535  1  1.605122  0  0.224712  0.657937  0  4.146779  0
C  C24  1  0.98025088  0.74119027  0.76565307  1  1.540569  0  0.236371  0.643893  0  4.087503  0
C  C25  1  0.73171030  0.00414531  0.48789409  1  1.588383  0  0.22294  0.656061  0  4.150924  0
C  C26  1  0.01311379  0.27106380  0.23584293  1  1.514421  0  0.235999  0.642923  0  4.088034  0
C  C27  1  0.27619933  0.99307755  0.49896705  1  1.595398  0  0.222702  0.655033  0  4.156294  0
C  C28  1  0.27284414  0.73130951  0.49709184  1  1.602166  0  0.224191  0.656295  0  4.143912  0
C  C29  1  0.99225242  0.99585745  0.77713058  1  1.587666  0  0.223615  0.656496  0  4.146851  0
C  C30  1  0.73435318  0.28228571  0.49068593  1  1.581591  0  0.223982  0.656007  0  4.14632  0
C  C31  1  0.99843961  0.00244434  0.22603262  1  1.598411  0  0.223966  0.655227  0  4.145681  0
C  C32  1  0.92423815  0.42516025  0.56225500  1  0.160293  0  0.010216  0.105095  0  4.079135  0
C  C33  1  0.06337886  0.59249737  0.42040981  1  0.130793  0  0.009966  0.104714  0  4.079679  0
C  C34  1  0.99272076  0.36601625  0.50123059  1  -0.102218  0  -0.026596  -0.185138  0  3.922922  0
C  C35  1  0.99568292  0.65094818  0.48222747  1  -0.117879  0  -0.027607  -0.186856  0  3.925369  0
C  C36  1  0.03705148  0.51028138  0.44940646  1  -0.112056  0  -0.028783  -0.075089  0  4.100079  0
C  C37  1  0.94982625  0.50807300  0.53245645  1  -0.138983  0  -0.02879  -0.074811  0  4.100952  0
C  C38  1  0.42419290  0.92534745  0.08767687  1  0.161832  0  0.009942  0.1044  0  4.080541  0
C  C39  1  0.58886380  0.06713347  0.92017464  1  0.141764  0  0.010564  0.105613  0  4.078152  0
C  C40  1  0.37150290  0.98731051  0.14599161  1  -0.12371  0  -0.027501  -0.18621  0  3.923016  0
C  C41  1  0.64048127  0.00610549  0.86103478  1  -0.151136  0  -0.027114  -0.186176  0  3.923527  0
C  C42  1  0.51020652  0.03732794  0.00316820  1  -0.133773  0  -0.028895  -0.075301  0  4.09991  0
C  C43  1  0.50381196  0.95423744  0.00549262  1  -0.104839  0  -0.028558  -0.074438  0  4.09988  0
C  C44  1  0.05817168  0.92723922  0.91843977  1  0.155452  0  0.010222  0.104692  0  4.071763  0
C  C45  1  0.92675788  0.06584216  0.09022124  1  0.125938  0  0.010298  0.105842  0  4.071227  0
C  C46  1  0.99237847  0.99305583  0.86737181  1  -0.102583  0  -0.02675  -0.185471  0  3.911073  0
C  C47  1  0.99360115  0.00099879  0.14025224  1  -0.122048  0  -0.02681  -0.184714  0  3.911943  0
C  C48  1  0.95008810  0.03867204  0.00958339  1  -0.100132  0  -0.028865  -0.075987  0  4.097982  0
C  C49  1  0.03399259  0.95360279  0.99990799  1  -0.143972  0  -0.029381  -0.075236  0  4.098095  0
C  C50  1  0.41652756  0.59516987  0.56087580  1  0.178439  0  0.009875  0.105366  0  4.069463  0
C  C51  1  0.59528104  0.42313294  0.42248771  1  0.142645  0  0.010228  0.104981  0  4.071804  0
C  C52  1  0.36461568  0.64526666  0.49592411  1  -0.147038  0  -0.026227  -0.184337  0  3.909629  0
C  C53  1  0.64642021  0.37218930  0.48821265  1  -0.115601  0  -0.026908  -0.185634  0  3.913514  0
C  C54  1  0.51169869  0.50463515  0.44882996  1  -0.143438  0  -0.028984  -0.074942  0  4.098639  0
C  C55  1  0.50088038  0.51440232  0.53385705  1  -0.147757  0  -0.028549  -0.075043  0  4.097632  0
C  C56  1  0.04161325  0.60831815  0.89933682  1  -0.078366  0  -0.081679  -0.136402  0  3.952604  0
C  C57  1  0.89513705  0.61701855  0.88912063  1  -0.039221  0  -0.091495  -0.17057  0  3.95777  0
C  C58  1  0.88636146  0.53522797  0.97000465  1  0.013056  0  -0.001347  0.134034  0  3.934263  0
C  C59  1  0.95691017  0.48767607  0.01903068  1  0.023124  0  -0.001832  0.02679  0  3.948892  0
C  C60  1  0.95109236  0.40474779  0.10295588  1  -0.007623  0  -0.081587  -0.135146  0  3.95308  0
C  C61  1  0.09900908  0.39456421  0.11170983  1  0.015006  0  -0.091893  -0.171417  0  3.957012  0
C  C62  1  0.10871305  0.47543760  0.02990723  1  -0.009572  0  -0.001361  0.134135  0  3.93531  0
C  C63  1  0.03674829  0.52444531  0.98230512  1  -0.006597  0  -0.001518  0.027306  0  3.948845  0
C  C64  1  0.97222380  0.65387499  0.85383634  1  0.009358  0  -0.022606  -0.039133  0  4.030326  0
C  C65  1  0.02036533  0.35926625  0.14856975  1  -0.085174  0  -0.022719  -0.039864  0  4.031476  0
C  C66  1  0.41980518  0.05885285  0.42657697  1  0.178346  0  0.010481  0.106014  0  4.071574  0
C  C67  1  0.59492599  0.93158710  0.55333718  1  0.156675  0  0.010322  0.10573  0  4.07149  0
C  C68  1  0.36792821  0.99319838  0.49323759  1  -0.141165  0  -0.027034  -0.184985  0  3.922258  0
C  C69  1  0.64556081  0.99846456  0.48797844  1  -0.125542  0  -0.027053  -0.185485  0  3.921157  0
C  C70  1  0.51293151  0.95336766  0.53045137  1  -0.142351  0  -0.028556  -0.073432  0  4.103302  0
C  C71  1  0.50297824  0.03591990  0.44826498  1  -0.127203  0  -0.028796  -0.074493  0  4.104101  0
C  C72  1  0.19539928  0.50812445  0.99357903  1  -0.065867  0  -0.235883  -0.409197  0  3.972722  0
C  C73  1  0.80331481  0.49888217  0.00271464  1  -0.026512  0  -0.235858  -0.410088  0  3.973554  0
S  S74  1  0.08784297  0.41172064  0.40747855  1  0.28854  0  0.096103  0.162036  0  2.789813  0
S  S75  1  0.89977120  0.60595366  0.57514789  1  0.293457  0  0.094559  0.159831  0  2.801573  0
S  S76  1  0.41959028  0.08016776  0.10095521  1  0.296801  0  0.094335  0.159415  0  2.799366  0
S  S77  1  0.59344660  0.91228761  0.90690880  1  0.31175  0  0.09613  0.16202  0  2.79094  0
S  S78  1  0.90065727  0.08649799  0.91965111  1  0.285212  0  0.09358  0.157338  0  2.792861  0
S  S79  1  0.08431619  0.90660565  0.08896910  1  0.306212  0  0.094153  0.157258  0  2.787472  0
S  S80  1  0.41947233  0.59381005  0.40167732  1  0.313575  0  0.093781  0.156668  0  2.790257  0
S  S81  1  0.59246243  0.42453373  0.58162037  1  0.316206  0  0.093293  0.15676  0  2.791821  0
S  S82  1  0.42136224  0.90334534  0.58143789  1  0.305409  0  0.094351  0.156476  0  2.794486  0
S  S83  1  0.59343788  0.08703782  0.39847859  1  0.311321  0  0.094045  0.156557  0  2.795273  0
Cl  Cl84  1  0.82158896  0.40477256  0.66159840  1  -0.153081  0  0.013413  -0.027687  0  1.514158  0
Cl  Cl85  1  0.16668088  0.61225086  0.32174355  1  -0.15659  0  0.013326  -0.027805  0  1.511909  0
Cl  Cl86  1  0.39982253  0.82664399  0.10746878  1  -0.154861  0  0.013229  -0.027817  0  1.511725  0
Cl  Cl87  1  0.61254687  0.16650557  0.89970439  1  -0.15813  0  0.013507  -0.027481  0  1.514646  0
Cl  Cl88  1  0.15785906  0.82660118  0.89071464  1  -0.158158  0  0.016773  -0.023652  0  1.516433  0
Cl  Cl89  1  0.82769605  0.16698410  0.11745614  1  -0.157617  0  0.015066  -0.025367  0  1.518557  0
Cl  Cl90  1  0.38725425  0.62245908  0.66198913  1  -0.15603  0  0.015016  -0.025528  0  1.518762  0
Cl  Cl91  1  0.62383852  0.39533937  0.32192198  1  -0.159729  0  0.0164  -0.024069  0  1.515094  0
Cl  Cl92  1  0.39198910  0.15670253  0.32993452  1  -0.149957  0  0.015663  -0.026523  0  1.534816  0
Cl  Cl93  1  0.62190435  0.83453724  0.65081081  1  -0.156136  0  0.015519  -0.026556  0  1.534554  0
O  O94  1  0.92437815  0.77610200  0.55145807  1  -1.174517  0  -0.352413  -0.610564  0  2.281243  0
O  O95  1  0.24810650  0.05675851  0.27091310  1  -1.168462  0  -0.352176  -0.609681  0  2.280818  0
O  O96  1  0.06977308  0.23541864  0.43799484  1  -1.179113  0  -0.352813  -0.610876  0  2.278559  0
O  O97  1  0.75697682  0.94313391  0.73015879  1  -1.178138  0  -0.352821  -0.611318  0  2.278217  0
O  O98  1  0.05157821  0.77206905  0.73420468  1  -1.181103  0  -0.35359  -0.617017  0  2.278854  0
O  O99  1  0.76529935  0.07329883  0.42127166  1  -1.176576  0  -0.348176  -0.610198  0  2.243978  0
O  O100  1  0.94231330  0.23969954  0.26663041  1  -1.176342  0  -0.352589  -0.616015  0  2.278051  0
O  O101  1  0.24005057  0.92647272  0.56811909  1  -1.184236  0  -0.347972  -0.60916  0  2.245819  0
O  O102  1  0.24062495  0.76300624  0.42772106  1  -1.176163  0  -0.349263  -0.609466  0  2.250048  0
O  O103  1  0.92451292  0.06709521  0.74336876  1  -1.176149  0  -0.349041  -0.610606  0  2.250633  0
O  O104  1  0.76474477  0.24863555  0.56181573  1  -1.173865  0  -0.348967  -0.609895  0  2.247338  0
O  O105  1  0.06844916  0.93318021  0.25762337  1  -1.173477  0  -0.349002  -0.609021  0  2.248967  0
O  O106  1  0.06106898  0.92772958  0.73899078  1  -1.179182  0  -0.362695  -0.618045  0  2.322304  0
O  O107  1  0.77204290  0.24432437  0.42234731  1  -1.16779  0  -0.362752  -0.617975  0  2.320725  0
O  O108  1  0.93298734  0.07355318  0.26112565  1  -1.176082  0  -0.363514  -0.618104  0  2.319849  0
O  O109  1  0.23222260  0.76650681  0.56810087  1  -1.176756  0  -0.363669  -0.619058  0  2.320797  0
O  O110  1  0.91471707  0.77884813  0.72587802  1  -1.175489  0  -0.367618  -0.624393  0  2.307769  0
O  O111  1  0.23918855  0.06210554  0.43377488  1  -1.18066  0  -0.368824  -0.619093  0  2.354978  0
O  O112  1  0.08076226  0.23118877  0.27353338  1  -1.185834  0  -0.367887  -0.624153  0  2.306384  0
O  O113  1  0.76490626  0.93895885  0.55691764  1  -1.174139  0  -0.36875  -0.619027  0  2.353384  0
O  O114  1  0.76033497  0.07859653  0.73323380  1  -1.168049  0  -0.362328  -0.617421  0  2.31358  0
O  O115  1  0.06694870  0.77233382  0.41672242  1  -1.177434  0  -0.361642  -0.616011  0  2.312359  0
O  O116  1  0.24395428  0.92218532  0.26692395  1  -1.171203  0  -0.361329  -0.615013  0  2.310759  0
O  O117  1  0.92775986  0.23856820  0.57335585  1  -1.180513  0  -0.362442  -0.617362  0  2.31132  0
O  O118  1  0.81744841  0.06925645  0.55410622  1  -1.227667  0  -0.69262  -1.068609  0  2.349562  0
O  O119  1  0.05912926  0.05945436  0.56393857  1  -1.228662  0  -0.692931  -1.069223  0  2.348717  0
O  O120  1  0.06646663  0.05907847  0.31853981  1  -1.229558  0  -0.694039  -1.069849  0  2.360874  0
O  O121  1  0.05589719  0.82394188  0.55365841  1  -1.221349  0  -0.694231  -1.070164  0  2.357232  0
O  O122  1  0.13386134  0.95399076  0.45595524  1  -1.197674  0  -0.789448  -1.148862  0  2.119166  0
O  O123  1  0.95613085  0.96137914  0.44859846  1  -1.203908  0  -0.789318  -1.148852  0  2.118286  0
O  O124  1  0.95816086  0.13471880  0.45648948  1  -1.197886  0  -0.79099  -1.149492  0  2.127433  0
O  O125  1  0.95060373  0.96186525  0.62932386  1  -1.198546  0  -0.790897  -1.149339  0  2.126533  0
