# generated using pymatgen
data_Cd3H24C34(N3O8)2
_symmetry_space_group_name_H-M   'P 1'
_cell_length_a   9.05059438
_cell_length_b   14.11555469
_cell_length_c   15.40191445
_cell_angle_alpha   91.82462828
_cell_angle_beta   102.20549787
_cell_angle_gamma   97.82528067
_symmetry_Int_Tables_number   1
_chemical_formula_structural   Cd3H24C34(N3O8)2
_chemical_formula_sum   'Cd6 H48 C68 N12 O32'
_cell_volume   1901.53389767
_cell_formula_units_Z   2
loop_
 _symmetry_equiv_pos_site_id
 _symmetry_equiv_pos_as_xyz
  1  'x, y, z'
loop_
 _atom_site_type_symbol
 _atom_site_label
 _atom_site_symmetry_multiplicity
 _atom_site_fract_x
 _atom_site_fract_y
 _atom_site_fract_z
 _atom_site_occupancy
 _atom_site_pbe_bader_charge
 _atom_site_pbe_bader_spin_density
 _atom_site_pbe_cm5_charge
 _atom_site_pbe_ddec_charge
 _atom_site_pbe_ddec_spin_density
 _atom_site_pbe_ddec_sum_bond_order
 _atom_site_pbe_magmom
Cd  Cd0  1  0.63391629  0.63996974  0.15469235  1  1.34941  0  0.767743  1.091803  0  2.016073  0
Cd  Cd1  1  0.36607833  0.36003304  0.84530606  1  1.349362  0  0.767778  1.091796  0  2.016091  0
Cd  Cd2  1  0.29975525  0.60077392  0.77001601  1  1.313975  0  0.781766  1.03151  0  2.118068  0
Cd  Cd3  1  0.70023343  0.39922738  0.22998424  1  1.314105  0  0.781765  1.031496  0  2.11815  0
Cd  Cd4  1  0.43146998  0.50446236  0.37483507  1  1.335127  0  0.798188  1.092229  0  1.955575  0
Cd  Cd5  1  0.56853788  0.49553910  0.62516164  1  1.33527  0  0.798189  1.092259  0  1.955529  0
H  H6  1  0.92002476  0.47381997  0.58176178  1  0.132036  0  0.111963  0.123212  0  1.00315  0
H  H7  1  0.07997530  0.52618216  0.41823207  1  0.131981  0  0.111944  0.123177  0  1.003154  0
H  H8  1  0.74170455  0.25294344  0.37312902  1  0.075644  0  0.10625  0.10054  0  1.021619  0
H  H9  1  0.25829476  0.74705510  0.62686656  1  0.075733  0  0.106245  0.100535  0  1.021685  0
H  H10  1  0.16153365  0.23436971  0.56339107  1  0.135878  0  0.113297  0.125826  0  0.994489  0
H  H11  1  0.83845690  0.76562444  0.43661176  1  0.135893  0  0.113265  0.125802  0  0.994546  0
H  H12  1  0.98238259  0.85379313  0.27301743  1  0.079747  0  0.100275  0.0971  0  1.027355  0
H  H13  1  0.01762091  0.14620324  0.72698962  1  0.079896  0  0.100296  0.0971  0  1.027366  0
H  H14  1  0.13796469  0.72218510  0.27581387  1  0.124298  0  0.10494  0.120248  0  1.002415  0
H  H15  1  0.86203755  0.27781053  0.72419560  1  0.124176  0  0.104946  0.120287  0  1.002315  0
H  H16  1  0.47499377  0.87251969  0.49352533  1  0.090652  0  0.103028  0.108601  0  1.011474  0
H  H17  1  0.52501641  0.12748176  0.50647620  1  0.090836  0  0.102995  0.108507  0  1.011507  0
H  H18  1  0.31857878  0.00781424  0.48856677  1  0.096826  0  0.101048  0.106005  0  1.024006  0
H  H19  1  0.68143281  0.99218866  0.51143303  1  0.096664  0  0.101049  0.105996  0  1.024068  0
H  H20  1  0.17368951  0.54910579  0.17684381  1  0.110597  0  0.113293  0.126487  0  0.999855  0
H  H21  1  0.82630462  0.45089485  0.82315252  1  0.11062  0  0.113275  0.12646  0  0.999853  0
H  H22  1  0.78413160  0.37036826  0.01444266  1  0.119168  0  0.106674  0.106364  0  1.053122  0
H  H23  1  0.21585642  0.62962443  0.98556371  1  0.119235  0  0.106739  0.106447  0  1.053105  0
H  H24  1  0.22615191  0.27846751  0.05824854  1  0.128373  0  0.114356  0.118708  0  1.005568  0
H  H25  1  0.77384092  0.72153241  0.94174696  1  0.128346  0  0.114409  0.11878  0  1.005614  0
H  H26  1  0.73104142  0.94383766  0.79519116  1  0.111623  0  0.105663  0.110045  0  0.988612  0
H  H27  1  0.26895964  0.05616375  0.20480474  1  0.111649  0  0.105632  0.109967  0  0.988654  0
H  H28  1  0.81063656  0.79350392  0.74444095  1  0.094728  0  0.105126  0.109309  0  1.013513  0
H  H29  1  0.18937004  0.20649680  0.25555818  1  0.094665  0  0.105115  0.109343  0  1.013503  0
H  H30  1  0.27142560  0.88937709  0.88817454  1  0.110214  0  0.103856  0.113354  0  0.994054  0
H  H31  1  0.72857931  0.11063149  0.11182400  1  0.110302  0  0.103869  0.113411  0  0.994013  0
H  H32  1  0.19075555  0.03698671  0.94364612  1  0.087887  0  0.104719  0.107707  0  1.014497  0
H  H33  1  0.80924434  0.96301970  0.05634980  1  0.087757  0  0.104733  0.107639  0  1.014514  0
H  H34  1  0.74503496  0.09817646  0.33598210  1  0.480745  0  0.354245  0.291847  0  0.883813  0
H  H35  1  0.25496659  0.90181633  0.66402135  1  0.480799  0  0.354218  0.291892  0  0.883687  0
H  H36  1  0.69812012  0.23372403  0.93053631  1  0.536084  0  0.339627  0.293233  0  0.919639  0
H  H37  1  0.30187229  0.76627373  0.06946297  1  0.536075  0  0.339624  0.2932  0  0.919663  0
H  H38  1  0.16111753  0.34576323  0.32235367  1  0.672027  0  0.290693  0.405966  0  0.929319  0
H  H39  1  0.83889396  0.65423893  0.67765064  1  0.671888  0  0.290613  0.4059  0  0.929439  0
H  H40  1  0.28984662  0.32682871  0.40783683  1  0.643347  0  0.320561  0.420561  0  0.868671  0
H  H41  1  0.71016678  0.67317704  0.59216783  1  0.643379  0  0.320585  0.420584  0  0.86875  0
H  H42  1  0.51728212  0.65521079  0.96421127  1  0.650774  0  0.300108  0.398519  0  0.926249  0
H  H43  1  0.48271078  0.34478412  0.03578603  1  0.650567  0  0.300108  0.398515  0  0.926225  0
H  H44  1  0.40337243  0.57357046  0.98555607  1  0.637773  0  0.293248  0.392891  0  0.938818  0
H  H45  1  0.59662227  0.42642730  0.01444543  1  0.637799  0  0.293289  0.392922  0  0.938774  0
H  H46  1  0.81201448  0.80749757  0.09103232  1  0.635461  0  0.283799  0.357524  0  0.997902  0
H  H47  1  0.18798128  0.19250522  0.90896689  1  0.635455  0  0.283832  0.357558  0  0.997857  0
H  H48  1  0.74612954  0.84428366  0.17055581  1  0.599065  0  0.317355  0.397228  0  0.893306  0
H  H49  1  0.25387061  0.15571843  0.82944584  1  0.599133  0  0.317351  0.397211  0  0.893382  0
H  H50  1  0.39603004  0.68031856  0.23935999  1  0.654321  0  0.291833  0.391229  0  0.950899  0
H  H51  1  0.60397108  0.31968283  0.76064111  1  0.654291  0  0.291839  0.391235  0  0.950888  0
H  H52  1  0.46137565  0.78238416  0.21578549  1  0.594125  0  0.32467  0.402104  0  0.869119  0
H  H53  1  0.53862061  0.21761578  0.78421302  1  0.594122  0  0.324648  0.402103  0  0.869124  0
C  C54  1  0.05192157  0.35817921  0.57999032  1  0.007872  0  -0.013127  -0.029521  0  3.954095  0
C  C55  1  0.94807694  0.64182074  0.42000717  1  0.00786  0  -0.013083  -0.029488  0  3.954043  0
C  C56  1  0.92892477  0.40679073  0.54771374  1  -0.056763  0  -0.065883  -0.079208  0  3.890104  0
C  C57  1  0.07107712  0.59320925  0.45228285  1  -0.05691  0  -0.065903  -0.079166  0  3.890222  0
C  C58  1  0.81840595  0.36852580  0.47282408  1  0.021051  0  -0.018595  -0.041813  0  3.999095  0
C  C59  1  0.18159366  0.63147417  0.52717094  1  0.021624  0  -0.018533  -0.041697  0  3.998955  0
C  C60  1  0.83068667  0.28154609  0.43084848  1  -0.041933  0  -0.069258  -0.104828  0  3.91853  0
C  C61  1  0.16931617  0.71845319  0.56914626  1  -0.042385  0  -0.069304  -0.104995  0  3.918714  0
C  C62  1  0.95406833  0.23287253  0.46270268  1  0.056747  0  -0.003066  0.012512  0  4.029347  0
C  C63  1  0.04592845  0.76712454  0.53729710  1  0.056798  0  -0.002998  0.012718  0  4.02933  0
C  C64  1  0.06570780  0.27205168  0.53751649  1  0.013274  0  -0.057888  -0.083322  0  3.861358  0
C  C65  1  0.93428785  0.72794538  0.46248250  1  0.013237  0  -0.057854  -0.083364  0  3.861526  0
C  C66  1  0.16295485  0.39743327  0.66383880  1  1.568932  0  0.214422  0.602604  0  4.187254  0
C  C67  1  0.83703757  0.60256449  0.33616048  1  1.568548  0  0.214421  0.602699  0  4.187429  0
C  C68  1  0.68702481  0.41884496  0.43800948  1  1.530164  0  0.209932  0.595888  0  4.164077  0
C  C69  1  0.31297723  0.58115574  0.56198650  1  1.530209  0  0.210015  0.596054  0  4.163986  0
C  C70  1  0.96671971  0.14087817  0.42140109  1  0.966491  0  0.228175  0.278477  0  4.049256  0
C  C71  1  0.03328418  0.85912038  0.57859959  1  0.966502  0  0.228167  0.278317  0  4.04938  0
C  C72  1  0.04296354  0.01253001  0.38399309  1  0.972222  0  0.213235  0.266368  0  4.060638  0
C  C73  1  0.95704165  0.98746926  0.61600907  1  0.972588  0  0.213219  0.266354  0  4.060518  0
C  C74  1  0.14049595  0.93879043  0.38080580  1  -0.022049  0  -0.000167  0.038777  0  3.988152  0
C  C75  1  0.85951552  0.06121174  0.61919722  1  -0.02217  0  -0.00028  0.038643  0  3.988127  0
C  C76  1  0.09189868  0.85891581  0.31995235  1  -0.020334  0  -0.08556  -0.105744  0  3.958353  0
C  C77  1  0.90810545  0.14108342  0.68005553  1  -0.020744  0  -0.085612  -0.105703  0  3.958339  0
C  C78  1  0.17952358  0.78527290  0.32151514  1  -0.038523  0  -0.085176  -0.088843  0  3.9592  0
C  C79  1  0.82047923  0.21472562  0.67848995  1  -0.038465  0  -0.085136  -0.088835  0  3.959204  0
C  C80  1  0.31718052  0.78969245  0.38505542  1  -0.031436  0  -0.027455  -0.055172  0  4.004692  0
C  C81  1  0.68282438  0.21030537  0.61494860  1  -0.031789  0  -0.027525  -0.055458  0  4.00489  0
C  C82  1  0.36845451  0.87091211  0.44428484  1  -0.053381  0  -0.08844  -0.098217  0  3.993572  0
C  C83  1  0.63155634  0.12908719  0.55571800  1  -0.053102  0  -0.088303  -0.097841  0  3.993463  0
C  C84  1  0.28183424  0.94528495  0.44176353  1  -0.06757  0  -0.093094  -0.1267  0  3.96773  0
C  C85  1  0.71817677  0.05471507  0.55823936  1  -0.067417  0  -0.093081  -0.126734  0  3.967803  0
C  C86  1  0.40091295  0.70513888  0.39569349  1  1.5046  0  0.197604  0.553347  0  4.231296  0
C  C87  1  0.59909853  0.29486329  0.60430952  1  1.504669  0  0.197645  0.553482  0  4.231014  0
C  C88  1  0.21761106  0.41589277  0.12009084  1  -0.031388  0  -0.019757  -0.040083  0  3.975244  0
C  C89  1  0.78237741  0.58410784  0.87990546  1  -0.032149  0  -0.019776  -0.040028  0  3.975333  0
C  C90  1  0.12519639  0.48404669  0.13487280  1  -0.052331  0  -0.063719  -0.072621  0  3.858802  0
C  C91  1  0.87479490  0.51595106  0.86512700  1  -0.052128  0  -0.063711  -0.072588  0  3.858659  0
C  C92  1  0.96849597  0.46675633  0.09731000  1  0.052381  0  -0.017803  -0.03417  0  3.979041  0
C  C93  1  0.03149436  0.53324212  0.90269165  1  0.052459  0  -0.017824  -0.034247  0  3.978945  0
C  C94  1  0.90608024  0.38323519  0.04326175  1  -0.036767  0  -0.074221  -0.113958  0  3.902665  0
C  C95  1  0.09391094  0.61676182  0.95674255  1  -0.036657  0  -0.07431  -0.114044  0  3.902836  0
C  C96  1  0.99886127  0.31634781  0.02643643  1  -0.028412  0  -0.000523  0.021592  0  4.030841  0
C  C97  1  0.00112825  0.68365206  0.97356582  1  -0.028566  0  -0.000502  0.021517  0  4.03111  0
C  C98  1  0.15424906  0.33226272  0.06695973  1  0.013102  0  -0.064705  -0.092769  0  3.891543  0
C  C99  1  0.84574265  0.66773720  0.93303629  1  0.012932  0  -0.064694  -0.092716  0  3.891554  0
C  C100  1  0.38405222  0.42903197  0.16155301  1  1.537463  0  0.210181  0.585001  0  4.186227  0
C  C101  1  0.61593903  0.57096579  0.83844353  1  1.537665  0  0.20993  0.584511  0  4.187046  0
C  C102  1  0.86768854  0.53731910  0.11531758  1  1.532725  0  0.198982  0.561393  0  4.211697  0
C  C103  1  0.13229971  0.46267504  0.88468238  1  1.532603  0  0.198895  0.561295  0  4.211648  0
C  C104  1  0.93833728  0.22888530  0.97040560  1  1.045131  0  0.237564  0.299658  0  4.006464  0
C  C105  1  0.06165429  0.77111390  0.02959168  1  1.045158  0  0.237555  0.299623  0  4.006584  0
C  C106  1  0.91384874  0.09085829  0.90245407  1  0.935612  0  0.215522  0.261984  0  4.058012  0
C  C107  1  0.08614780  0.90914309  0.09754193  1  0.935559  0  0.215552  0.261992  0  4.058187  0
C  C108  1  0.95616018  0.00162722  0.87101124  1  -0.013496  0  -0.000482  0.030127  0  3.996091  0
C  C109  1  0.04383863  0.99837417  0.12898568  1  -0.013423  0  -0.000437  0.030037  0  3.99611  0
C  C110  1  0.84940285  0.93159265  0.81566904  1  -0.053041  0  -0.079772  -0.101386  0  3.93427  0
C  C111  1  0.15060031  0.06840806  0.18432643  1  -0.053118  0  -0.07973  -0.101214  0  3.934155  0
C  C112  1  0.89442456  0.84767469  0.78688351  1  -0.022244  0  -0.081071  -0.079189  0  3.946635  0
C  C113  1  0.10558221  0.15232674  0.21311696  1  -0.022252  0  -0.081073  -0.079266  0  3.946525  0
C  C114  1  0.04737419  0.83251452  0.81196572  1  -0.073771  0  -0.024671  -0.048762  0  3.985434  0
C  C115  1  0.95263251  0.16749193  0.18803232  1  -0.073478  0  -0.024704  -0.048777  0  3.985344  0
C  C116  1  0.15337853  0.90206930  0.86801771  1  0.0027  0  -0.089153  -0.090849  0  3.985981  0
C  C117  1  0.84662807  0.09793641  0.13198484  1  0.00256  0  -0.089154  -0.090926  0  3.985701  0
C  C118  1  0.10840321  0.98502337  0.89794154  1  -0.045437  0  -0.092938  -0.127182  0  3.980866  0
C  C119  1  0.89159811  0.01498449  0.10205396  1  -0.045256  0  -0.093021  -0.12706  0  3.980712  0
C  C120  1  0.10114033  0.74396586  0.78169188  1  1.539414  0  0.194122  0.550347  0  4.249142  0
C  C121  1  0.89887048  0.25603845  0.21831113  1  1.539772  0  0.19422  0.5503  0  4.249352  0
N  N122  1  0.85252469  0.08524640  0.36190505  1  -0.809672  0  -0.268099  -0.155865  0  3.722752  0
N  N123  1  0.14748002  0.91475072  0.63809568  1  -0.809635  0  -0.268013  -0.155698  0  3.722431  0
N  N124  1  0.89780259  0.00319871  0.33721345  1  -0.666105  0  -0.230696  -0.264542  0  3.112173  0
N  N125  1  0.10220326  0.99679841  0.66278807  1  -0.666368  0  -0.230767  -0.264681  0  3.112064  0
N  N126  1  0.08900466  0.09575784  0.43647930  1  -1.140855  0  -0.331074  -0.414186  0  3.15961  0
N  N127  1  0.91100180  0.90424216  0.56352109  1  -1.14076  0  -0.331011  -0.414087  0  3.159621  0
N  N128  1  0.78897280  0.19705763  0.93527351  1  -0.857986  0  -0.260715  -0.140163  0  3.682408  0
N  N129  1  0.21102205  0.80294085  0.06472739  1  -0.857752  0  -0.260746  -0.140114  0  3.682432  0
N  N130  1  0.77009675  0.11023976  0.89132392  1  -0.623528  0  -0.230457  -0.262968  0  3.081931  0
N  N131  1  0.22989950  0.88976018  0.10867330  1  -0.623495  0  -0.230439  -0.26294  0  3.082036  0
N  N132  1  0.02060313  0.16315326  0.94922847  1  -1.190414  0  -0.32072  -0.419006  0  3.257864  0
N  N133  1  0.97939103  0.83684738  0.05076981  1  -1.190517  0  -0.320722  -0.418986  0  3.257922  0
O  O134  1  0.26097929  0.34563770  0.69958106  1  -1.162297  0  -0.32968  -0.577817  0  2.285179  0
O  O135  1  0.73901863  0.65435938  0.30041885  1  -1.161961  0  -0.329725  -0.577938  0  2.285424  0
O  O136  1  0.14599743  0.47985652  0.69285630  1  -1.167238  0  -0.328453  -0.57097  0  2.371741  0
O  O137  1  0.85399384  0.52014123  0.30714154  1  -1.167214  0  -0.328466  -0.571014  0  2.371827  0
O  O138  1  0.65516738  0.48716484  0.48414950  1  -1.165085  0  -0.320532  -0.591101  0  2.337488  0
O  O139  1  0.34484319  0.51283878  0.51584631  1  -1.165248  0  -0.320568  -0.591215  0  2.33751  0
O  O140  1  0.60422283  0.39382295  0.36003390  1  -1.157988  0  -0.326962  -0.574589  0  2.346866  0
O  O141  1  0.39577394  0.60617413  0.63996393  1  -1.157912  0  -0.326991  -0.574665  0  2.346899  0
O  O142  1  0.50397768  0.69853950  0.46204925  1  -1.15905  0  -0.314969  -0.528785  0  2.125605  0
O  O143  1  0.49603349  0.30146123  0.53795368  1  -1.158894  0  -0.314993  -0.528845  0  2.125462  0
O  O144  1  0.35187347  0.63705593  0.33120941  1  -1.135224  0  -0.341087  -0.600121  0  2.337299  0
O  O145  1  0.64813701  0.36294695  0.66879221  1  -1.135355  0  -0.341094  -0.600146  0  2.337221  0
O  O146  1  0.45811022  0.36092069  0.14707995  1  -1.155073  0  -0.317216  -0.545208  0  2.268959  0
O  O147  1  0.54187723  0.63907488  0.85292125  1  -1.155169  0  -0.317056  -0.544973  0  2.269224  0
O  O148  1  0.44695047  0.50531137  0.20901105  1  -1.201403  0  -0.329388  -0.617187  0  2.320137  0
O  O149  1  0.55304626  0.49468572  0.79098418  1  -1.200998  0  -0.329328  -0.61701  0  2.320267  0
O  O150  1  0.91967054  0.62160915  0.14313963  1  -1.152595  0  -0.297974  -0.511463  0  2.178572  0
O  O151  1  0.08031223  0.37838567  0.85686164  1  -1.152567  0  -0.297923  -0.511364  0  2.178578  0
O  O152  1  0.72057854  0.50447628  0.10239023  1  -1.176022  0  -0.344766  -0.655864  0  2.378324  0
O  O153  1  0.27941231  0.49551930  0.89761203  1  -1.175741  0  -0.344714  -0.655777  0  2.378151  0
O  O154  1  0.24609964  0.74121387  0.80754941  1  -1.151013  0  -0.34395  -0.572939  0  2.244528  0
O  O155  1  0.75391110  0.25879047  0.19244775  1  -1.151506  0  -0.343944  -0.572883  0  2.244883  0
O  O156  1  0.01161960  0.67629676  0.73433406  1  -1.188783  0  -0.310932  -0.555469  0  2.238292  0
O  O157  1  0.98839432  0.32370613  0.26567057  1  -1.189055  0  -0.311029  -0.555505  0  2.238078  0
O  O158  1  0.27234632  0.36150986  0.35369638  1  -1.263799  0  -0.579792  -0.769446  0  2.042136  0
O  O159  1  0.72766514  0.63849232  0.64630533  1  -1.263783  0  -0.579756  -0.769452  0  2.042285  0
O  O160  1  0.47074547  0.63276038  0.01407412  1  -1.25726  0  -0.585599  -0.757922  0  2.062716  0
O  O161  1  0.52924952  0.36723882  0.98592551  1  -1.257034  0  -0.58564  -0.757907  0  2.062831  0
O  O162  1  0.72149107  0.79691312  0.12028588  1  -1.218037  0  -0.579675  -0.751857  0  2.060433  0
O  O163  1  0.27850682  0.20308896  0.87971551  1  -1.218082  0  -0.579711  -0.751886  0  2.060446  0
O  O164  1  0.43466511  0.71634690  0.19114612  1  -1.211571  0  -0.568798  -0.746412  0  2.065107  0
O  O165  1  0.56533131  0.28365375  0.80885309  1  -1.211598  0  -0.568789  -0.746441  0  2.065138  0
