# generated using pymatgen
data_CdH8C5S2N4O
_symmetry_space_group_name_H-M   'P 1'
_cell_length_a   8.22379070
_cell_length_b   8.22374954
_cell_length_c   14.87008587
_cell_angle_alpha   90.00101917
_cell_angle_beta   89.99941751
_cell_angle_gamma   97.46960411
_symmetry_Int_Tables_number   1
_chemical_formula_structural   CdH8C5S2N4O
_chemical_formula_sum   'Cd4 H32 C20 S8 N16 O4'
_cell_volume   997.13563400
_cell_formula_units_Z   4
loop_
 _symmetry_equiv_pos_site_id
 _symmetry_equiv_pos_as_xyz
  1  'x, y, z'
loop_
 _atom_site_type_symbol
 _atom_site_label
 _atom_site_symmetry_multiplicity
 _atom_site_fract_x
 _atom_site_fract_y
 _atom_site_fract_z
 _atom_site_occupancy
 _atom_site_hle17_bader_spin_density
 _atom_site_hle17_ddec_charge
 _atom_site_hle17_ddec_spin_density
 _atom_site_hle17_ddec_sum_bond_order
 _atom_site_hle17_magmom
 _atom_site_hse06_10hf_bader_spin_density
 _atom_site_hse06_10hf_ddec_charge
 _atom_site_hse06_10hf_ddec_spin_density
 _atom_site_hse06_10hf_ddec_sum_bond_order
 _atom_site_hse06_10hf_magmom
 _atom_site_hse06_bader_spin_density
 _atom_site_hse06_ddec_charge
 _atom_site_hse06_ddec_spin_density
 _atom_site_hse06_ddec_sum_bond_order
 _atom_site_hse06_magmom
 _atom_site_pbe_bader_spin_density
 _atom_site_pbe_cm5_charge
 _atom_site_pbe_ddec_charge
 _atom_site_pbe_ddec_spin_density
 _atom_site_pbe_ddec_sum_bond_order
 _atom_site_pbe_magmom
Cd  Cd0  1  0.97049131  0.71775095  0.81895778  1  0  0.993576  0  1.929185  0  0  0.826001  0  2.381386  0  0  0.87046  0  2.342649  0  0  0.714799  0.794844  0  2.40763  0
Cd  Cd1  1  0.28222985  0.02950960  0.18104740  1  0  0.993697  0  1.929427  0  0  0.826097  0  2.381699  0  0  0.870554  0  2.342962  0  0  0.714912  0.794942  0  2.407944  0
Cd  Cd2  1  0.78223427  0.52950720  0.31895690  1  0  0.993649  0  1.929407  0  0  0.826065  0  2.381655  0  0  0.870525  0  2.342921  0  0  0.714869  0.794913  0  2.4079  0
Cd  Cd3  1  0.47048504  0.21775709  0.68104156  1  0  0.993673  0  1.929377  0  0  0.826078  0  2.381606  0  0  0.870534  0  2.342872  0  0  0.714894  0.794923  0  2.407849  0
H  H4  1  0.05677189  0.80217641  0.03069228  1  0  0.090871  0  0.941413  0  0  0.103023  0  1.004859  0  0  0.103766  0  1.00441  0  0  0.117768  0.102376  0  1.005366  0
H  H5  1  0.19782331  0.94322231  0.96931594  1  0  0.090759  0  0.94145  0  0  0.103033  0  1.004788  0  0  0.103754  0  1.004362  0  0  0.117769  0.102386  0  1.005295  0
H  H6  1  0.69782372  0.44323545  0.53068716  1  0  0.090809  0  0.941395  0  0  0.103057  0  1.004753  0  0  0.103799  0  1.004301  0  0  0.117756  0.102411  0  1.005258  0
H  H7  1  0.55677496  0.30218279  0.46930994  1  0  0.090896  0  0.941408  0  0  0.103079  0  1.004821  0  0  0.10382  0  1.004376  0  0  0.117792  0.102432  0  1.005327  0
H  H8  1  0.36288245  0.62651162  0.83710217  1  0  0.075736  0  0.933803  0  0  0.086177  0  1.005315  0  0  0.086086  0  1.005917  0  0  0.111204  0.086129  0  1.005039  0
H  H9  1  0.37348858  0.63712100  0.16289761  1  0  0.075713  0  0.933848  0  0  0.086149  0  1.005351  0  0  0.08606  0  1.005951  0  0  0.111157  0.086093  0  1.00507  0
H  H10  1  0.87348434  0.13711873  0.33709918  1  0  0.075656  0  0.933956  0  0  0.086071  0  1.005478  0  0  0.085982  0  1.006076  0  0  0.111176  0.086023  0  1.005202  0
H  H11  1  0.86287933  0.12652632  0.66289150  1  0  0.075754  0  0.933876  0  0  0.086194  0  1.005381  0  0  0.086103  0  1.005984  0  0  0.111214  0.086137  0  1.005099  0
H  H12  1  0.37351682  0.84211676  0.85684149  1  0  0.078789  0  0.915444  0  0  0.092222  0  0.981668  0  0  0.091921  0  0.982431  0  0  0.115356  0.092329  0  0.981256  0
H  H13  1  0.15787812  0.62647919  0.14316391  1  0  0.078839  0  0.915303  0  0  0.092248  0  0.981572  0  0  0.09195  0  0.982336  0  0  0.115341  0.092342  0  0.981152  0
H  H14  1  0.65787659  0.12648113  0.35683667  1  0  0.07886  0  0.915329  0  0  0.092239  0  0.981587  0  0  0.091941  0  0.982348  0  0  0.115339  0.09234  0  0.981172  0
H  H15  1  0.87352387  0.34213184  0.64315896  1  0  0.078775  0  0.915384  0  0  0.092154  0  0.98169  0  0  0.091852  0  0.982454  0  0  0.115329  0.092249  0  0.981271  0
H  H16  1  0.04193507  0.51466378  0.00482756  1  0  0.077186  0  0.918887  0  0  0.089494  0  0.985418  0  0  0.090094  0  0.98483  0  0  0.114698  0.08896  0  0.985975  0
H  H17  1  0.48532781  0.95807096  0.99517653  1  0  0.077269  0  0.919097  0  0  0.089588  0  0.985593  0  0  0.090189  0  0.985001  0  0  0.114755  0.089055  0  0.986151  0
H  H18  1  0.98533313  0.45807337  0.50482175  1  0  0.077214  0  0.919003  0  0  0.089541  0  0.985525  0  0  0.090143  0  0.984933  0  0  0.114707  0.08902  0  0.986085  0
H  H19  1  0.54193432  0.01467226  0.49517593  1  0  0.07716  0  0.918868  0  0  0.089549  0  0.985401  0  0  0.090151  0  0.984807  0  0  0.114724  0.089017  0  0.985955  0
H  H20  1  0.17036350  0.43751583  0.92204613  1  0  0.069755  0  0.976532  0  0  0.078341  0  1.050261  0  0  0.079112  0  1.050016  0  0  0.104896  0.077662  0  1.050622  0
H  H21  1  0.56248161  0.82964774  0.07795367  1  0  0.069822  0  0.97661  0  0  0.078396  0  1.050339  0  0  0.079168  0  1.050096  0  0  0.104924  0.077715  0  1.050702  0
H  H22  1  0.06248286  0.32964605  0.42204206  1  0  0.069767  0  0.976634  0  0  0.078379  0  1.050329  0  0  0.07915  0  1.050084  0  0  0.104934  0.077711  0  1.050697  0
H  H23  1  0.67035949  0.93753113  0.57795169  1  0  0.069768  0  0.97653  0  0  0.078395  0  1.050269  0  0  0.079168  0  1.050026  0  0  0.104914  0.077716  0  1.050626  0
H  H24  1  0.54780441  0.53816237  0.05157111  1  0  0.080446  0  0.909355  0  0  0.092327  0  0.97389  0  0  0.092643  0  0.973826  0  0  0.119973  0.092012  0  0.974006  0
H  H25  1  0.46185279  0.45221535  0.94843192  1  0  0.080419  0  0.909535  0  0  0.092336  0  0.973993  0  0  0.092651  0  0.97393  0  0  0.120014  0.092023  0  0.97411  0
H  H26  1  0.96184549  0.95221395  0.55156173  1  0  0.080491  0  0.909508  0  0  0.092417  0  0.973976  0  0  0.092732  0  0.973912  0  0  0.120031  0.092103  0  0.974092  0
H  H27  1  0.04778615  0.03815582  0.44842786  1  0  0.080378  0  0.909589  0  0  0.092301  0  0.97409  0  0  0.092614  0  0.974027  0  0  0.11998  0.091988  0  0.974207  0
H  H28  1  0.69416299  0.76383511  0.93827484  1  0  0.37604  0  0.938434  0  0  0.333021  0  1.033972  0  0  0.344001  0  1.018785  0  0  0.276087  0.32535  0  1.04454  0
H  H29  1  0.23616853  0.30584215  0.06172141  1  0  0.376042  0  0.938257  0  0  0.332994  0  1.03396  0  0  0.343974  0  1.018773  0  0  0.276102  0.325322  0  1.044529  0
H  H30  1  0.73616412  0.80584475  0.43827715  1  0  0.376101  0  0.938163  0  0  0.333037  0  1.033898  0  0  0.344019  0  1.018708  0  0  0.276114  0.325364  0  1.044469  0
H  H31  1  0.19416440  0.26382890  0.56172113  1  0  0.37623  0  0.938287  0  0  0.33319  0  1.03377  0  0  0.344168  0  1.018586  0  0  0.276175  0.325521  0  1.044336  0
H  H32  1  0.82362566  0.92193134  0.93019865  1  0  0.405894  0  0.844721  0  0  0.382418  0  0.912811  0  0  0.390775  0  0.90346  0  0  0.297731  0.376505  0  0.919417  0
H  H33  1  0.07808011  0.17637732  0.06979850  1  0  0.405936  0  0.845184  0  0  0.382531  0  0.913134  0  0  0.390885  0  0.903783  0  0  0.297825  0.376622  0  0.919736  0
H  H34  1  0.57808411  0.67637823  0.43020235  1  0  0.405952  0  0.845113  0  0  0.382547  0  0.913065  0  0  0.3909  0  0.903712  0  0  0.297832  0.376638  0  0.919667  0
H  H35  1  0.32362676  0.42192415  0.56979884  1  0  0.405986  0  0.844699  0  0  0.382527  0  0.912764  0  0  0.390883  0  0.903411  0  0  0.297778  0.376612  0  0.919374  0
C  C36  1  0.12543558  0.12453788  0.80223773  1  0  0.318762  0  3.994615  0  0  0.297386  0  4.297232  0  0  0.319901  0  4.310259  0  0  0.15028  0.282015  0  4.288165  0
C  C37  1  0.87545450  0.87457487  0.19777950  1  0  0.31863  0  3.994617  0  0  0.297238  0  4.297287  0  0  0.319755  0  4.31031  0  0  0.150224  0.281866  0  4.288221  0
C  C38  1  0.37545214  0.37458204  0.30222166  1  0  0.318705  0  3.995015  0  0  0.297324  0  4.297637  0  0  0.319838  0  4.31066  0  0  0.150231  0.281953  0  4.288572  0
C  C39  1  0.62542359  0.62453232  0.69778481  1  0  0.318508  0  3.994866  0  0  0.297118  0  4.297528  0  0  0.319636  0  4.310551  0  0  0.150084  0.281746  0  4.288462  0
C  C40  1  0.75590936  0.33569099  0.84055152  1  0  0.322774  0  3.981695  0  0  0.303625  0  4.279023  0  0  0.325306  0  4.293312  0  0  0.154602  0.288792  0  4.269119  0
C  C41  1  0.66425269  0.24408222  0.15943892  1  0  0.32265  0  3.981434  0  0  0.303517  0  4.27875  0  0  0.325202  0  4.29303  0  0  0.154562  0.288681  0  4.268851  0
C  C42  1  0.16427800  0.74408552  0.34056212  1  0  0.32261  0  3.98133  0  0  0.303473  0  4.278665  0  0  0.325158  0  4.292948  0  0  0.154559  0.288637  0  4.268766  0
C  C43  1  0.25592683  0.83573098  0.65943876  1  0  0.322614  0  3.981465  0  0  0.303468  0  4.278791  0  0  0.325152  0  4.293075  0  0  0.154507  0.288631  0  4.268892  0
C  C44  1  0.17872599  0.82127553  0.00000828  1  0  0.061558  0  3.585894  0  0  -0.008724  0  3.836957  0  0  -0.001238  0  3.84783  0  0  0.006196  -0.013654  0  3.829317  0
C  C45  1  0.67873046  0.32127909  0.49999143  1  0  0.061494  0  3.585856  0  0  -0.008779  0  3.836836  0  0  -0.00131  0  3.847715  0  0  0.006192  -0.013713  0  3.829213  0
C  C46  1  0.35469738  0.72067367  0.88863296  1  0  0.079595  0  3.608237  0  0  0.002631  0  3.876823  0  0  0.011075  0  3.887393  0  0  0.017993  -0.003052  0  3.869567  0
C  C47  1  0.27934275  0.64530913  0.11136492  1  0  0.079442  0  3.608249  0  0  0.00246  0  3.876751  0  0  0.010891  0  3.887338  0  0  0.017929  -0.003177  0  3.869432  0
C  C48  1  0.77933355  0.14530483  0.38863046  1  0  0.079572  0  3.608138  0  0  0.002715  0  3.876455  0  0  0.011145  0  3.887049  0  0  0.018016  -0.00296  0  3.869184  0
C  C49  1  0.85469758  0.22067198  0.61136303  1  0  0.079493  0  3.608518  0  0  0.00254  0  3.877079  0  0  0.010989  0  3.887628  0  0  0.017936  -0.003098  0  3.869755  0
C  C50  1  0.16379832  0.53232509  0.97330994  1  0  0.067414  0  3.616328  0  0  -0.003528  0  3.871739  0  0  0.004388  0  3.881277  0  0  0.011016  -0.008841  0  3.865186  0
C  C51  1  0.46767335  0.83621962  0.02669939  1  0  0.067096  0  3.617146  0  0  -0.003849  0  3.872409  0  0  0.004063  0  3.881955  0  0  0.010899  -0.009164  0  3.865857  0
C  C52  1  0.96767140  0.33621764  0.47329885  1  0  0.067308  0  3.616738  0  0  -0.003719  0  3.872138  0  0  0.004192  0  3.881687  0  0  0.010948  -0.009088  0  3.865665  0
C  C53  1  0.66379439  0.03233331  0.52669869  1  0  0.067484  0  3.616324  0  0  -0.003698  0  3.871945  0  0  0.004212  0  3.881489  0  0  0.010949  -0.009009  0  3.865392  0
C  C54  1  0.45345100  0.54653315  0.00000279  1  0  0.094942  0  3.577903  0  0  0.028293  0  3.825952  0  0  0.036515  0  3.835331  0  0  0.026826  0.022781  0  3.819481  0
C  C55  1  0.95345968  0.04654030  0.49999401  1  0  0.09486  0  3.578336  0  0  0.028106  0  3.826473  0  0  0.036333  0  3.835848  0  0  0.026686  0.022595  0  3.819998  0
S  S56  1  0.20784773  0.30570023  0.77010409  1  0  -0.345404  0  2.289196  0  0  -0.314705  0  2.640961  0  0  -0.332676  0  2.634018  0  0  -0.135279  -0.302067  0  2.645421  0
S  S57  1  0.69428990  0.79213929  0.22990382  1  0  -0.345222  0  2.289543  0  0  -0.314519  0  2.641324  0  0  -0.332504  0  2.634422  0  0  -0.135208  -0.301882  0  2.64578  0
S  S58  1  0.19429419  0.29215395  0.27009484  1  0  -0.345219  0  2.289663  0  0  -0.314528  0  2.641453  0  0  -0.332498  0  2.634522  0  0  -0.135184  -0.301892  0  2.645913  0
S  S59  1  0.70786709  0.80570465  0.72989827  1  0  -0.345222  0  2.289381  0  0  -0.314523  0  2.641158  0  0  -0.332509  0  2.634248  0  0  -0.135192  -0.301887  0  2.645616  0
S  S60  1  0.63636094  0.16087899  0.83385500  1  0  -0.354037  0  2.157369  0  0  -0.318816  0  2.4839  0  0  -0.335825  0  2.475171  0  0  -0.144456  -0.306939  0  2.489738  0
S  S61  1  0.83911340  0.36366367  0.16613300  1  0  -0.354137  0  2.156494  0  0  -0.318926  0  2.483003  0  0  -0.335933  0  2.474267  0  0  -0.14449  -0.307046  0  2.488841  0
S  S62  1  0.33910859  0.86366016  0.33386489  1  0  -0.35401  0  2.157116  0  0  -0.318802  0  2.483648  0  0  -0.335806  0  2.474915  0  0  -0.14443  -0.306925  0  2.489485  0
S  S63  1  0.13633484  0.66088215  0.66613825  1  0  -0.354036  0  2.156627  0  0  -0.318813  0  2.483144  0  0  -0.335826  0  2.474411  0  0  -0.144394  -0.306933  0  2.488981  0
N  N64  1  0.06224557  0.99402465  0.82570610  1  0  -0.552721  0  2.910327  0  0  -0.494628  0  3.184301  0  0  -0.515965  0  3.191264  0  0  -0.398916  -0.480078  0  3.179481  0
N  N65  1  0.00597470  0.93776498  0.17430558  1  0  -0.552785  0  2.910025  0  0  -0.49467  0  3.18403  0  0  -0.516004  0  3.190992  0  0  -0.398942  -0.480121  0  3.179214  0
N  N66  1  0.50596635  0.43776617  0.32569760  1  0  -0.552829  0  2.910255  0  0  -0.49474  0  3.184281  0  0  -0.516072  0  3.191239  0  0  -0.398948  -0.480191  0  3.179465  0
N  N67  1  0.56222527  0.49402413  0.67430162  1  0  -0.552617  0  2.910274  0  0  -0.494506  0  3.184277  0  0  -0.515842  0  3.191238  0  0  -0.398785  -0.479956  0  3.179458  0
N  N68  1  0.84544744  0.45968187  0.84656463  1  0  -0.52541  0  2.891207  0  0  -0.465535  0  3.162856  0  0  -0.48722  0  3.170763  0  0  -0.388282  -0.450744  0  3.157348  0
N  N69  1  0.54026953  0.15451918  0.15343885  1  0  -0.525199  0  2.892129  0  0  -0.4653  0  3.163747  0  0  -0.486978  0  3.171648  0  0  -0.388159  -0.450512  0  3.158242  0
N  N70  1  0.04027772  0.65453048  0.34657141  1  0  -0.525286  0  2.891303  0  0  -0.46541  0  3.162973  0  0  -0.487091  0  3.170876  0  0  -0.388233  -0.450621  0  3.15747  0
N  N71  1  0.34547998  0.95971636  0.65343647  1  0  -0.525199  0  2.891998  0  0  -0.465313  0  3.163654  0  0  -0.486994  0  3.171557  0  0  -0.388181  -0.450527  0  3.158151  0
N  N72  1  0.18803026  0.69541061  0.92948377  1  0  -0.279009  0  3.190847  0  0  -0.185703  0  3.43305  0  0  -0.205132  0  3.452917  0  0  -0.343037  -0.17221  0  3.419076  0
N  N73  1  0.30459625  0.81198466  0.07051185  1  0  -0.278982  0  3.191372  0  0  -0.185477  0  3.433305  0  0  -0.204907  0  3.453188  0  0  -0.342976  -0.171994  0  3.419317  0
N  N74  1  0.80460195  0.31198734  0.42948438  1  0  -0.278998  0  3.191288  0  0  -0.185555  0  3.433268  0  0  -0.20499  0  3.453168  0  0  -0.343045  -0.172048  0  3.419303  0
N  N75  1  0.68802907  0.19540282  0.57051492  1  0  -0.279075  0  3.191193  0  0  -0.185591  0  3.433206  0  0  -0.205025  0  3.453094  0  0  -0.343047  -0.172109  0  3.41922  0
N  N76  1  0.48177662  0.71037274  0.95740754  1  0  -0.275383  0  3.173619  0  0  -0.190175  0  3.406939  0  0  -0.206586  0  3.423603  0  0  -0.330771  -0.178739  0  3.395283  0
N  N77  1  0.28966176  0.51822625  0.04258658  1  0  -0.275335  0  3.174487  0  0  -0.19012  0  3.407809  0  0  -0.206525  0  3.424475  0  0  -0.330691  -0.178691  0  3.396139  0
N  N78  1  0.78965634  0.01823127  0.45740681  1  0  -0.275496  0  3.174048  0  0  -0.190217  0  3.407411  0  0  -0.206624  0  3.42407  0  0  -0.330666  -0.178777  0  3.39575  0
N  N79  1  0.98177114  0.21034946  0.54258629  1  0  -0.275254  0  3.173932  0  0  -0.189998  0  3.407233  0  0  -0.206405  0  3.423898  0  0  -0.330597  -0.178558  0  3.395576  0
O  O80  1  0.81429455  0.80553685  0.94543069  1  0  -0.783058  0  1.902826  0  0  -0.723438  0  2.111045  0  0  -0.743809  0  2.08459  0  0  -0.582297  -0.708945  0  2.129159  0
O  O81  1  0.19442789  0.18568990  0.05457505  1  0  -0.783043  0  1.902945  0  0  -0.7235  0  2.111283  0  0  -0.743901  0  2.084893  0  0  -0.582417  -0.70901  0  2.129398  0
O  O82  1  0.69443046  0.68569130  0.44542794  1  0  -0.783132  0  1.902821  0  0  -0.72357  0  2.11121  0  0  -0.743973  0  2.084824  0  0  -0.58246  -0.70908  0  2.129328  0
O  O83  1  0.31429064  0.30552687  0.55457443  1  0  -0.783319  0  1.902772  0  0  -0.723737  0  2.110981  0  0  -0.744108  0  2.084528  0  0  -0.582424  -0.709245  0  2.129099  0
