# generated using pymatgen
data_CoH12C4(ClO2)2
_symmetry_space_group_name_H-M   'P 1'
_cell_length_a   6.82974295
_cell_length_b   7.93945314
_cell_length_c   9.09815458
_cell_angle_alpha   90.08318800
_cell_angle_beta   89.93456325
_cell_angle_gamma   115.86785587
_symmetry_Int_Tables_number   1
_chemical_formula_structural   CoH12C4(ClO2)2
_chemical_formula_sum   'Co2 H24 C8 Cl4 O8'
_cell_volume   443.91009456
_cell_formula_units_Z   2
loop_
 _symmetry_equiv_pos_site_id
 _symmetry_equiv_pos_as_xyz
  1  'x, y, z'
loop_
 _atom_site_type_symbol
 _atom_site_label
 _atom_site_symmetry_multiplicity
 _atom_site_fract_x
 _atom_site_fract_y
 _atom_site_fract_z
 _atom_site_occupancy
 _atom_site_hle17_ddec_charge
 _atom_site_hle17_ddec_spin_density
 _atom_site_hle17_ddec_sum_bond_order
 _atom_site_hle17_magmom
 _atom_site_hse06_10hf_ddec_charge
 _atom_site_hse06_10hf_ddec_spin_density
 _atom_site_hse06_10hf_ddec_sum_bond_order
 _atom_site_hse06_10hf_magmom
 _atom_site_hse06_ddec_charge
 _atom_site_hse06_ddec_spin_density
 _atom_site_hse06_ddec_sum_bond_order
 _atom_site_hse06_magmom
 _atom_site_pbe_cm5_charge
 _atom_site_pbe_ddec_charge
 _atom_site_pbe_ddec_spin_density
 _atom_site_pbe_ddec_sum_bond_order
 _atom_site_pbe_magmom
Co  Co0  1  0.99999655  0.49999822  0.50000071  1  1.03246  -2.814235  1.911005  -2.589  1.006907  -2.83672  2.295787  -2.659  1.081123  -2.877686  2.231645  -2.732  0.562312  0.938195  -2.795387  2.352955  -2.587
Co  Co1  1  0.50000238  0.00000056  0.00000309  1  1.031407  -2.813818  1.915167  -2.588  1.005912  -2.835967  2.299855  -2.658  1.080098  -2.87708  2.235677  -2.731  0.562665  0.937093  -2.794626  2.35743  -2.586
H  H2  1  0.50281743  0.50789254  0.71479895  1  0.069258  -0.000609  0.920439  -0.001  0.080168  -0.000484  0.987215  -0.001  0.080744  -0.000273  0.986108  0.0  0.099947  0.079815  -0.000771  0.988143  -0.001
H  H3  1  0.99330007  0.99221863  0.21497118  1  0.0699  -0.000603  0.919963  -0.001  0.081774  -0.000482  0.985638  -0.001  0.082383  -0.000273  0.984491  0.0  0.100552  0.081429  -0.000767  0.98657  -0.001
H  H4  1  0.49716664  0.49209717  0.28520070  1  0.069149  -0.000609  0.920549  -0.001  0.080154  -0.000484  0.987235  -0.001  0.080733  -0.000273  0.986127  0.0  0.099938  0.079803  -0.000772  0.988165  -0.001
H  H5  1  0.00672683  0.00779224  0.78502406  1  0.069872  -0.000602  0.91998  -0.001  0.081791  -0.000483  0.985619  -0.001  0.082405  -0.000273  0.98447  0.0  0.100568  0.081443  -0.000767  0.986544  -0.001
H  H6  1  0.81124383  0.75860793  0.39709082  1  0.085357  8.6e-05  0.932591  0.0  0.098013  -4.6e-05  0.994823  -0.001  0.098121  5.3e-05  0.994382  0.0  0.107061  0.098034  -0.000179  0.995094  -0.001
H  H7  1  0.68924780  0.74294740  0.89489027  1  0.085459  8.1e-05  0.932629  -0.001  0.098016  -5.1e-05  0.995185  -0.001  0.098084  4.9e-05  0.994817  0.0  0.107335  0.09806  -0.000186  0.995424  -0.001
H  H8  1  0.18873813  0.24137757  0.60290772  1  0.085356  8.4e-05  0.932624  0.0  0.097988  -4.6e-05  0.994851  -0.001  0.098094  5.3e-05  0.994406  0.0  0.107039  0.098002  -0.000179  0.995126  -0.001
H  H9  1  0.31077451  0.25707181  0.10510498  1  0.085378  8.1e-05  0.93256  -0.001  0.097943  -5.1e-05  0.995135  -0.001  0.098031  4.9e-05  0.994764  0.0  0.107301  0.097986  -0.000186  0.99537  -0.001
H  H10  1  0.71636114  0.16464340  0.40744471  1  0.404911  -0.00022  0.899891  0.0  0.378082  -0.000809  0.964607  -0.001  0.388935  -0.000529  0.949073  0.0  0.262672  0.369486  -0.000854  0.976869  -0.001
H  H11  1  0.78302767  0.33532341  0.90745779  1  0.404582  -0.000207  0.899116  0.0  0.377931  -0.000797  0.964262  -0.001  0.38879  -0.000518  0.948713  0.0  0.262645  0.369352  -0.000843  0.976507  -0.001
H  H12  1  0.28364833  0.83535900  0.59256262  1  0.404775  -0.000217  0.899768  0.0  0.377882  -0.000808  0.964857  -0.001  0.388737  -0.000528  0.949322  0.0  0.262521  0.369274  -0.000853  0.977138  -0.001
H  H13  1  0.21697147  0.66468174  0.09254295  1  0.404694  -0.000209  0.899205  0.0  0.378108  -0.000798  0.964037  -0.001  0.388964  -0.000519  0.948495  0.0  0.262783  0.369532  -0.000845  0.976281  -0.001
H  H14  1  0.57431518  0.31801878  0.68495287  1  0.079287  0.000244  0.957803  0.0  0.088794  0.000115  1.026825  0.0  0.088698  0.000198  1.027022  0.0  0.100583  0.089037  8e-06  1.026502  -0.001
H  H15  1  0.92440244  0.18319278  0.18382280  1  0.079064  0.00024  0.959636  0.0  0.08911  0.00011  1.02828  0.0  0.089009  0.000195  1.028479  0.0  0.100703  0.089367  2e-06  1.027955  -0.001
H  H16  1  0.42566583  0.68197650  0.31504678  1  0.079203  0.000245  0.957835  0.0  0.088773  0.000115  1.026819  0.0  0.08867  0.000197  1.027029  0.0  0.100603  0.089016  8e-06  1.026497  -0.001
H  H17  1  0.07561769  0.81682503  0.81618344  1  0.079092  0.00024  0.959611  0.0  0.08914  0.000111  1.028269  0.0  0.089036  0.000195  1.028477  0.0  0.100734  0.08938  2e-06  1.027956  -0.001
H  H18  1  0.75060639  0.14629467  0.57814955  1  0.404301  -0.000399  0.898323  0.0  0.378398  -0.000908  0.963107  -0.001  0.389084  -0.00056  0.947717  0.0  0.264685  0.36971  -0.001039  0.975669  -0.001
H  H19  1  0.74891590  0.35438043  0.07813719  1  0.404278  -0.000399  0.898799  0.0  0.378278  -0.000907  0.96331  -0.001  0.388969  -0.00056  0.947932  0.0  0.264742  0.369589  -0.001041  0.975861  -0.001
H  H20  1  0.24938579  0.85369369  0.42186108  1  0.404422  -0.000403  0.898507  0.0  0.378561  -0.000909  0.962943  -0.001  0.389242  -0.000561  0.947557  0.0  0.264792  0.369879  -0.00104  0.975499  -0.001
H  H21  1  0.25107469  0.64561349  0.92186135  1  0.404089  -0.000397  0.898526  0.0  0.378048  -0.000907  0.963522  -0.001  0.388751  -0.000558  0.94813  0.0  0.26459  0.369356  -0.00104  0.976075  -0.001
H  H22  1  0.64353719  0.76779365  0.54625548  1  0.069378  -0.001107  0.946296  -0.001  0.080179  -0.00099  1.01326  -0.001  0.081112  -0.000653  1.011826  -0.001  0.092633  0.079455  -0.001289  1.014648  -0.001
H  H23  1  0.85343065  0.73199312  0.04545968  1  0.070031  -0.001103  0.943587  -0.001  0.080916  -0.000989  1.010581  -0.001  0.081929  -0.000653  1.009005  -0.001  0.093225  0.080132  -0.00129  1.012043  -0.001
H  H24  1  0.35645199  0.23219748  0.45374306  1  0.069434  -0.00111  0.946285  -0.001  0.080198  -0.00099  1.013266  -0.001  0.081128  -0.000654  1.011833  -0.001  0.092639  0.079474  -0.00129  1.014654  -0.001
H  H25  1  0.14658362  0.26802466  0.95453007  1  0.070023  -0.001103  0.943501  -0.001  0.080875  -0.000989  1.010564  -0.001  0.081902  -0.000654  1.008992  -0.001  0.093204  0.080088  -0.00129  1.012023  -0.001
C  C26  1  0.66818310  0.67651070  0.46431970  1  0.054786  -0.001743  3.58982  -0.003  -0.002603  -0.002042  3.851963  -0.003  0.004841  -0.001139  3.85753  -0.002  -0.078887  -0.007948  -0.003048  3.847582  -0.004
C  C27  1  0.83141328  0.82404058  0.96320075  1  0.057117  -0.001801  3.586763  -0.003  -0.001213  -0.0021  3.850718  -0.003  0.0063  -0.00118  3.856088  -0.002  -0.078589  -0.006562  -0.00312  3.846398  -0.004
C  C28  1  0.33180825  0.32348184  0.53568323  1  0.054594  -0.001734  3.590176  -0.002  -0.002718  -0.002043  3.852169  -0.003  0.004738  -0.00114  3.857719  -0.002  -0.07889  -0.008058  -0.003048  3.847786  -0.004
C  C29  1  0.16860635  0.17596745  0.03679010  1  0.05721  -0.001799  3.586552  -0.003  -0.001138  -0.0021  3.850495  -0.003  0.006308  -0.00118  3.855931  -0.002  -0.078563  -0.00647  -0.00312  3.846164  -0.004
C  C30  1  0.53145136  0.42072617  0.63108344  1  0.056509  -0.001623  3.59158  -0.002  -0.003442  -0.001789  3.859062  -0.002  0.004266  -0.000972  3.864727  -0.002  -0.076922  -0.008912  -0.002809  3.854319  -0.004
C  C31  1  0.96710867  0.07978455  0.13070967  1  0.0555  -0.001661  3.594781  -0.002  -0.005624  -0.001826  3.86269  -0.003  0.002072  -0.000993  3.868409  -0.002  -0.077242  -0.011153  -0.002858  3.858004  -0.004
C  C32  1  0.46852837  0.57926073  0.36892059  1  0.056588  -0.001625  3.591547  -0.002  -0.003504  -0.001788  3.859129  -0.002  0.0042  -0.000971  3.864818  -0.002  -0.076938  -0.008974  -0.002808  3.854392  -0.004
C  C33  1  0.03289710  0.92021923  0.86928997  1  0.05549  -0.001662  3.594794  -0.002  -0.005722  -0.001827  3.86282  -0.003  0.001941  -0.000995  3.868549  -0.002  -0.077308  -0.011227  -0.002858  3.858126  -0.004
Cl  Cl34  1  0.95991903  0.53416147  0.23829147  1  -0.5851  -0.032579  0.991641  -0.059  -0.553548  -0.025689  1.249623  -0.038  -0.573515  -0.019087  1.224373  -0.03  -0.249038  -0.535335  -0.032906  1.268943  -0.049
Cl  Cl35  1  0.53985409  0.96643732  0.73809336  1  -0.584501  -0.03249  0.99401  -0.059  -0.552829  -0.02565  1.252198  -0.038  -0.572766  -0.01906  1.226955  -0.03  -0.248428  -0.534574  -0.032877  1.271557  -0.049
Cl  Cl36  1  0.04007366  0.46583666  0.76170927  1  -0.585099  -0.032559  0.991722  -0.059  -0.553448  -0.025678  1.249772  -0.038  -0.573419  -0.019081  1.224515  -0.03  -0.249016  -0.535244  -0.032892  1.269096  -0.049
Cl  Cl37  1  0.46014888  0.03356086  0.26191287  1  -0.584512  -0.032514  0.993885  -0.059  -0.552908  -0.025662  1.251982  -0.038  -0.572845  -0.019067  1.226748  -0.03  -0.248447  -0.534654  -0.032892  1.271339  -0.049
O  O38  1  0.71608112  0.53966337  0.54201886  1  -0.339939  -0.025214  2.388063  -0.046  -0.267259  -0.022904  2.652813  -0.038  -0.294897  -0.017515  2.656862  -0.03  -0.22851  -0.244062  -0.028928  2.647926  -0.048
O  O39  1  0.78387500  0.96179063  0.04034797  1  -0.340676  -0.025592  2.394381  -0.046  -0.26733  -0.023233  2.659654  -0.039  -0.295159  -0.017788  2.663794  -0.03  -0.228651  -0.24398  -0.029302  2.654704  -0.048
O  O40  1  0.28390231  0.46032215  0.45798298  1  -0.339795  -0.025214  2.388196  -0.046  -0.267057  -0.022903  2.652911  -0.038  -0.294703  -0.017514  2.656971  -0.03  -0.228412  -0.24386  -0.028927  2.648017  -0.048
O  O41  1  0.21614610  0.03821741  0.95964837  1  -0.340631  -0.025594  2.394345  -0.046  -0.267246  -0.023233  2.65962  -0.039  -0.295059  -0.017789  2.663806  -0.03  -0.228584  -0.243901  -0.029303  2.654657  -0.048
O  O42  1  0.82581844  0.21350366  0.48776807  1  -0.815915  -0.029692  2.038781  -0.053  -0.781334  -0.026112  2.241365  -0.041  -0.809037  -0.020689  2.20826  -0.033  -0.576627  -0.759517  -0.030479  2.267016  -0.047
O  O43  1  0.67352584  0.28691560  0.98789047  1  -0.815488  -0.029583  2.037301  -0.053  -0.780855  -0.026073  2.239909  -0.041  -0.808557  -0.020669  2.206905  -0.033  -0.576418  -0.759038  -0.030416  2.265477  -0.047
O  O44  1  0.17417714  0.78649725  0.51219420  1  -0.815928  -0.02969  2.038915  -0.053  -0.78134  -0.026112  2.24148  -0.041  -0.809041  -0.020689  2.208381  -0.033  -0.576581  -0.759516  -0.030479  2.267138  -0.047
O  O45  1  0.32646218  0.71309371  0.01214765  1  -0.81537  -0.029582  2.036993  -0.053  -0.780823  -0.026074  2.239958  -0.041  -0.808441  -0.020669  2.206764  -0.033  -0.576421  -0.759004  -0.030417  2.265525  -0.047
