# generated using pymatgen
data_Al4H20C36I5N3O26
_symmetry_space_group_name_H-M   'P 1'
_cell_length_a   6.79238321
_cell_length_b   16.52718210
_cell_length_c   18.49492042
_cell_angle_alpha   106.51939045
_cell_angle_beta   89.76935177
_cell_angle_gamma   90.55006657
_symmetry_Int_Tables_number   1
_chemical_formula_structural   Al4H20C36I5N3O26
_chemical_formula_sum   'Al4 H20 C36 I5 N3 O26'
_cell_volume   1990.42789015
_cell_formula_units_Z   1
loop_
 _symmetry_equiv_pos_site_id
 _symmetry_equiv_pos_as_xyz
  1  'x, y, z'
loop_
 _atom_site_type_symbol
 _atom_site_label
 _atom_site_symmetry_multiplicity
 _atom_site_fract_x
 _atom_site_fract_y
 _atom_site_fract_z
 _atom_site_occupancy
 _atom_site_pbe_bader_charge
 _atom_site_pbe_bader_spin_density
 _atom_site_pbe_cm5_charge
 _atom_site_pbe_ddec_charge
 _atom_site_pbe_ddec_spin_density
 _atom_site_pbe_ddec_sum_bond_order
 _atom_site_pbe_magmom
Al  Al0  1  0.12965534  0.50242017  0.49997945  1  2.503328  0  0.401727  1.638659  0  2.560262  0
Al  Al1  1  0.63184697  0.50394576  0.50228448  1  2.504016  0  0.404492  1.637256  0  2.560473  0
Al  Al2  1  0.64445645  0.00141244  0.99646870  1  2.504442  0  0.404215  1.642109  0  2.549149  0
Al  Al3  1  0.14221874  0.00020720  0.99713025  1  2.504459  0  0.398368  1.649367  0  2.551147  0
H  H4  1  0.65036279  0.85111941  0.75395299  1  0.111249  0  0.105177  0.102643  0  0.962562  0
H  H5  1  0.97092989  0.78136969  0.63989148  1  0.035136  0  0.093221  0.103672  0  0.990345  0
H  H6  1  0.71595383  0.75672800  0.63437724  1  0.064118  0  0.104039  0.117861  0  0.961828  0
H  H7  1  0.61621665  0.76787189  0.84606709  1  0.070283  0  0.096806  0.105082  0  0.985283  0
H  H8  1  0.58468857  0.67511287  0.72295898  1  0.057593  0  0.089465  0.096  0  1.003995  0
H  H9  1  0.17624695  0.77160346  0.84200866  1  0.099603  0  0.096337  0.113088  0  0.994284  0
H  H10  1  0.19011152  0.82511933  0.77264067  1  0.041653  0  0.091202  0.102774  0  0.992218  0
H  H11  1  0.20680238  0.69130021  0.68530414  1  0.113145  0  0.103306  0.099657  0  0.980914  0
H  H12  1  0.82707135  0.71476041  0.86489153  1  0.031803  0  0.091053  0.095347  0  0.982551  0
H  H13  1  0.73951360  0.60879019  0.75613207  1  0.034241  0  0.086586  0.090787  0  1.012014  0
H  H14  1  0.64492787  0.26201080  0.33676370  1  0.096443  0  0.126987  0.098524  0  0.968902  0
H  H15  1  0.67992030  0.16172732  0.21905529  1  0.092012  0  0.09378  0.103988  0  1.0706  0
H  H16  1  0.66823142  0.23799090  0.17193848  1  0.138682  0  0.097081  0.113258  0  1.098983  0
H  H17  1  0.11029850  0.26282705  0.32901160  1  0.131337  0  0.105867  0.133164  0  1.031876  0
H  H18  1  0.31364440  0.22943516  0.37246986  1  0.12626  0  0.116073  0.145479  0  0.967319  0
H  H19  1  0.12202841  0.34193958  0.25726089  1  0.188785  0  0.111006  0.112791  0  1.083933  0
H  H20  1  0.38329165  0.59911548  0.48257935  1  0.6213  0  0.348767  0.42879  0  0.855917  0
H  H21  1  0.87700331  0.40173448  0.44410071  1  0.628236  0  0.335076  0.413369  0  0.900173  0
H  H22  1  0.39332291  0.90400725  0.01365730  1  0.61904  0  0.352458  0.432838  0  0.84751  0
H  H23  1  0.89820191  0.11208820  0.01215138  1  0.639271  0  0.34136  0.426711  0  0.870551  0
C  C24  1  0.37996244  0.39108061  0.38315801  1  1.619515  0  0.267033  0.630777  0  4.05369  0
C  C25  1  0.37602571  0.41733452  0.58505219  1  1.705159  0  0.276384  0.695357  0  4.188947  0
C  C26  1  0.88401356  0.61218186  0.61776578  1  1.577947  0  0.278245  0.651564  0  4.016309  0
C  C27  1  0.88428761  0.59101632  0.41591019  1  1.684247  0  0.272426  0.702677  0  4.173759  0
C  C28  1  0.88453971  0.63876322  0.36193439  1  0.239991  0  -0.001671  -0.13464  0  3.839474  0
C  C29  1  0.88494461  0.68153122  0.31755217  1  -0.321474  0  -0.007847  0.028983  0  4.249184  0
C  C30  1  0.88535162  0.72877062  0.26949471  1  -0.052413  0  0.004275  0.005394  0  4.17916  0
C  C31  1  0.88556884  0.77291303  0.22578286  1  0.02677  0  0.003956  0.001814  0  4.178946  0
C  C32  1  0.88595990  0.82057296  0.17808255  1  -0.143862  0  -0.004424  0.037971  0  4.242211  0
C  C33  1  0.88666385  0.86399035  0.13422533  1  0.065976  0  -0.004826  -0.143048  0  3.84768  0
C  C34  1  0.80722911  0.83734597  0.74418490  1  -0.195578  0  -0.08648  -0.007409  0  3.667984  0
C  C35  1  0.84525860  0.76616467  0.67141958  1  -0.015072  0  -0.155787  -0.206739  0  3.843852  0
C  C36  1  0.75787133  0.74097026  0.82286727  1  -0.028543  0  -0.158304  -0.175598  0  3.840158  0
C  C37  1  0.10262858  0.77847832  0.79159742  1  -0.06359  0  -0.170987  -0.221307  0  3.890975  0
C  C38  1  0.89395242  0.81268214  0.81166482  1  0.055635  0  -0.018759  -0.00138  0  3.805631  0
C  C39  1  0.88915492  0.68242635  0.69167084  1  0.047975  0  -0.017222  -0.003549  0  3.804258  0
C  C40  1  0.72997677  0.67166200  0.74754971  1  -0.038983  0  -0.169227  -0.190996  0  3.897834  0
C  C41  1  0.09362695  0.69494412  0.72830483  1  -0.163644  0  -0.088419  -0.006582  0  3.655605  0
C  C42  1  0.59329485  0.28504378  0.29029687  1  0.231662  0  0.004023  -0.016421  0  3.749394  0
C  C43  1  0.59423064  0.21577332  0.21516386  1  -0.067117  0  -0.184833  -0.254372  0  3.886082  0
C  C44  1  0.27813406  0.34123642  0.24237681  1  -0.195704  0  -0.11317  -0.116778  0  3.664856  0
C  C45  1  0.26453255  0.24405053  0.32113623  1  -0.055717  0  -0.169061  -0.279573  0  3.870845  0
C  C46  1  0.38497786  0.31953635  0.30836732  1  0.030656  0  -0.00791  0.00818  0  3.734662  0
C  C47  1  0.38631954  0.18839634  0.18614047  1  0.012561  0  -0.007386  -0.049496  0  3.718048  0
C  C48  1  0.30247267  0.26958929  0.16763285  1  0.076452  0  0.061777  0.059812  0  3.473334  0
C  C49  1  0.28623441  0.16530380  0.25469352  1  0.02999  0  0.05997  0.085525  0  3.488972  0
C  C50  1  0.37448695  0.36820342  0.63802913  1  0.073141  0  0.001981  -0.134095  0  3.834392  0
C  C51  1  0.37721191  0.32413107  0.68131343  1  -0.146432  0  -0.004694  0.033486  0  4.240828  0
C  C52  1  0.38072405  0.27561500  0.72833712  1  -0.089215  0  0.004213  0.003728  0  4.177599  0
C  C53  1  0.38501707  0.23045258  0.77117229  1  0.071938  0  0.00302  0.000878  0  4.177717  0
C  C54  1  0.38934142  0.18174144  0.81801478  1  -0.289975  0  -0.006066  0.034554  0  4.244523  0
C  C55  1  0.39321572  0.13763667  0.86125775  1  0.207656  0  -0.0016  -0.140274  0  3.846375  0
C  C56  1  0.39439798  0.08711448  0.91299281  1  1.690471  0  0.275241  0.697593  0  4.182931  0
C  C57  1  0.39407723  0.11419478  0.11300994  1  1.65249  0  0.253164  0.612044  0  4.116187  0
C  C58  1  0.88992938  0.91340350  0.08159811  1  1.687704  0  0.268549  0.691489  0  4.198517  0
C  C59  1  0.89200196  0.88656725  0.88313040  1  1.581657  0  0.268425  0.638094  0  4.04611  0
I  I60  1  0.17534326  0.58749783  0.76984490  1  -0.016252  0  0.035959  -0.089778  0  1.321654  0
I  I61  1  0.30101484  0.47037373  0.23731035  1  0.123651  0  0.076864  0.011134  0  1.467369  0
I  I62  1  0.48183388  0.29933825  0.07946440  1  0.181488  0  0.128998  0.034216  0  1.57751  0
I  I63  1  0.92396911  0.95723803  0.73309354  1  -0.001016  0  0.022664  -0.094872  0  1.256734  0
I  I64  1  0.01899116  0.08798345  0.24548182  1  0.18945  0  0.155631  0.065265  0  1.57569  0
N  N65  1  0.74377198  0.35142187  0.28670019  1  0.438002  0  0.043192  0.532564  0  4.127755  0
N  N66  1  0.43476273  0.10102696  0.27523823  1  0.496389  0  0.038732  0.464256  0  4.173971  0
N  N67  1  0.09446534  0.24812730  0.13152937  1  0.490184  0  0.050744  0.499757  0  4.133942  0
O  O68  1  0.54497329  0.43620214  0.56423374  1  -1.230074  0  -0.219926  -0.560486  0  2.286298  0
O  O69  1  0.21277728  0.41429222  0.41115537  1  -1.254795  0  -0.225493  -0.5615  0  2.39943  0
O  O70  1  0.05279987  0.57163741  0.43570498  1  -1.231202  0  -0.228618  -0.591776  0  2.318653  0
O  O71  1  0.20934060  0.43561244  0.56317979  1  -1.230547  0  -0.220615  -0.569628  0  2.313472  0
O  O72  1  0.04797607  0.58751551  0.58637987  1  -1.267457  0  -0.228982  -0.587941  0  2.392337  0
O  O73  1  0.54641653  0.41695744  0.41180067  1  -1.247236  0  -0.229732  -0.588624  0  2.415702  0
O  O74  1  0.38177001  0.55359412  0.50620104  1  -1.424443  0  -0.448675  -0.979077  0  2.136193  0
O  O75  1  0.71507925  0.58649918  0.59100097  1  -1.264986  0  -0.229004  -0.578086  0  2.338158  0
O  O76  1  0.71546847  0.57435627  0.43896325  1  -1.23176  0  -0.229981  -0.587033  0  2.285491  0
O  O77  1  0.87880041  0.45133386  0.48793524  1  -1.429791  0  -0.450159  -0.974883  0  2.137728  0
O  O78  1  0.22652509  0.08788856  0.08600079  1  -1.254205  0  -0.235211  -0.59416  0  2.462936  0
O  O79  1  0.56247508  0.06857374  0.93374702  1  -1.237946  0  -0.2227  -0.578809  0  2.315821  0
O  O80  1  0.72434367  0.91478781  0.90874478  1  -1.267666  0  -0.233606  -0.590045  0  2.355098  0
O  O81  1  0.56179339  0.09002268  0.08618606  1  -1.24434  0  -0.225522  -0.557358  0  2.39875  0
O  O82  1  0.72312932  0.93291266  0.06043248  1  -1.220252  0  -0.223781  -0.570094  0  2.29032  0
O  O83  1  0.22668607  0.06647616  0.93342815  1  -1.229085  0  -0.220629  -0.57109  0  2.315097  0
O  O84  1  0.39314978  0.95102871  0.99192801  1  -1.421264  0  -0.447996  -0.975379  0  2.133843  0
O  O85  1  0.05959666  0.93205511  0.06117576  1  -1.229447  0  -0.226257  -0.58349  0  2.320169  0
O  O86  1  0.05801654  0.91268122  0.91235573  1  -1.265232  0  -0.229439  -0.584169  0  2.389022  0
O  O87  1  0.89462195  0.05188433  0.00694799  1  -1.441091  0  -0.449578  -0.983962  0  2.162427  0
O  O88  1  0.72004175  0.39206977  0.24116578  1  -0.44901  0  -0.112696  -0.3146  0  2.074136  0
O  O89  1  0.88965958  0.35838900  0.32845444  1  -0.505562  0  -0.116553  -0.331354  0  2.123296  0
O  O90  1  0.49764362  0.11756008  0.34023605  1  -0.443653  0  -0.114527  -0.296631  0  1.956801  0
O  O91  1  0.47773557  0.03824910  0.22335165  1  -0.441959  0  -0.107095  -0.284693  0  1.993886  0
O  O92  1  0.06423379  0.24050609  0.06461422  1  -0.418048  0  -0.094762  -0.281318  0  2.026986  0
O  O93  1  0.97081978  0.23737986  0.17693020  1  -0.479558  0  -0.099704  -0.287238  0  2.184097  0
