# generated using pymatgen
data_MnH8(C5O3)2
_symmetry_space_group_name_H-M   'P 1'
_cell_length_a   7.61502637
_cell_length_b   8.26291819
_cell_length_c   9.42499260
_cell_angle_alpha   115.94361802
_cell_angle_beta   98.77984121
_cell_angle_gamma   89.99677173
_symmetry_Int_Tables_number   1
_chemical_formula_structural   MnH8(C5O3)2
_chemical_formula_sum   'Mn2 H16 C20 O12'
_cell_volume   525.54238444
_cell_formula_units_Z   2
loop_
 _symmetry_equiv_pos_site_id
 _symmetry_equiv_pos_as_xyz
  1  'x, y, z'
loop_
 _atom_site_type_symbol
 _atom_site_label
 _atom_site_symmetry_multiplicity
 _atom_site_fract_x
 _atom_site_fract_y
 _atom_site_fract_z
 _atom_site_occupancy
 _atom_site_pbe_bader_charge
 _atom_site_pbe_bader_spin_density
 _atom_site_pbe_cm5_charge
 _atom_site_pbe_ddec_charge
 _atom_site_pbe_ddec_spin_density
 _atom_site_pbe_ddec_sum_bond_order
 _atom_site_pbe_magmom
Mn  Mn0  1  0.75011052  0.07071535  0.99988531  1  1.528736  4.520816  0.630276  1.026888  4.649425  2.297117  4.433
Mn  Mn1  1  0.24988661  0.92928536  0.00011252  1  1.528727  4.520815  0.630262  1.026851  4.649419  2.29715  4.433
H  H2  1  0.21550097  0.86863196  0.51339137  1  0.120176  0.000593  0.109123  0.12463  -4.8e-05  1.039404  0.0
H  H3  1  0.28424518  0.35487669  0.48680266  1  0.110533  0.000598  0.108766  0.124607  -4.9e-05  1.038819  0.0
H  H4  1  0.78449748  0.13136876  0.48660663  1  0.120377  0.000593  0.109127  0.124629  -4.8e-05  1.039397  0.0
H  H5  1  0.71575992  0.64512401  0.51319721  1  0.110609  0.000598  0.108737  0.124579  -4.9e-05  1.038898  0.0
H  H6  1  0.12410601  0.63530259  0.27841247  1  0.044305  0.000425  0.093733  0.093192  0.000105  1.035954  0.0
H  H7  1  0.37654515  0.35768321  0.72228674  1  0.047399  0.000427  0.093566  0.092807  0.000105  1.036808  0.0
H  H8  1  0.87589204  0.36469273  0.72158339  1  0.044225  0.000425  0.093712  0.093122  0.000105  1.035986  0.0
H  H9  1  0.62346035  0.64232290  0.27771421  1  0.047326  0.000427  0.093611  0.092857  0.000105  1.036801  0.0
H  H10  1  0.02878737  0.65881294  0.10185991  1  0.090831  0.000156  0.112038  0.129467  -0.000592  0.997505  0.0
H  H11  1  0.47191415  0.55797096  0.89824897  1  0.089183  0.000159  0.112015  0.129048  -0.000595  0.998346  0.0
H  H12  1  0.97121344  0.34118373  0.89813576  1  0.09012  0.000157  0.111984  0.129388  -0.000592  0.99758  0.0
H  H13  1  0.52809258  0.44203379  0.10175372  1  0.089253  0.000159  0.111998  0.128938  -0.000595  0.998487  0.0
H  H14  1  0.01524755  0.83556494  0.29511764  1  0.059467  0.000218  0.101924  0.110784  -0.000215  0.985327  0.0
H  H15  1  0.48497839  0.54074357  0.70457907  1  0.068838  0.000217  0.101668  0.110293  -0.000212  0.984449  0.0
H  H16  1  0.98475050  0.16443037  0.70487822  1  0.05966  0.000218  0.101903  0.11074  -0.000215  0.985341  0.0
H  H17  1  0.51502302  0.45926119  0.29542297  1  0.06894  0.000216  0.101665  0.110287  -0.000212  0.984448  0.0
C  C18  1  0.54268316  0.97728653  0.35189586  1  0.019124  0.007463  -0.019042  -0.11749  0.004935  3.974008  0.003
C  C19  1  0.95766189  0.62583673  0.64801074  1  -0.014255  0.007472  -0.018751  -0.116089  0.004919  3.973851  0.003
C  C20  1  0.45731540  0.02271553  0.64810372  1  0.019124  0.007464  -0.019104  -0.117585  0.004935  3.974098  0.003
C  C21  1  0.04234188  0.37416397  0.35199003  1  -0.013964  0.007471  -0.018777  -0.116136  0.004919  3.973848  0.003
C  C22  1  0.37768958  0.90171688  0.35647738  1  0.423154  0.006341  0.087801  0.22727  0.004594  4.028071  0.004
C  C23  1  0.12247179  0.54538463  0.64353354  1  0.418811  0.006349  0.088181  0.227508  0.004586  4.028708  0.004
C  C24  1  0.62231011  0.09828248  0.64351919  1  0.423104  0.006342  0.087808  0.227253  0.004595  4.02804  0.004
C  C25  1  0.87752932  0.45461608  0.35646478  1  0.418567  0.006349  0.088176  0.227503  0.004586  4.02865  0.004
C  C26  1  0.33934971  0.92581125  0.50418740  1  0.010707  0.006084  -0.101705  -0.218555  0.004493  3.983979  0.003
C  C27  1  0.16039381  0.42127275  0.49593591  1  0.053691  0.006076  -0.101241  -0.219339  0.004508  3.983726  0.003
C  C28  1  0.66064609  0.07418947  0.49580815  1  0.010528  0.006084  -0.101724  -0.218561  0.004493  3.984003  0.003
C  C29  1  0.83960995  0.57872796  0.50406486  1  0.053627  0.006076  -0.101221  -0.219297  0.004508  3.98375  0.003
C  C30  1  0.59876674  0.96280021  0.20232804  1  1.560841  0.031946  0.22436  0.598132  0.032567  4.142546  0.026
C  C31  1  0.90138796  0.76077208  0.79740587  1  1.55187  0.032123  0.223828  0.598204  0.032553  4.144515  0.026
C  C32  1  0.40123161  0.03719916  0.79766942  1  1.560889  0.031941  0.224407  0.598184  0.032565  4.142646  0.026
C  C33  1  0.09861581  0.23922863  0.20259490  1  1.551876  0.032125  0.223868  0.598258  0.032554  4.144397  0.026
C  C34  1  0.09745514  0.72957832  0.22558584  1  0.381908  0.001045  -0.137352  -0.168233  0.00046  3.845964  0.001
C  C35  1  0.40303918  0.50463579  0.77455357  1  0.370508  0.001049  -0.137146  -0.167014  0.000457  3.845799  0.001
C  C36  1  0.90254302  0.27041834  0.77441162  1  0.38254  0.001044  -0.13725  -0.168033  0.00046  3.84597  0.001
C  C37  1  0.59696499  0.49537031  0.22545039  1  0.370406  0.001049  -0.137189  -0.166955  0.000457  3.845974  0.001
O  O38  1  0.74612740  0.04469372  0.21349760  1  -1.181843  0.083008  -0.305018  -0.547953  0.057528  2.279406  0.043
O  O39  1  0.75419524  0.83170345  0.78607821  1  -1.180359  0.082953  -0.304742  -0.54786  0.057445  2.28009  0.043
O  O40  1  0.25387105  0.95530700  0.78649828  1  -1.181871  0.083009  -0.305022  -0.547923  0.057526  2.27938  0.043
O  O41  1  0.24580689  0.16829320  0.21392080  1  -1.180408  0.082952  -0.304767  -0.547887  0.057444  2.280062  0.043
O  O42  1  0.50014977  0.87139727  0.06578863  1  -1.210483  0.08145  -0.313127  -0.58497  0.056451  2.403663  0.031
O  O43  1  0.99972486  0.80552779  0.93407840  1  -1.20113  0.081383  -0.313276  -0.585615  0.056463  2.403816  0.031
O  O44  1  0.49984736  0.12860344  0.93420920  1  -1.21047  0.081458  -0.313133  -0.584999  0.056453  2.403719  0.031
O  O45  1  0.00027369  0.19447427  0.06592331  1  -1.201024  0.081381  -0.313282  -0.585621  0.056461  2.403768  0.031
O  O46  1  0.26213062  0.80687453  0.21633068  1  -1.08169  0.020893  -0.167882  -0.159702  0.015073  2.632338  0.009
O  O47  1  0.23825630  0.59100339  0.78366487  1  -1.08039  0.020756  -0.167965  -0.159957  0.015047  2.632264  0.009
O  O48  1  0.73787151  0.19312212  0.78366833  1  -1.081701  0.020895  -0.167886  -0.159697  0.015074  2.632349  0.009
O  O49  1  0.76174502  0.40900002  0.21633664  1  -1.080395  0.020757  -0.167936  -0.159949  0.015046  2.632309  0.009
