# generated using pymatgen
data_HgH14C22N6(OF)2
_symmetry_space_group_name_H-M   'P 1'
_cell_length_a   8.25588761
_cell_length_b   10.37314207
_cell_length_c   12.10000189
_cell_angle_alpha   104.75061838
_cell_angle_beta   89.99929617
_cell_angle_gamma   90.00015264
_symmetry_Int_Tables_number   1
_chemical_formula_structural   HgH14C22N6(OF)2
_chemical_formula_sum   'Hg2 H28 C44 N12 O4 F4'
_cell_volume   1002.08695151
_cell_formula_units_Z   2
loop_
 _symmetry_equiv_pos_site_id
 _symmetry_equiv_pos_as_xyz
  1  'x, y, z'
loop_
 _atom_site_type_symbol
 _atom_site_label
 _atom_site_symmetry_multiplicity
 _atom_site_fract_x
 _atom_site_fract_y
 _atom_site_fract_z
 _atom_site_occupancy
 _atom_site_hle17_bader_spin_density
 _atom_site_hle17_ddec_charge
 _atom_site_hle17_ddec_spin_density
 _atom_site_hle17_ddec_sum_bond_order
 _atom_site_hle17_magmom
 _atom_site_hse06_10hf_bader_spin_density
 _atom_site_hse06_10hf_ddec_charge
 _atom_site_hse06_10hf_ddec_spin_density
 _atom_site_hse06_10hf_ddec_sum_bond_order
 _atom_site_hse06_10hf_magmom
 _atom_site_hse06_bader_spin_density
 _atom_site_hse06_ddec_charge
 _atom_site_hse06_ddec_spin_density
 _atom_site_hse06_ddec_sum_bond_order
 _atom_site_hse06_magmom
 _atom_site_pbe_bader_spin_density
 _atom_site_pbe_cm5_charge
 _atom_site_pbe_ddec_charge
 _atom_site_pbe_ddec_spin_density
 _atom_site_pbe_ddec_sum_bond_order
 _atom_site_pbe_magmom
Hg  Hg0  1  0.00000043  0.99999891  0.00000023  1  0  0.860048  0  1.973481  0  0  0.674037  0  2.446459  0  0  0.72533  0  2.412549  0  0  0.697339  0.636127  0  2.471282  0
Hg  Hg1  1  0.49999998  0.49999982  0.99999995  1  0  0.860062  0  1.973469  0  0  0.674058  0  2.446425  0  0  0.725348  0  2.412516  0  0  0.697344  0.636147  0  2.471245  0
H  H2  1  0.03141078  0.94627330  0.66939750  1  0  0.083516  0  0.948625  0  0  0.090327  0  1.014273  0  0  0.092581  0  1.014103  0  0  0.114606  0.088541  0  1.014883  0
H  H3  1  0.53141025  0.55372841  0.33060305  1  0  0.083491  0  0.94865  0  0  0.090313  0  1.01429  0  0  0.092568  0  1.014119  0  0  0.114593  0.088527  0  1.014899  0
H  H4  1  0.96858835  0.05372538  0.33060154  1  0  0.08346  0  0.948661  0  0  0.090286  0  1.014282  0  0  0.09254  0  1.014113  0  0  0.114587  0.0885  0  1.014893  0
H  H5  1  0.46858887  0.44627226  0.66939643  1  0  0.08349  0  0.948629  0  0  0.09031  0  1.014279  0  0  0.092564  0  1.01411  0  0  0.114601  0.088524  0  1.014889  0
H  H6  1  0.11060490  0.09651599  0.54258310  1  0  0.073717  0  0.943593  0  0  0.083511  0  1.006096  0  0  0.085819  0  1.005409  0  0  0.112884  0.081819  0  1.006679  0
H  H7  1  0.61060206  0.40348678  0.45741819  1  0  0.0737  0  0.943554  0  0  0.083511  0  1.006053  0  0  0.085821  0  1.005363  0  0  0.112885  0.081818  0  1.006635  0
H  H8  1  0.88939423  0.90348569  0.45741907  1  0  0.073689  0  0.943619  0  0  0.083498  0  1.006097  0  0  0.085807  0  1.005408  0  0  0.112895  0.081806  0  1.006679  0
H  H9  1  0.38939585  0.59651489  0.54258233  1  0  0.073684  0  0.943626  0  0  0.083492  0  1.006115  0  0  0.0858  0  1.005427  0  0  0.11288  0.081799  0  1.006697  0
H  H10  1  0.21168101  0.40128494  0.83083683  1  0  0.093312  0  0.967158  0  0  0.090974  0  1.046204  0  0  0.095242  0  1.041829  0  0  0.1111  0.087625  0  1.050016  0
H  H11  1  0.71167017  0.09871579  0.16916152  1  0  0.093302  0  0.967159  0  0  0.09096  0  1.046198  0  0  0.095226  0  1.041826  0  0  0.111105  0.08761  0  1.05001  0
H  H12  1  0.78831933  0.59871574  0.16916430  1  0  0.093322  0  0.96716  0  0  0.090986  0  1.046196  0  0  0.095253  0  1.041823  0  0  0.111101  0.087637  0  1.050008  0
H  H13  1  0.28833017  0.90128389  0.83083940  1  0  0.093329  0  0.967188  0  0  0.09098  0  1.046212  0  0  0.095247  0  1.041841  0  0  0.111116  0.087631  0  1.050024  0
H  H14  1  0.99349303  0.47355484  0.40521897  1  0  0.110199  0  0.962352  0  0  0.122886  0  1.023423  0  0  0.125442  0  1.022315  0  0  0.10365  0.121054  0  1.024333  0
H  H15  1  0.49350076  0.02645077  0.59478050  1  0  0.110136  0  0.962456  0  0  0.122828  0  1.023511  0  0  0.125384  0  1.022406  0  0  0.1036  0.120997  0  1.024421  0
H  H16  1  0.00650731  0.52644583  0.59478050  1  0  0.110192  0  0.962346  0  0  0.122881  0  1.023412  0  0  0.125437  0  1.022304  0  0  0.103656  0.12105  0  1.024322  0
H  H17  1  0.50649836  0.97354891  0.40521876  1  0  0.110128  0  0.962476  0  0  0.122821  0  1.023528  0  0  0.125376  0  1.022422  0  0  0.103602  0.120989  0  1.02444  0
H  H18  1  0.17562949  0.34713345  0.51103709  1  0  0.08499  0  0.99661  0  0  0.08495  0  1.076035  0  0  0.08908  0  1.072827  0  0  0.091455  0.082047  0  1.078259  0
H  H19  1  0.67563981  0.15287328  0.48896285  1  0  0.084997  0  0.996618  0  0  0.084984  0  1.076026  0  0  0.089113  0  1.072818  0  0  0.091453  0.08208  0  1.078249  0
H  H20  1  0.82436964  0.65286822  0.48896260  1  0  0.084999  0  0.996614  0  0  0.084968  0  1.076021  0  0  0.089099  0  1.072811  0  0  0.091464  0.082066  0  1.078246  0
H  H21  1  0.32435932  0.84712640  0.51103558  1  0  0.085021  0  0.996628  0  0  0.085017  0  1.076025  0  0  0.089148  0  1.072813  0  0  0.091458  0.082112  0  1.078247  0
H  H22  1  0.33186048  0.15317587  0.39976207  1  0  0.0851  0  0.965121  0  0  0.096575  0  1.027095  0  0  0.098665  0  1.027046  0  0  0.094814  0.094977  0  1.027383  0
H  H23  1  0.83186946  0.34683080  0.60023818  1  0  0.085148  0  0.965082  0  0  0.096678  0  1.026961  0  0  0.098757  0  1.026942  0  0  0.094826  0.095074  0  1.027259  0
H  H24  1  0.66813744  0.84682481  0.60023823  1  0  0.085052  0  0.965109  0  0  0.096554  0  1.027048  0  0  0.098635  0  1.027024  0  0  0.094815  0.094954  0  1.027338  0
H  H25  1  0.16812967  0.65316987  0.39976047  1  0  0.085085  0  0.965128  0  0  0.096628  0  1.027003  0  0  0.098706  0  1.026986  0  0  0.094813  0.095026  0  1.027298  0
H  H26  1  0.30125257  0.07708986  0.18720796  1  0  0.126877  0  0.953963  0  0  0.131399  0  1.021425  0  0  0.135593  0  1.018356  0  0  0.103959  0.128288  0  1.023843  0
H  H27  1  0.80125440  0.42291384  0.81279357  1  0  0.12689  0  0.953879  0  0  0.131393  0  1.021366  0  0  0.135587  0  1.018297  0  0  0.103954  0.128279  0  1.023786  0
H  H28  1  0.69874898  0.92291082  0.81279235  1  0  0.126916  0  0.953909  0  0  0.131409  0  1.021412  0  0  0.135603  0  1.018342  0  0  0.103967  0.128298  0  1.023828  0
H  H29  1  0.19874594  0.57708583  0.18720486  1  0  0.126909  0  0.95383  0  0  0.13144  0  1.021289  0  0  0.135636  0  1.018216  0  0  0.10397  0.128312  0  1.023726  0
C  C30  1  0.07170144  0.04868394  0.70521296  1  0  0.08394  0  3.694264  0  0  0.058362  0  3.950239  0  0  0.060191  0  3.968146  0  0  0.054767  0.056878  0  3.938313  0
C  C31  1  0.57170044  0.45131684  0.29478658  1  0  0.083956  0  3.6943  0  0  0.058362  0  3.950276  0  0  0.060192  0  3.968178  0  0  0.054775  0.056878  0  3.938349  0
C  C32  1  0.92829890  0.95131474  0.29478609  1  0  0.083974  0  3.694324  0  0  0.058397  0  3.950293  0  0  0.060227  0  3.968198  0  0  0.054799  0.056912  0  3.938368  0
C  C33  1  0.42829990  0.54868383  0.70521289  1  0  0.083976  0  3.694297  0  0  0.058376  0  3.950278  0  0  0.060205  0  3.968185  0  0  0.054769  0.056892  0  3.93835  0
C  C34  1  0.11534620  0.13180551  0.63569538  1  0  0.065644  0  3.717121  0  0  0.044204  0  3.972025  0  0  0.046244  0  3.989562  0  0  0.050566  0.042971  0  3.959928  0
C  C35  1  0.61534369  0.36819626  0.36430483  1  0  0.065623  0  3.717082  0  0  0.044169  0  3.971971  0  0  0.046207  0  3.989508  0  0  0.050537  0.042937  0  3.959874  0
C  C36  1  0.88465172  0.86819517  0.36430575  1  0  0.06566  0  3.717144  0  0  0.04421  0  3.97205  0  0  0.046253  0  3.989582  0  0  0.05054  0.042977  0  3.959953  0
C  C37  1  0.38465544  0.63180441  0.63569464  1  0  0.065667  0  3.717137  0  0  0.044216  0  3.972046  0  0  0.046256  0  3.98958  0  0  0.05056  0.042984  0  3.959947  0
C  C38  1  0.17210336  0.29947297  0.79331435  1  0  0.077195  0  3.654876  0  0  0.041159  0  3.921571  0  0  0.044833  0  3.935886  0  0  0.056997  0.038544  0  3.912538  0
C  C39  1  0.67209946  0.20052877  0.20668455  1  0  0.077246  0  3.654799  0  0  0.041225  0  3.921499  0  0  0.0449  0  3.935816  0  0  0.057028  0.038608  0  3.912473  0
C  C40  1  0.82789698  0.70052671  0.20668574  1  0  0.077143  0  3.654898  0  0  0.041109  0  3.921597  0  0  0.044786  0  3.935911  0  0  0.056973  0.038494  0  3.912565  0
C  C41  1  0.32790088  0.79947191  0.79331575  1  0  0.077134  0  3.65494  0  0  0.04116  0  3.921581  0  0  0.044835  0  3.935898  0  0  0.057001  0.038542  0  3.912556  0
C  C42  1  0.13062674  0.21649259  0.86423342  1  0  0.088122  0  3.705554  0  0  0.092612  0  3.950867  0  0  0.091786  0  3.968024  0  0  0.123914  0.092811  0  3.939344  0
C  C43  1  0.63062679  0.28351017  0.13576687  1  0  0.088139  0  3.705433  0  0  0.092606  0  3.95077  0  0  0.091774  0  3.967928  0  0  0.123883  0.092805  0  3.939248  0
C  C44  1  0.86937239  0.78350609  0.13576645  1  0  0.088159  0  3.705447  0  0  0.092644  0  3.950761  0  0  0.091815  0  3.967918  0  0  0.123939  0.092844  0  3.939236  0
C  C45  1  0.36937355  0.71649151  0.86423447  1  0  0.088189  0  3.705526  0  0  0.09264  0  3.950852  0  0  0.091809  0  3.96801  0  0  0.123897  0.092838  0  3.939329  0
C  C46  1  0.15271781  0.26885705  0.99157686  1  0  0.505842  0  3.872776  0  0  0.455038  0  4.162501  0  0  0.486907  0  4.161182  0  0  0.223793  0.433276  0  4.162717  0
C  C47  1  0.65272237  0.23114570  0.00842242  1  0  0.505925  0  3.872715  0  0  0.455108  0  4.162453  0  0  0.486979  0  4.16113  0  0  0.223808  0.433344  0  4.16267  0
C  C48  1  0.84728132  0.73114363  0.00842344  1  0  0.50592  0  3.872701  0  0  0.455114  0  4.162414  0  0  0.486984  0  4.161092  0  0  0.223826  0.43335  0  4.16263  0
C  C49  1  0.34727918  0.76885498  0.99157706  1  0  0.505879  0  3.872747  0  0  0.455067  0  4.162476  0  0  0.48694  0  4.161153  0  0  0.223779  0.433306  0  4.162691  0
C  C50  1  0.13667097  0.23383896  0.17792982  1  0  0.133785  0  3.836765  0  0  0.123033  0  4.088976  0  0  0.128727  0  4.112162  0  0  0.073448  0.119017  0  4.073312  0
C  C51  1  0.63667454  0.26616081  0.82206978  1  0  0.133872  0  3.836737  0  0  0.123086  0  4.088978  0  0  0.128777  0  4.112163  0  0  0.073436  0.119071  0  4.073309  0
C  C52  1  0.86332937  0.76615773  0.82206962  1  0  0.133885  0  3.836683  0  0  0.123134  0  4.088883  0  0  0.128827  0  4.11207  0  0  0.073483  0.119117  0  4.073213  0
C  C53  1  0.36332701  0.73383987  0.17793053  1  0  0.133801  0  3.836747  0  0  0.122993  0  4.089032  0  0  0.128686  0  4.112219  0  0  0.073421  0.118978  0  4.07336  0
C  C54  1  0.05361712  0.34551814  0.24269055  1  0  0.23371  0  3.756258  0  0  0.215455  0  4.037589  0  0  0.223503  0  4.049424  0  0  0.093789  0.209717  0  4.029755  0
C  C55  1  0.55362269  0.15448166  0.75731059  1  0  0.233593  0  3.756256  0  0  0.215377  0  4.037553  0  0  0.223425  0  4.049388  0  0  0.093811  0.209637  0  4.02972  0
C  C56  1  0.94638322  0.65447954  0.75730911  1  0  0.233616  0  3.756237  0  0  0.21536  0  4.037582  0  0  0.223409  0  4.049415  0  0  0.093768  0.209622  0  4.029745  0
C  C57  1  0.44637886  0.84551902  0.24268971  1  0  0.233624  0  3.756216  0  0  0.215406  0  4.03753  0  0  0.223455  0  4.049367  0  0  0.093801  0.209667  0  4.029698  0
C  C58  1  0.06518365  0.38782682  0.36073429  1  0  -0.192982  0  3.808604  0  0  -0.218022  0  4.063366  0  0  -0.222429  0  4.085081  0  0  -0.110625  -0.214709  0  4.04857  0
C  C59  1  0.56519238  0.11217796  0.63926700  1  0  -0.192767  0  3.808593  0  0  -0.217788  0  4.06332  0  0  -0.222194  0  4.085036  0  0  -0.110521  -0.214477  0  4.048524  0
C  C60  1  0.93481669  0.61217385  0.63926518  1  0  -0.192902  0  3.808526  0  0  -0.217935  0  4.063288  0  0  -0.22234  0  4.085001  0  0  -0.110598  -0.214622  0  4.048491  0
C  C61  1  0.43480796  0.88782272  0.36073331  1  0  -0.192734  0  3.808611  0  0  -0.217748  0  4.063335  0  0  -0.222155  0  4.085055  0  0  -0.110509  -0.214438  0  4.048539  0
C  C62  1  0.16580092  0.31792070  0.41797050  1  0  -0.080317  0  3.807236  0  0  -0.090268  0  4.060221  0  0  -0.093042  0  4.082669  0  0  -0.104903  -0.088335  0  4.044789  0
C  C63  1  0.66581089  0.18208702  0.58202974  1  0  -0.080572  0  3.807681  0  0  -0.090606  0  4.060754  0  0  -0.093381  0  4.083205  0  0  -0.105057  -0.08867  0  4.045318  0
C  C64  1  0.83419821  0.68208097  0.58202919  1  0  -0.080355  0  3.807219  0  0  -0.090325  0  4.060231  0  0  -0.093098  0  4.082678  0  0  -0.104923  -0.088393  0  4.044799  0
C  C65  1  0.33418945  0.81791365  0.41796974  1  0  -0.080618  0  3.807717  0  0  -0.090661  0  4.060789  0  0  -0.093437  0  4.083239  0  0  -0.105059  -0.088723  0  4.045351  0
C  C66  1  0.25216874  0.20717200  0.35545572  1  0  -0.084385  0  3.807432  0  0  -0.101838  0  4.061404  0  0  -0.1043  0  4.085018  0  0  -0.105954  -0.099952  0  4.045367  0
C  C67  1  0.75217676  0.29283370  0.64454418  1  0  -0.084368  0  3.807628  0  0  -0.101809  0  4.061566  0  0  -0.104274  0  4.085177  0  0  -0.105905  -0.099921  0  4.045522  0
C  C68  1  0.74783160  0.79282867  0.64454459  1  0  -0.08439  0  3.807299  0  0  -0.101848  0  4.061279  0  0  -0.104314  0  4.08489  0  0  -0.105985  -0.099962  0  4.045241  0
C  C69  1  0.24782237  0.70716697  0.35545447  1  0  -0.084317  0  3.807571  0  0  -0.101778  0  4.061535  0  0  -0.104243  0  4.085147  0  0  -0.105917  -0.09989  0  4.045486  0
C  C70  1  0.23739239  0.16496550  0.23682491  1  0  -0.130096  0  3.701774  0  0  -0.150998  0  3.958048  0  0  -0.154163  0  3.97803  0  0  -0.094747  -0.148883  0  3.94474  0
C  C71  1  0.73739845  0.33503822  0.76317634  1  0  -0.130062  0  3.701527  0  0  -0.150943  0  3.957815  0  0  -0.154108  0  3.977796  0  0  -0.094722  -0.148826  0  3.944503  0
C  C72  1  0.76260795  0.83503418  0.76317601  1  0  -0.130109  0  3.701652  0  0  -0.150967  0  3.957886  0  0  -0.15413  0  3.977865  0  0  -0.094726  -0.148851  0  3.944574  0
C  C73  1  0.26260189  0.66496246  0.23682313  1  0  -0.130018  0  3.701425  0  0  -0.150903  0  3.957694  0  0  -0.154066  0  3.977673  0  0  -0.094698  -0.148775  0  3.944389  0
N  N74  1  0.07938714  0.09156414  0.81907075  1  0  -0.278806  0  3.173748  0  0  -0.232331  0  3.439777  0  0  -0.242885  0  3.456165  0  0  -0.288693  -0.224402  0  3.428419  0
N  N75  1  0.57938922  0.40843864  0.18092999  1  0  -0.278853  0  3.173813  0  0  -0.232356  0  3.439826  0  0  -0.242906  0  3.456214  0  0  -0.288706  -0.224427  0  3.428469  0
N  N76  1  0.92061199  0.90843654  0.18092955  1  0  -0.27878  0  3.173731  0  0  -0.232307  0  3.439756  0  0  -0.24286  0  3.456145  0  0  -0.288694  -0.224378  0  3.4284  0
N  N77  1  0.42061112  0.59156204  0.81907032  1  0  -0.278829  0  3.173775  0  0  -0.232331  0  3.439797  0  0  -0.24288  0  3.456183  0  0  -0.288678  -0.224401  0  3.428436  0
N  N78  1  0.16496394  0.25754363  0.67937713  1  0  -0.262119  0  3.071251  0  0  -0.226522  0  3.344749  0  0  -0.23466  0  3.359706  0  0  -0.300479  -0.220773  0  3.334528  0
N  N79  1  0.66495574  0.24245712  0.32062244  1  0  -0.262106  0  3.071208  0  0  -0.226501  0  3.3447  0  0  -0.234642  0  3.359661  0  0  -0.300464  -0.220754  0  3.334479  0
N  N80  1  0.83503761  0.74245606  0.32062379  1  0  -0.262129  0  3.071297  0  0  -0.226537  0  3.344804  0  0  -0.234677  0  3.359762  0  0  -0.300485  -0.220789  0  3.334582  0
N  N81  1  0.33504339  0.75754455  0.67937808  1  0  -0.262094  0  3.071204  0  0  -0.226512  0  3.344691  0  0  -0.234649  0  3.359647  0  0  -0.30047  -0.220764  0  3.334468  0
N  N82  1  0.11384339  0.18768819  0.05853846  1  0  -0.476359  0  3.267663  0  0  -0.390225  0  3.551046  0  0  -0.423379  0  3.567273  0  0  -0.35845  -0.366953  0  3.539408  0
N  N83  1  0.61384621  0.31231059  0.94146029  1  0  -0.476412  0  3.267734  0  0  -0.390251  0  3.551108  0  0  -0.423398  0  3.567326  0  0  -0.358428  -0.366978  0  3.539466  0
N  N84  1  0.88615573  0.81230950  0.94146037  1  0  -0.476409  0  3.267634  0  0  -0.390252  0  3.550995  0  0  -0.423406  0  3.567221  0  0  -0.358426  -0.366978  0  3.539351  0
N  N85  1  0.38615413  0.68768909  0.05853897  1  0  -0.476435  0  3.2677  0  0  -0.39027  0  3.551094  0  0  -0.423425  0  3.56732  0  0  -0.358464  -0.366996  0  3.53945  0
O  O86  1  0.21113576  0.38331779  0.02850409  1  0  -0.572004  0  1.993655  0  0  -0.5275  0  2.243878  0  0  -0.551528  0  2.23566  0  0  -0.308364  -0.51  0  2.249221  0
O  O87  1  0.71114225  0.11668693  0.97149677  1  0  -0.572041  0  1.993663  0  0  -0.527537  0  2.243916  0  0  -0.551553  0  2.235669  0  0  -0.308341  -0.510037  0  2.249261  0
O  O88  1  0.78886337  0.61668289  0.97149704  1  0  -0.572039  0  1.993647  0  0  -0.527543  0  2.24388  0  0  -0.551567  0  2.235652  0  0  -0.308384  -0.510045  0  2.249225  0
O  O89  1  0.28885809  0.88331375  0.02850354  1  0  -0.572025  0  1.993662  0  0  -0.527525  0  2.243911  0  0  -0.551542  0  2.235663  0  0  -0.308333  -0.510028  0  2.249256  0
F  F90  1  0.95196449  0.41269623  0.18817802  1  0  -0.198917  0  1.264029  0  0  -0.129849  0  1.420744  0  0  -0.14094  0  1.414344  0  0  -0.086214  -0.121665  0  1.425124  0
F  F91  1  0.45196737  0.08730144  0.81182258  1  0  -0.198856  0  1.263955  0  0  -0.129815  0  1.42067  0  0  -0.140907  0  1.41427  0  0  -0.086216  -0.121633  0  1.425051  0
F  F92  1  0.04803585  0.58730246  0.81182268  1  0  -0.19891  0  1.264023  0  0  -0.12985  0  1.420748  0  0  -0.140942  0  1.414346  0  0  -0.086246  -0.121669  0  1.425128  0
F  F93  1  0.54803176  0.91269924  0.18817690  1  0  -0.198866  0  1.263954  0  0  -0.129823  0  1.420676  0  0  -0.140915  0  1.414277  0  0  -0.086213  -0.12164  0  1.425057  0
