# generated using pymatgen
data_AlH6C13ClO5F
_symmetry_space_group_name_H-M   'P 1'
_cell_length_a   6.61418277
_cell_length_b   11.16572038
_cell_length_c   15.25362366
_cell_angle_alpha   83.76217569
_cell_angle_beta   78.15943837
_cell_angle_gamma   71.68005476
_symmetry_Int_Tables_number   1
_chemical_formula_structural   AlH6C13ClO5F
_chemical_formula_sum   'Al2 H12 C26 Cl2 O10 F2'
_cell_volume   1045.47883265
_cell_formula_units_Z   2
loop_
 _symmetry_equiv_pos_site_id
 _symmetry_equiv_pos_as_xyz
  1  'x, y, z'
loop_
 _atom_site_type_symbol
 _atom_site_label
 _atom_site_symmetry_multiplicity
 _atom_site_fract_x
 _atom_site_fract_y
 _atom_site_fract_z
 _atom_site_occupancy
 _atom_site_pbe_bader_charge
 _atom_site_pbe_bader_spin_density
 _atom_site_pbe_cm5_charge
 _atom_site_pbe_ddec_charge
 _atom_site_pbe_ddec_spin_density
 _atom_site_pbe_ddec_sum_bond_order
 _atom_site_pbe_magmom
Al  Al0  1  0.50029413  0.50235623  0.50179889  1  2.502557  0  0.391023  1.641042  0  2.57409  0
Al  Al1  1  0.00061245  0.50093005  0.50263650  1  2.501555  0  0.393718  1.638174  0  2.567439  0
H  H2  1  0.29972643  0.35552310  0.56552973  1  0.632884  0  0.337553  0.417438  0  0.886168  0
H  H3  1  0.69733314  0.65555452  0.45580350  1  0.606837  0  0.344912  0.420425  0  0.877207  0
H  H4  1  0.79342897  0.63784309  0.77386239  1  0.138193  0  0.11221  0.140307  0  0.997734  0
H  H5  1  0.08000118  0.45701322  0.22797109  1  0.098698  0  0.117565  0.144413  0  0.992367  0
H  H6  1  0.67990479  0.52732955  0.23423294  1  0.073915  0  0.11046  0.11926  0  0.998763  0
H  H7  1  0.76855389  0.52891382  0.06824588  1  0.113955  0  0.0969  0.106627  0  1.050955  0
H  H8  1  0.45402483  0.36569824  0.77281068  1  0.093759  0  0.104969  0.11364  0  1.00331  0
H  H9  1  0.37527562  0.35737453  0.93865107  1  0.108759  0  0.104675  0.110897  0  1.001854  0
H  H10  1  0.20075444  0.23810114  0.37215704  1  0.123246  0  0.106886  0.114914  0  1.03006  0
H  H11  1  0.52563224  0.12137469  0.27013972  1  0.076346  0  0.105548  0.102956  0  0.987229  0
H  H12  1  0.42310325  0.76773764  0.37626366  1  0.041985  0  0.107242  0.11023  0  1.033887  0
H  H13  1  0.63641977  0.88538467  0.27203946  1  0.064895  0  0.106824  0.105189  0  0.982064  0
C  C14  1  0.86159199  0.27705087  0.49412407  1  1.611749  0  0.272085  0.659131  0  4.099969  0
C  C15  1  0.68357602  0.50174219  0.66272185  1  1.553307  0  0.267672  0.638752  0  4.097543  0
C  C16  1  0.13776706  0.72757145  0.50705884  1  1.579392  0  0.27226  0.663755  0  4.086807  0
C  C17  1  0.31799640  0.49732188  0.34124980  1  1.552304  0  0.267372  0.633901  0  4.094735  0
C  C18  1  0.62825163  0.50177308  0.76241388  1  0.00968  0  -0.008402  -0.002618  0  3.974587  0
C  C19  1  0.37487259  0.49305223  0.24182486  1  -0.006198  0  -0.014187  -0.020479  0  4.000353  0
C  C20  1  0.69829188  0.57764994  0.80920171  1  0.08392  0  -0.091933  -0.218348  0  3.970182  0
C  C21  1  0.64124905  0.57715018  0.90180330  1  0.383711  0  0.102687  0.248641  0  4.016985  0
C  C22  1  0.23148502  0.47266440  0.19335889  1  0.041881  0  -0.092772  -0.221445  0  3.989473  0
C  C23  1  0.28356173  0.47474469  0.10071849  1  0.392773  0  0.101113  0.240539  0  4.0228  0
C  C24  1  0.56875621  0.51273780  0.19568724  1  -0.033042  0  -0.087019  -0.102258  0  3.984145  0
C  C25  1  0.61675580  0.51421509  0.10265554  1  0.020903  0  -0.085941  -0.111041  0  3.982592  0
C  C26  1  0.50758541  0.42458975  0.80979065  1  -0.028694  0  -0.086528  -0.104378  0  3.98729  0
C  C27  1  0.46193170  0.42140280  0.90282173  1  -0.021208  0  -0.085563  -0.107697  0  3.986246  0
C  C28  1  0.52518063  0.49869751  0.95249687  1  -0.01493  0  -0.010807  -0.022211  0  3.992407  0
C  C29  1  0.47460527  0.49622270  0.05137334  1  0.044595  0  -0.008639  -0.014033  0  3.992799  0
C  C30  1  0.93284726  0.13555081  0.49565598  1  0.05033  0  -0.007657  -0.124352  0  3.925435  0
C  C31  1  0.12435244  0.07009335  0.43679265  1  0.06143  0  0.001181  0.068152  0  3.961522  0
C  C32  1  0.81180182  0.06951899  0.55445746  1  0.090553  0  0.014984  0.065669  0  4.032205  0
C  C33  1  0.24914629  0.13533612  0.37437414  1  -0.12391  0  -0.087418  -0.125724  0  3.950943  0
C  C34  1  0.43132484  0.06974023  0.31724644  1  -0.012031  0  -0.088694  -0.076532  0  4.02768  0
C  C35  1  0.06486310  0.86919156  0.50207748  1  0.035377  0  -0.009086  -0.127199  0  3.925558  0
C  C36  1  0.87857892  0.93512511  0.55798411  1  0.102378  0  0.01427  0.065097  0  4.048484  0
C  C37  1  0.19036493  0.93463315  0.43939489  1  0.01186  0  0.001406  0.068581  0  3.963487  0
C  C38  1  0.37594924  0.87029251  0.37778123  1  0.004422  0  -0.091172  -0.13675  0  3.966598  0
C  C39  1  0.49433470  0.93644272  0.31859951  1  -0.043296  0  -0.087424  -0.075493  0  4.029969  0
Cl  Cl40  1  0.72953170  0.85624690  0.63455233  1  -0.174005  0  0.018696  -0.035684  0  1.594949  0
Cl  Cl41  1  0.58444682  0.14743796  0.62832226  1  -0.180734  0  0.023837  -0.043036  0  1.595339  0
O  O42  1  0.67764627  0.33371384  0.47362377  1  -1.256325  0  -0.22946  -0.578424  0  2.339738  0
O  O43  1  0.85716224  0.52713912  0.62537056  1  -1.249786  0  -0.237519  -0.588634  0  2.341169  0
O  O44  1  0.01079814  0.67251519  0.48921764  1  -1.253791  0  -0.228022  -0.59109  0  2.364943  0
O  O45  1  0.44530280  0.52830839  0.38076090  1  -1.264122  0  -0.238533  -0.598461  0  2.369002  0
O  O46  1  0.32449404  0.67343683  0.52605534  1  -1.250771  0  -0.227904  -0.576509  0  2.317155  0
O  O47  1  0.14395157  0.47279114  0.37950650  1  -1.250735  0  -0.235807  -0.5833  0  2.337325  0
O  O48  1  0.99035055  0.32934996  0.51401088  1  -1.251287  0  -0.226054  -0.581232  0  2.340404  0
O  O49  1  0.55417725  0.47393202  0.62261644  1  -1.263257  0  -0.238856  -0.606154  0  2.375275  0
O  O50  1  0.26441113  0.44193468  0.54093775  1  -1.437246  0  -0.449647  -0.987222  0  2.211403  0
O  O51  1  0.73632703  0.56406099  0.46301999  1  -1.411355  0  -0.450473  -0.986078  0  2.186836  0
F  F52  1  0.69971045  0.65942253  0.94425478  1  -0.637146  0  -0.102043  -0.147682  0  1.337978  0
F  F53  1  0.13527646  0.45775715  0.05622556  1  -0.644286  0  -0.090489  -0.143665  0  1.384966  0
