# generated using pymatgen
data_ZnH16C20(NO3)2
_symmetry_space_group_name_H-M   'P 1'
_cell_length_a   8.64433424
_cell_length_b   10.80443755
_cell_length_c   11.84316235
_cell_angle_alpha   70.29293896
_cell_angle_beta   68.58600277
_cell_angle_gamma   66.42218663
_symmetry_Int_Tables_number   1
_chemical_formula_structural   ZnH16C20(NO3)2
_chemical_formula_sum   'Zn2 H32 C40 N4 O12'
_cell_volume   919.79834115
_cell_formula_units_Z   2
loop_
 _symmetry_equiv_pos_site_id
 _symmetry_equiv_pos_as_xyz
  1  'x, y, z'
loop_
 _atom_site_type_symbol
 _atom_site_label
 _atom_site_symmetry_multiplicity
 _atom_site_fract_x
 _atom_site_fract_y
 _atom_site_fract_z
 _atom_site_occupancy
 _atom_site_hle17_bader_spin_density
 _atom_site_hle17_ddec_charge
 _atom_site_hle17_ddec_spin_density
 _atom_site_hle17_ddec_sum_bond_order
 _atom_site_hle17_magmom
 _atom_site_hse06_10hf_bader_spin_density
 _atom_site_hse06_10hf_ddec_charge
 _atom_site_hse06_10hf_ddec_spin_density
 _atom_site_hse06_10hf_ddec_sum_bond_order
 _atom_site_hse06_10hf_magmom
 _atom_site_hse06_bader_spin_density
 _atom_site_hse06_ddec_charge
 _atom_site_hse06_ddec_spin_density
 _atom_site_hse06_ddec_sum_bond_order
 _atom_site_hse06_magmom
 _atom_site_pbe_bader_spin_density
 _atom_site_pbe_cm5_charge
 _atom_site_pbe_ddec_charge
 _atom_site_pbe_ddec_spin_density
 _atom_site_pbe_ddec_sum_bond_order
 _atom_site_pbe_magmom
Zn  Zn0  1  0.68703914  0.25017216  0.74981197  1  0  1.007085  0  1.822569  0  0  0.807251  0  2.299834  0  0  0.856806  0  2.243495  0  0  0.705073  0.772797  0  2.338624  0
Zn  Zn1  1  0.31294946  0.74982730  0.25019464  1  0  1.007094  0  1.822573  0  0  0.80725  0  2.299837  0  0  0.856822  0  2.243496  0  0  0.705078  0.772794  0  2.338627  0
H  H2  1  0.13210343  0.12880271  0.42866938  1  0  0.370632  0  0.928886  0  0  0.346227  0  1.001245  0  0  0.357224  0  0.989286  0  0  0.289875  0.338445  0  1.009621  0
H  H3  1  0.68943008  0.37129892  0.07135306  1  0  0.36853  0  0.93089  0  0  0.343968  0  1.003712  0  0  0.354993  0  0.991775  0  0  0.289134  0.336206  0  1.011981  0
H  H4  1  0.86792192  0.87119161  0.57132193  1  0  0.370538  0  0.9289  0  0  0.34613  0  1.00128  0  0  0.357128  0  0.989313  0  0  0.289823  0.338349  0  1.009656  0
H  H5  1  0.31056104  0.62870470  0.92864849  1  0  0.368591  0  0.930783  0  0  0.344039  0  1.003592  0  0  0.355064  0  0.991654  0  0  0.289171  0.336274  0  1.011867  0
H  H6  1  0.14046402  0.89850339  0.57514359  1  0  0.118973  0  0.943304  0  0  0.130645  0  1.00778  0  0  0.133122  0  1.006869  0  0  0.105301  0.128849  0  1.008549  0
H  H7  1  0.61419056  0.60160977  0.92478739  1  0  0.118049  0  0.944196  0  0  0.130336  0  1.00873  0  0  0.132823  0  1.007853  0  0  0.105265  0.128477  0  1.00955  0
H  H8  1  0.85955492  0.10150125  0.42486427  1  0  0.118987  0  0.94329  0  0  0.130639  0  1.007773  0  0  0.133123  0  1.006866  0  0  0.105272  0.128847  0  1.008537  0
H  H9  1  0.38580540  0.39839180  0.07520799  1  0  0.11807  0  0.944166  0  0  0.130363  0  1.008687  0  0  0.132851  0  1.007806  0  0  0.105268  0.128502  0  1.009506  0
H  H10  1  0.16746344  0.88477624  0.72102649  1  0  0.117423  0  0.927611  0  0  0.130692  0  0.985916  0  0  0.133797  0  0.983502  0  0  0.103132  0.128555  0  0.987538  0
H  H11  1  0.77336485  0.61540516  0.77891245  1  0  0.116142  0  0.928473  0  0  0.130662  0  0.986127  0  0  0.133738  0  0.983817  0  0  0.102908  0.128451  0  0.987816  0
H  H12  1  0.83254915  0.11522840  0.27898028  1  0  0.117535  0  0.927632  0  0  0.130742  0  0.985958  0  0  0.133851  0  0.98355  0  0  0.103159  0.128604  0  0.98758  0
H  H13  1  0.22662601  0.38459432  0.22108811  1  0  0.116143  0  0.928423  0  0  0.130654  0  0.986089  0  0  0.13373  0  0.98378  0  0  0.102899  0.128441  0  0.987777  0
H  H14  1  0.43505685  0.88472152  0.72361983  1  0  0.111578  0  0.937453  0  0  0.126933  0  0.990516  0  0  0.130342  0  0.988582  0  0  0.102462  0.124603  0  0.991733  0
H  H15  1  0.04352622  0.61531048  0.77636151  1  0  0.111331  0  0.936911  0  0  0.126326  0  0.990525  0  0  0.129739  0  0.988576  0  0  0.102385  0.1239  0  0.991927  0
H  H16  1  0.56496874  0.11527072  0.27637626  1  0  0.111434  0  0.937505  0  0  0.126795  0  0.990565  0  0  0.130231  0  0.988597  0  0  0.102397  0.124446  0  0.991813  0
H  H17  1  0.95646196  0.38469107  0.22363798  1  0  0.111287  0  0.936806  0  0  0.126281  0  0.990424  0  0  0.129695  0  0.988474  0  0  0.102377  0.123854  0  0.991825  0
H  H18  1  0.14062238  0.29904873  0.65665912  1  0  0.114523  0  0.948071  0  0  0.125668  0  1.005382  0  0  0.128778  0  1.00469  0  0  0.11203  0.123461  0  1.005974  0
H  H19  1  0.09682281  0.20011990  0.84340440  1  0  0.11416  0  0.947967  0  0  0.125359  0  1.005196  0  0  0.128486  0  1.004495  0  0  0.112009  0.12309  0  1.005873  0
H  H20  1  0.85937304  0.70094142  0.34334245  1  0  0.114441  0  0.948261  0  0  0.12562  0  1.005528  0  0  0.128732  0  1.004835  0  0  0.11202  0.12341  0  1.006122  0
H  H21  1  0.90317006  0.79988164  0.15659788  1  0  0.114197  0  0.947846  0  0  0.125361  0  1.005113  0  0  0.12849  0  1.004408  0  0  0.112013  0.123092  0  1.005789  0
H  H22  1  0.23463001  0.38145067  0.42689357  1  0  0.106117  0  0.930578  0  0  0.118227  0  0.984242  0  0  0.121401  0  0.981332  0  0  0.114061  0.115832  0  0.986469  0
H  H23  1  0.04355648  0.11820004  0.07322287  1  0  0.106576  0  0.932102  0  0  0.117945  0  0.986547  0  0  0.121093  0  0.98372  0  0  0.114082  0.115594  0  0.988644  0
H  H24  1  0.76535122  0.61854465  0.57311298  1  0  0.106178  0  0.930502  0  0  0.118247  0  0.984196  0  0  0.12143  0  0.98129  0  0  0.114081  0.115849  0  0.986432  0
H  H25  1  0.95644151  0.88181186  0.92678176  1  0  0.106613  0  0.931936  0  0  0.117968  0  0.986399  0  0  0.121117  0  0.98357  0  0  0.114058  0.115616  0  0.988501  0
H  H26  1  0.53865554  0.39937564  0.32622297  1  0  0.122919  0  0.966493  0  0  0.128512  0  1.030243  0  0  0.132335  0  1.028608  0  0  0.109614  0.125629  0  1.031655  0
H  H27  1  0.26490510  0.10073526  0.17351882  1  0  0.122024  0  0.967448  0  0  0.128269  0  1.030397  0  0  0.1321  0  1.02874  0  0  0.109658  0.125468  0  1.031705  0
H  H28  1  0.46132769  0.60061865  0.67378091  1  0  0.122942  0  0.966488  0  0  0.128635  0  1.030152  0  0  0.132462  0  1.028506  0  0  0.109664  0.125751  0  1.031565  0
H  H29  1  0.73509874  0.89927665  0.82647988  1  0  0.122053  0  0.967471  0  0  0.128271  0  1.030425  0  0  0.132115  0  1.028756  0  0  0.109653  0.125457  0  1.031749  0
H  H30  1  0.73142204  0.34209361  0.46417356  1  0  0.086618  0  0.938358  0  0  0.096075  0  0.999449  0  0  0.098826  0  0.996909  0  0  0.119931  0.093908  0  1.001454  0
H  H31  1  0.53815975  0.15825851  0.03529228  1  0  0.087567  0  0.936928  0  0  0.096799  0  0.998388  0  0  0.099491  0  0.995927  0  0  0.120165  0.094765  0  1.000291  0
H  H32  1  0.26856838  0.65789863  0.53581927  1  0  0.086545  0  0.938462  0  0  0.096063  0  0.999513  0  0  0.098803  0  0.996988  0  0  0.119947  0.093897  0  1.001517  0
H  H33  1  0.46184308  0.84174823  0.96470180  1  0  0.087504  0  0.936966  0  0  0.096739  0  0.998426  0  0  0.09943  0  0.995967  0  0  0.120123  0.094704  0  1.00033  0
C  C34  1  0.00263361  0.08183357  0.64143669  1  0  0.704771  0  3.823318  0  0  0.654848  0  4.125899  0  0  0.688784  0  4.118171  0  0  0.212961  0.631796  0  4.130334  0
C  C35  1  0.72583561  0.41836841  0.85840703  1  0  0.70302  0  3.823992  0  0  0.653023  0  4.127761  0  0  0.686997  0  4.120073  0  0  0.211582  0.629915  0  4.132258  0
C  C36  1  0.99738150  0.91817315  0.35856628  1  0  0.704708  0  3.823716  0  0  0.654834  0  4.126219  0  0  0.688778  0  4.118489  0  0  0.212817  0.631782  0  4.130653  0
C  C37  1  0.27415592  0.58163315  0.14158907  1  0  0.703089  0  3.823935  0  0  0.653051  0  4.127767  0  0  0.687024  0  4.120079  0  0  0.211607  0.629943  0  4.132262  0
C  C38  1  0.16200355  0.95313744  0.62906264  1  0  -0.307253  0  3.70838  0  0  -0.345747  0  3.947953  0  0  -0.351697  0  3.955037  0  0  -0.163102  -0.341577  0  3.942813  0
C  C39  1  0.74426087  0.54699299  0.87084377  1  0  -0.30512  0  3.70408  0  0  -0.346059  0  3.945904  0  0  -0.352117  0  3.953205  0  0  -0.163497  -0.341798  0  3.940957  0
C  C40  1  0.83801056  0.04687031  0.37094448  1  0  -0.307375  0  3.708726  0  0  -0.345745  0  3.948124  0  0  -0.351728  0  3.955247  0  0  -0.163099  -0.341578  0  3.942984  0
C  C41  1  0.25573600  0.45300650  0.12915320  1  0  -0.305189  0  3.704026  0  0  -0.346092  0  3.945787  0  0  -0.352148  0  3.95308  0  0  -0.163528  -0.341825  0  3.940829  0
C  C42  1  0.33364083  0.98250361  0.56248074  1  0  0.00258  0  3.797563  0  0  0.016969  0  4.040188  0  0  0.014822  0  4.066468  0  0  -0.032837  0.018808  0  4.021724  0
C  C43  1  0.87864081  0.51755351  0.93748823  1  0  0.003319  0  3.791188  0  0  0.018812  0  4.033823  0  0  0.016592  0  4.06023  0  0  -0.031538  0.020257  0  4.016032  0
C  C44  1  0.66637887  0.01750311  0.43752385  1  0  0.002404  0  3.79763  0  0  0.016722  0  4.040347  0  0  0.014581  0  4.066644  0  0  -0.03296  0.018565  0  4.021876  0
C  C45  1  0.12134973  0.48245115  0.06251077  1  0  0.003252  0  3.791078  0  0  0.018757  0  4.033667  0  0  0.016536  0  4.060072  0  0  -0.031545  0.020202  0  4.015875  0
C  C46  1  0.37253927  0.04711876  0.43490010  1  0  0.256465  0  3.841245  0  0  0.242229  0  4.113918  0  0  0.250533  0  4.131719  0  0  0.059275  0.236515  0  4.101934  0
C  C47  1  0.85444640  0.45297156  0.06510440  1  0  0.253849  0  3.838797  0  0  0.238962  0  4.112435  0  0  0.247175  0  4.130347  0  0  0.058275  0.233147  0  4.100207  0
C  C48  1  0.62747934  0.95288589  0.56510308  1  0  0.256358  0  3.841812  0  0  0.242135  0  4.114512  0  0  0.25044  0  4.132305  0  0  0.059238  0.236419  0  4.102534  0
C  C49  1  0.14554456  0.54703414  0.93489355  1  0  0.253834  0  3.838913  0  0  0.238964  0  4.112502  0  0  0.247177  0  4.130414  0  0  0.058328  0.233144  0  4.100281  0
C  C50  1  0.46163800  0.93801230  0.62565750  1  0  -0.228914  0  3.775916  0  0  -0.257828  0  4.035509  0  0  -0.262135  0  4.055971  0  0  -0.114468  -0.254843  0  4.021152  0
C  C51  1  0.02539722  0.56198896  0.87432250  1  0  -0.226152  0  3.769796  0  0  -0.254501  0  4.02918  0  0  -0.258838  0  4.049691  0  0  -0.113823  -0.251337  0  4.015177  0
C  C52  1  0.53838468  0.06198614  0.37434405  1  0  -0.228639  0  3.775254  0  0  -0.25753  0  4.034827  0  0  -0.261854  0  4.055275  0  0  -0.114297  -0.254536  0  4.020487  0
C  C53  1  0.97459599  0.43801570  0.12567630  1  0  -0.226113  0  3.769538  0  0  -0.254449  0  4.028935  0  0  -0.258787  0  4.049447  0  0  -0.113854  -0.251285  0  4.014926  0
C  C54  1  0.38791664  0.27566078  0.68156736  1  0  0.173738  0  3.762643  0  0  0.168274  0  4.001515  0  0  0.174891  0  4.02296  0  0  0.120359  0.163431  0  3.987818  0
C  C55  1  0.34555165  0.22395433  0.81819032  1  0  0.180902  0  3.761296  0  0  0.175204  0  4.000647  0  0  0.181834  0  4.022017  0  0  0.123063  0.170914  0  3.986144  0
C  C56  1  0.61207620  0.72433352  0.31843306  1  0  0.17361  0  3.762704  0  0  0.168031  0  4.001628  0  0  0.174672  0  4.02308  0  0  0.120301  0.163191  0  3.987927  0
C  C57  1  0.65445298  0.77603894  0.18180631  1  0  0.180839  0  3.761457  0  0  0.17521  0  4.000748  0  0  0.181843  0  4.022115  0  0  0.123008  0.170922  0  3.986238  0
C  C58  1  0.27124382  0.30835338  0.61166544  1  0  -0.134731  0  3.685324  0  0  -0.154684  0  3.934716  0  0  -0.162337  0  3.956451  0  0  -0.071979  -0.150078  0  3.920753  0
C  C59  1  0.19174142  0.19109661  0.88826919  1  0  -0.136451  0  3.687991  0  0  -0.156512  0  3.937658  0  0  -0.164193  0  3.959264  0  0  -0.072344  -0.151696  0  3.92323  0
C  C60  1  0.72875135  0.69163781  0.38833826  1  0  -0.134505  0  3.685272  0  0  -0.15449  0  3.934666  0  0  -0.162145  0  3.956401  0  0  -0.071906  -0.14988  0  3.920698  0
C  C61  1  0.80825595  0.80889976  0.11173041  1  0  -0.136432  0  3.688026  0  0  -0.15648  0  3.937672  0  0  -0.16416  0  3.95928  0  0  -0.072306  -0.151663  0  3.923241  0
C  C62  1  0.32381662  0.35394543  0.48308387  1  0  0.025657  0  3.679172  0  0  0.00488  0  3.930982  0  0  0.009671  0  3.947764  0  0  -0.053726  0.001926  0  3.91953  0
C  C63  1  0.16139479  0.14574158  0.01686819  1  0  0.026743  0  3.682006  0  0  0.006499  0  3.933823  0  0  0.011308  0  3.950516  0  0  -0.053082  0.003532  0  3.92256  0
C  C64  1  0.67617479  0.64604161  0.51691989  1  0  0.02543  0  3.679108  0  0  0.004726  0  3.930929  0  0  0.0095  0  3.947726  0  0  -0.053914  0.001772  0  3.919476  0
C  C65  1  0.83860493  0.85426308  0.98313405  1  0  0.026754  0  3.681744  0  0  0.006522  0  3.933527  0  0  0.011332  0  3.950222  0  0  -0.053052  0.003552  0  3.922269  0
C  C66  1  0.49144503  0.36586187  0.42667617  1  0  -0.107407  0  3.689987  0  0  -0.121199  0  3.94655  0  0  -0.128667  0  3.967905  0  0  -0.075778  -0.116079  0  3.931383  0
C  C67  1  0.28455494  0.13413297  0.07308385  1  0  -0.109075  0  3.692588  0  0  -0.12286  0  3.948142  0  0  -0.13027  0  3.969414  0  0  -0.077347  -0.118178  0  3.934189  0
C  C68  1  0.50854394  0.63412206  0.57332691  1  0  -0.107372  0  3.689574  0  0  -0.121293  0  3.946206  0  0  -0.128758  0  3.96755  0  0  -0.075699  -0.116171  0  3.93104  0
C  C69  1  0.71544504  0.86587481  0.92691373  1  0  -0.109122  0  3.692473  0  0  -0.122868  0  3.948008  0  0  -0.130289  0  3.969271  0  0  -0.077336  -0.118177  0  3.934065  0
C  C70  1  0.59959472  0.33408577  0.50190503  1  0  0.139879  0  3.70076  0  0  0.103963  0  3.957967  0  0  0.111008  0  3.976613  0  0  0.052448  0.099371  0  3.945002  0
C  C71  1  0.43608544  0.16598461  0.99769556  1  0  0.141306  0  3.699581  0  0  0.105686  0  3.956707  0  0  0.112737  0  3.975309  0  0  0.052907  0.100914  0  3.944421  0
C  C72  1  0.40039860  0.66590025  0.49809490  1  0  0.140092  0  3.700421  0  0  0.104043  0  3.957686  0  0  0.111117  0  3.976342  0  0  0.052474  0.099456  0  3.944721  0
C  C73  1  0.56391704  0.83401694  0.00230326  1  0  0.141366  0  3.699689  0  0  0.105736  0  3.956813  0  0  0.112787  0  3.975423  0  0  0.052913  0.100964  0  3.944524  0
N  N74  1  0.54881680  0.29072148  0.62604822  1  0  -0.36453  0  3.302778  0  0  -0.283375  0  3.577885  0  0  -0.302891  0  3.592139  0  0  -0.328005  -0.270188  0  3.568658  0
N  N75  1  0.46593843  0.20922274  0.87356517  1  0  -0.369742  0  3.303111  0  0  -0.289275  0  3.579547  0  0  -0.308717  0  3.593565  0  0  -0.330441  -0.276118  0  3.569973  0
N  N76  1  0.45118039  0.70927075  0.37395156  1  0  -0.364632  0  3.303044  0  0  -0.283278  0  3.57805  0  0  -0.302857  0  3.592354  0  0  -0.328063  -0.27011  0  3.56885  0
N  N77  1  0.53405627  0.79077571  0.12643337  1  0  -0.369717  0  3.303171  0  0  -0.28927  0  3.579578  0  0  -0.308718  0  3.593606  0  0  -0.330371  -0.27611  0  3.569997  0
O  O78  1  0.90231130  0.08995023  0.75177446  1  0  -0.636705  0  2.033855  0  0  -0.559968  0  2.306477  0  0  -0.589012  0  2.29079  0  0  -0.322474  -0.539541  0  2.316353  0
O  O79  1  0.74395962  0.41033471  0.74804721  1  0  -0.635109  0  2.035084  0  0  -0.557798  0  2.307367  0  0  -0.586896  0  2.291727  0  0  -0.320972  -0.537488  0  2.317413  0
O  O80  1  0.09768636  0.91006168  0.24822548  1  0  -0.636598  0  2.033929  0  0  -0.559903  0  2.306517  0  0  -0.588953  0  2.290843  0  0  -0.322369  -0.539478  0  2.316396  0
O  O81  1  0.25600921  0.58967720  0.25195057  1  0  -0.635074  0  2.034927  0  0  -0.557799  0  2.307294  0  0  -0.586894  0  2.291651  0  0  -0.321004  -0.537488  0  2.317338  0
O  O82  1  0.97251435  0.17377639  0.54501542  1  0  -0.63308  0  1.956064  0  0  -0.579758  0  2.17926  0  0  -0.603936  0  2.168479  0  0  -0.315254  -0.562902  0  2.1862  0
O  O83  1  0.69112850  0.32644705  0.95481534  1  0  -0.632373  0  1.955873  0  0  -0.579175  0  2.179598  0  0  -0.603339  0  2.168817  0  0  -0.3151  -0.562291  0  2.186453  0
O  O84  1  0.02750884  0.82622206  0.45498060  1  0  -0.633032  0  1.956271  0  0  -0.579743  0  2.179462  0  0  -0.60392  0  2.168675  0  0  -0.315168  -0.562884  0  2.186402  0
O  O85  1  0.30886853  0.67354933  0.04517957  1  0  -0.632413  0  1.955968  0  0  -0.579233  0  2.179742  0  0  -0.603395  0  2.168961  0  0  -0.315069  -0.562349  0  2.1866  0
O  O86  1  0.25091910  0.09747746  0.36823400  1  0  -0.544186  0  2.09222  0  0  -0.496856  0  2.307972  0  0  -0.514753  0  2.298806  0  0  -0.376871  -0.4838  0  2.313978  0
O  O87  1  0.71642750  0.40265985  0.13176871  1  0  -0.541591  0  2.095482  0  0  -0.49361  0  2.311453  0  0  -0.511605  0  2.302306  0  0  -0.375283  -0.480593  0  2.3173  0
O  O88  1  0.74911009  0.90251685  0.63176095  1  0  -0.544057  0  2.092359  0  0  -0.496701  0  2.308051  0  0  -0.514597  0  2.298888  0  0  -0.376786  -0.483644  0  2.314053  0
O  O89  1  0.28356520  0.59734170  0.86823124  1  0  -0.541675  0  2.095482  0  0  -0.493695  0  2.311422  0  0  -0.511697  0  2.302285  0  0  -0.375398  -0.480673  0  2.317273  0
