# generated using pymatgen
data_CuH22C26(N2O3)2
_symmetry_space_group_name_H-M   'P 1'
_cell_length_a   9.95054677
_cell_length_b   10.90586928
_cell_length_c   12.35653630
_cell_angle_alpha   91.21420455
_cell_angle_beta   111.24155464
_cell_angle_gamma   94.77119491
_symmetry_Int_Tables_number   1
_chemical_formula_structural   CuH22C26(N2O3)2
_chemical_formula_sum   'Cu2 H44 C52 N8 O12'
_cell_volume   1243.58896700
_cell_formula_units_Z   2
loop_
 _symmetry_equiv_pos_site_id
 _symmetry_equiv_pos_as_xyz
  1  'x, y, z'
loop_
 _atom_site_type_symbol
 _atom_site_label
 _atom_site_symmetry_multiplicity
 _atom_site_fract_x
 _atom_site_fract_y
 _atom_site_fract_z
 _atom_site_occupancy
 _atom_site_pbe_bader_charge
 _atom_site_pbe_bader_spin_density
 _atom_site_pbe_cm5_charge
 _atom_site_pbe_ddec_charge
 _atom_site_pbe_ddec_spin_density
 _atom_site_pbe_ddec_sum_bond_order
 _atom_site_pbe_magmom
Cu  Cu0  1  0.67754544  0.87384496  0.50528380  1  1.097384  -0.570001  0.744045  0.808035  -0.755027  2.222989  -0.568
Cu  Cu1  1  0.32245381  0.12615776  0.49471622  1  1.097417  0.570004  0.74403  0.808019  0.755027  2.223004  0.568
H  H2  1  0.08590376  0.53234089  0.24944132  1  0.04464  -0.000225  0.096942  0.091716  -0.000113  1.028771  0.0
H  H3  1  0.95467176  0.32487541  0.23650107  1  0.040314  -2.5e-05  0.09708  0.089586  -2.1e-05  1.0198  0.0
H  H4  1  0.77500455  0.29266859  0.33316051  1  0.075681  -1.7e-05  0.098679  0.094761  6e-06  1.016238  0.0
H  H5  1  0.71145074  0.47387506  0.42535874  1  0.075099  -0.000397  0.103691  0.109291  -0.000307  0.993937  0.0
H  H6  1  0.01850725  0.82004653  0.37276586  1  0.113711  0.000318  0.105882  0.109817  0.000286  1.022997  0.0
H  H7  1  0.88711705  0.05328652  0.46469527  1  0.168346  -0.001852  0.124077  0.105605  -0.000903  1.029493  -0.002
H  H8  1  0.95115386  0.12208239  0.29998968  1  0.160886  -0.000842  0.114255  0.132758  -0.00046  1.014515  0.0
H  H9  1  0.55764781  0.90852362  0.07165302  1  0.126265  -0.001268  0.107117  0.122273  -0.00068  1.037384  -0.001
H  H10  1  0.51866286  0.84039646  0.25003323  1  0.143994  -0.002141  0.124085  0.105492  -0.001053  0.991232  -0.002
H  H11  1  0.98460655  0.93305673  0.18256410  1  0.092751  9.1e-05  0.116788  0.108516  9.1e-05  1.000976  0.0
H  H12  1  0.11412688  0.04898487  0.17064608  1  0.076148  -6.8e-05  0.100854  0.080432  -6.2e-05  1.001598  0.0
H  H13  1  0.02240860  0.18416871  0.98579335  1  0.100779  2.8e-05  0.102205  0.088572  1.5e-05  1.024109  0.0
H  H14  1  0.83629362  0.14849166  0.89551986  1  0.100519  1.2e-05  0.115844  0.109457  1.2e-05  0.97988  0.0
H  H15  1  0.44142923  0.60450503  0.81841812  1  0.073038  2.1e-05  0.110711  0.091765  1.9e-05  1.027632  0.0
H  H16  1  0.34771438  0.61057649  0.91579885  1  0.082007  -5e-06  0.107945  0.093837  -5e-06  0.978438  0.0
H  H17  1  0.50401789  0.60813392  0.13671581  1  0.049062  4e-06  0.112428  0.097728  -4e-06  0.951332  0.0
H  H18  1  0.69355561  0.60100581  0.17109314  1  0.113024  1.9e-05  0.116099  0.106119  2.3e-05  1.021718  0.0
H  H19  1  0.52997134  0.87199386  0.85596370  1  0.097311  -0.001232  0.111152  0.122532  -0.000656  1.016039  -0.001
H  H20  1  0.53744894  0.94077942  0.66512451  1  0.165939  -0.002053  0.12027  0.094336  -0.000975  1.04902  -0.001
H  H21  1  0.78424266  0.66142019  0.64271780  1  0.127046  -0.001803  0.119514  0.08943  -0.000799  1.039892  -0.001
H  H22  1  0.80074174  0.58808484  0.83759720  1  0.079782  -0.00107  0.114511  0.123274  -0.000558  0.991376  -0.001
H  H23  1  0.26842586  0.67005730  0.37456848  1  0.063522  0.002223  0.098898  0.118069  0.001105  1.00474  0.001
H  H24  1  0.91409161  0.46765629  0.75055667  1  0.044598  0.000225  0.096951  0.091706  0.000113  1.028715  0.0
H  H25  1  0.04532449  0.67511994  0.76350201  1  0.040389  2.5e-05  0.097096  0.089597  2e-05  1.019762  0.0
H  H26  1  0.22499333  0.70733137  0.66684555  1  0.075673  1.7e-05  0.098683  0.094755  -6e-06  1.016194  0.0
H  H27  1  0.28855059  0.52612674  0.57464672  1  0.075525  0.000397  0.103703  0.10927  0.000307  0.993822  0.0
H  H28  1  0.98148627  0.17995342  0.62723003  1  0.11377  -0.000318  0.105898  0.109845  -0.000286  1.022999  0.0
H  H29  1  0.11288295  0.94671342  0.53530411  1  0.168349  0.001852  0.124063  0.10558  0.000903  1.029501  0.002
H  H30  1  0.04884626  0.87791848  0.70001218  1  0.160913  0.000842  0.114253  0.132728  0.00046  1.014526  0.0
H  H31  1  0.44235457  0.09147816  0.92834788  1  0.126254  0.001268  0.107143  0.122309  0.00068  1.037296  0.001
H  H32  1  0.48133628  0.15960533  0.74996674  1  0.143922  0.002141  0.124076  0.105475  0.001053  0.99125  0.002
H  H33  1  0.01539562  0.06694322  0.81743915  1  0.09275  -9.1e-05  0.116766  0.108495  -9.1e-05  1.001001  0.0
H  H34  1  0.88587615  0.95101323  0.82935657  1  0.076176  6.8e-05  0.100847  0.080423  6.2e-05  1.001535  0.0
H  H35  1  0.97759551  0.81582939  0.01420961  1  0.10078  -2.8e-05  0.102144  0.088473  -1.5e-05  1.024047  0.0
H  H36  1  0.16370725  0.85150645  0.10448217  1  0.100537  -1.2e-05  0.115848  0.109484  -1.2e-05  0.979819  0.0
H  H37  1  0.55857301  0.39549582  0.18157869  1  0.073062  -2.1e-05  0.11075  0.091826  -1.9e-05  1.027624  0.0
H  H38  1  0.65228829  0.38942804  0.08419653  1  0.081959  4e-06  0.107931  0.093863  5e-06  0.978418  0.0
H  H39  1  0.49598123  0.39186787  0.86328092  1  0.04898  -4e-06  0.112412  0.097698  4e-06  0.951297  0.0
H  H40  1  0.30644374  0.39899782  0.82890531  1  0.113002  -1.9e-05  0.116077  0.10609  -2.3e-05  1.02177  0.0
H  H41  1  0.47002919  0.12800147  0.14403333  1  0.097231  0.001232  0.111123  0.122439  0.000656  1.016064  0.001
H  H42  1  0.46255062  0.05921683  0.33487387  1  0.165925  0.002053  0.120246  0.094313  0.000975  1.049071  0.001
H  H43  1  0.21575840  0.33857974  0.35727865  1  0.127102  0.001803  0.119501  0.089428  0.000799  1.039881  0.001
H  H44  1  0.19926374  0.41191600  0.16240054  1  0.079794  0.00107  0.114476  0.123199  0.000558  0.991371  0.001
H  H45  1  0.73157007  0.32994450  0.62543380  1  0.063451  -0.002223  0.098893  0.118055  -0.001105  1.004689  -0.001
C  C46  1  0.82802527  0.70575642  0.45522006  1  1.548269  0.000974  0.189889  0.544449  -0.000379  4.239711  0.003
C  C47  1  0.86904727  0.60161727  0.39611739  1  -0.016908  -0.007648  -0.008103  -0.057262  -0.005549  3.897552  -0.006
C  C48  1  0.98120630  0.61867074  0.35115217  1  -0.000742  -0.001272  -0.000405  0.092032  -0.000872  3.971843  -0.001
C  C49  1  0.00672001  0.51740145  0.29115302  1  -0.02409  -0.00057  -0.091453  -0.137147  -0.000376  3.979946  0.0
C  C50  1  0.93224902  0.40185611  0.28303430  1  -0.065499  5.8e-05  -0.093162  -0.0827  5.5e-05  4.036922  0.0
C  C51  1  0.82913310  0.38411786  0.33499763  1  -0.042643  0.000153  -0.088185  -0.07113  0.00016  4.015537  0.0
C  C52  1  0.79537312  0.48456212  0.38804796  1  -0.052911  -0.000206  -0.086392  -0.101902  -0.000254  3.982499  0.0
C  C53  1  0.06864707  0.73678879  0.36529056  1  -0.050798  -0.000116  -0.070927  -0.048165  -3.4e-05  3.943653  0.0
C  C54  1  0.29766482  0.87069569  0.39752101  1  1.560746  0.000931  0.196289  0.626777  0.001862  4.210475  -0.001
C  C55  1  0.81922036  0.02130203  0.37642835  1  0.500599  0.000487  0.053495  0.108253  -0.000234  3.89593  0.0
C  C56  1  0.85305344  0.06028417  0.28216045  1  -0.081788  -0.005966  -0.078242  -0.154558  -0.004066  3.922823  -0.005
C  C57  1  0.76022029  0.01989460  0.16986298  1  -0.051038  0.0031  0.008935  0.030836  0.002079  3.98668  0.002
C  C58  1  0.63681066  0.94032077  0.15676395  1  -0.028497  -0.005679  -0.081848  -0.1555  -0.003912  3.939034  -0.004
C  C59  1  0.61236440  0.90285341  0.25539178  1  0.4607  9.4e-05  0.050383  0.100957  -0.000798  3.904887  0.0
C  C60  1  0.78158504  0.07126756  0.06476817  1  1.385047  -0.000278  0.236379  0.404764  -0.000227  4.149953  0.0
C  C61  1  0.02069985  0.98326338  0.12080310  1  0.276947  8e-06  -0.057332  -0.074259  2.3e-05  3.889679  0.0
C  C62  1  0.93442456  0.10938291  0.95079400  1  0.272612  3.5e-05  -0.062528  -0.083944  3e-05  3.888683  0.0
C  C63  1  0.43818666  0.57146909  0.90037958  1  0.329545  4.2e-05  -0.057999  -0.091532  3.2e-05  3.923812  0.0
C  C64  1  0.58553138  0.56927903  0.10847967  1  0.26905  8e-06  -0.055804  -0.078023  1e-06  3.880437  0.0
C  C65  1  0.68381030  0.68600215  0.98304719  1  1.41203  -0.000146  0.238747  0.398505  -0.000141  4.158543  0.0
C  C66  1  0.66615230  0.72410369  0.86253366  1  -0.064941  0.003106  0.013169  0.03976  0.0021  3.983795  0.002
C  C67  1  0.58922420  0.82319903  0.81255361  1  -0.001085  -0.004977  -0.079002  -0.155181  -0.003436  3.913079  -0.004
C  C68  1  0.59020174  0.86089952  0.70587120  1  0.467059  0.001  0.054206  0.108608  -2.6e-05  3.888829  0.001
C  C69  1  0.73138452  0.70588064  0.69390921  1  0.483987  0.001169  0.050293  0.096303  0.000217  3.937856  0.001
C  C70  1  0.73877069  0.66511867  0.80150820  1  -0.024962  -0.004634  -0.08042  -0.163359  -0.003207  3.950002  -0.004
C  C71  1  0.20892232  0.74956578  0.37573337  1  -0.055259  0.00858  -0.107594  -0.251244  0.006172  3.901923  0.006
C  C72  1  0.17197582  0.29424352  0.54478125  1  1.548342  -0.000974  0.18985  0.544365  0.000379  4.23981  -0.003
C  C73  1  0.13095177  0.39838360  0.60388416  1  -0.017342  0.007648  -0.008067  -0.05712  0.005549  3.89767  0.006
C  C74  1  0.01879165  0.38133013  0.64884664  1  -0.000465  0.001273  -0.000411  0.091929  0.000873  3.971977  0.001
C  C75  1  0.99327127  0.48259759  0.70884545  1  -0.023963  0.00057  -0.091457  -0.137045  0.000376  3.979782  0.0
C  C76  1  0.06774669  0.59814385  0.71696789  1  -0.065653  -5.8e-05  -0.093198  -0.082824  -5.5e-05  4.036876  0.0
C  C77  1  0.17086381  0.61588303  0.66500654  1  -0.042644  -0.000152  -0.088243  -0.071081  -0.00016  4.015356  0.0
C  C78  1  0.20462042  0.51543784  0.61195118  1  -0.053107  0.000206  -0.086368  -0.101945  0.000254  3.982481  0.0
C  C79  1  0.93134882  0.26321300  0.63470605  1  -0.050873  0.000117  -0.070973  -0.048181  3.4e-05  3.943578  0.0
C  C80  1  0.70233077  0.12930335  0.60247951  1  1.560317  -0.00093  0.196235  0.626637  -0.001862  4.210564  0.001
C  C81  1  0.18078062  0.97869700  0.62357373  1  0.500714  -0.000487  0.053481  0.108253  0.000234  3.895947  0.0
C  C82  1  0.14694764  0.93971578  0.71784086  1  -0.081878  0.005966  -0.078192  -0.154415  0.004066  3.922788  0.005
C  C83  1  0.23978186  0.98010534  0.83013784  1  -0.050969  -0.003099  0.008906  0.030725  -0.002079  3.986706  -0.002
C  C84  1  0.36319041  0.05967917  0.84323493  1  -0.02815  0.005678  -0.081866  -0.155527  0.003911  3.93901  0.004
C  C85  1  0.38763560  0.09714654  0.74460760  1  0.46039  -9.4e-05  0.050382  0.100977  0.000798  3.904951  0.0
C  C86  1  0.21841702  0.92873147  0.93523421  1  1.385062  0.000278  0.236397  0.404863  0.000227  4.149913  0.0
C  C87  1  0.97930329  0.01673564  0.87920041  1  0.276751  -8e-06  -0.057318  -0.07418  -2.3e-05  3.889632  0.0
C  C88  1  0.06557869  0.89061704  0.04920875  1  0.272761  -3.5e-05  -0.062477  -0.083813  -3e-05  3.888536  0.0
C  C89  1  0.56181450  0.42853176  0.09961611  1  0.329743  -4.2e-05  -0.058048  -0.091634  -3.2e-05  3.923884  0.0
C  C90  1  0.41446667  0.43072276  0.89151675  1  0.269066  -8e-06  -0.055795  -0.077936  -1e-06  3.880559  0.0
C  C91  1  0.31618708  0.31399409  0.01694571  1  1.411765  0.000146  0.238777  0.398701  0.000141  4.15871  0.0
C  C92  1  0.33385298  0.27589532  0.13746641  1  -0.064952  -0.003106  0.013176  0.039563  -0.0021  3.983692  -0.002
C  C93  1  0.41077989  0.17679906  0.18744611  1  -0.00104  0.004977  -0.078901  -0.154895  0.003436  3.913104  0.004
C  C94  1  0.40979674  0.13909673  0.29412606  1  0.467215  -0.001001  0.054164  0.108525  2.6e-05  3.888984  -0.001
C  C95  1  0.26861773  0.29412021  0.30608840  1  0.484103  -0.00117  0.050264  0.096202  -0.000217  3.937844  -0.001
C  C96  1  0.26123350  0.33488033  0.19849076  1  -0.024876  0.004634  -0.080409  -0.163205  0.003207  3.949795  0.004
C  C97  1  0.79107349  0.25043510  0.62426805  1  -0.055267  -0.00858  -0.107529  -0.25118  -0.006172  3.901693  -0.006
N  N98  1  0.65986729  0.80290198  0.64754499  1  -1.19705  -0.075372  -0.343419  -0.223785  -0.052243  3.604644  -0.065
N  N99  1  0.70161195  0.94370795  0.36333669  1  -1.2128  -0.085499  -0.346116  -0.224909  -0.058883  3.598977  -0.073
N  N100  1  0.90434758  0.05137434  0.04615698  1  -1.174672  0.000156  -0.274559  -0.108069  0.000105  3.62473  0.0
N  N101  1  0.57280669  0.61455588  0.99536185  1  -1.193605  -7.2e-05  -0.274361  -0.100879  -4.1e-05  3.641141  0.0
N  N102  1  0.34013377  0.19709796  0.35245308  1  -1.197371  0.075373  -0.343384  -0.223721  0.052242  3.60466  0.065
N  N103  1  0.29838806  0.05629199  0.63666350  1  -1.212895  0.085499  -0.346112  -0.224944  0.058883  3.599015  0.073
N  N104  1  0.09565653  0.94862376  0.95384518  1  -1.174256  -0.000156  -0.274497  -0.10816  -0.000105  3.624885  0.0
N  N105  1  0.42719716  0.38544957  0.00463469  1  -1.193414  7.2e-05  -0.274387  -0.10104  4.1e-05  3.641305  0.0
O  O106  1  0.69086602  0.70543276  0.43630429  1  -1.108336  -0.112088  -0.333697  -0.555006  -0.074322  2.240431  -0.1
O  O107  1  0.92269624  0.78676238  0.51824775  1  -1.175239  -0.000492  -0.312415  -0.56334  1e-06  2.240363  -0.001
O  O108  1  0.23291906  0.96654122  0.40608283  1  -1.133363  0.103701  -0.334752  -0.576976  0.068634  2.368039  0.093
O  O109  1  0.42821806  0.87295614  0.40650431  1  -1.197026  0.002013  -0.335594  -0.613998  0.00082  2.289673  0.001
O  O110  1  0.68652847  0.13302229  0.00059815  1  -1.146726  0.000177  -0.310166  -0.503557  0.000119  2.117515  0.0
O  O111  1  0.79915435  0.72020713  0.06454716  1  -1.134078  0.000497  -0.290396  -0.468275  0.000345  2.136121  0.0
O  O112  1  0.30913422  0.29456904  0.56369924  1  -1.108406  0.112083  -0.33365  -0.554938  0.07432  2.240434  0.1
O  O113  1  0.07730688  0.21323663  0.48175252  1  -1.175216  0.000492  -0.312416  -0.563312  -1e-06  2.240415  0.001
O  O114  1  0.76707976  0.03345781  0.59391781  1  -1.133321  -0.1037  -0.334751  -0.576948  -0.068632  2.368051  -0.093
O  O115  1  0.57177674  0.12704564  0.59349037  1  -1.196632  -0.002012  -0.335577  -0.61392  -0.00082  2.289758  -0.001
O  O116  1  0.31347499  0.86697950  0.99940469  1  -1.146804  -0.000177  -0.310176  -0.50357  -0.000119  2.117499  0.0
O  O117  1  0.20085924  0.27978910  0.93545770  1  -1.134071  -0.000497  -0.290328  -0.468223  -0.000345  2.136747  0.0
