# generated using pymatgen
data_AgH4AuC16N2(Cl2F3)2
_symmetry_space_group_name_H-M   'P 1'
_cell_length_a   7.38846448
_cell_length_b   13.59199768
_cell_length_c   21.46560000
_cell_angle_alpha   104.53572633
_cell_angle_beta   90.00000000
_cell_angle_gamma   105.77118391
_symmetry_Int_Tables_number   1
_chemical_formula_structural   AgH4AuC16N2(Cl2F3)2
_chemical_formula_sum   'Ag4 H16 Au4 C64 N8 Cl16 F24'
_cell_volume   2002.71718837
_cell_formula_units_Z   4
loop_
 _symmetry_equiv_pos_site_id
 _symmetry_equiv_pos_as_xyz
  1  'x, y, z'
loop_
 _atom_site_type_symbol
 _atom_site_label
 _atom_site_symmetry_multiplicity
 _atom_site_fract_x
 _atom_site_fract_y
 _atom_site_fract_z
 _atom_site_occupancy
 _atom_site_pbe_bader_charge
 _atom_site_pbe_bader_spin_density
 _atom_site_pbe_cm5_charge
 _atom_site_pbe_ddec_charge
 _atom_site_pbe_ddec_spin_density
 _atom_site_pbe_ddec_sum_bond_order
 _atom_site_pbe_magmom
Ag  Ag0  1  0.03919337  0.93130263  0.79575446  1  0.462709  0  0.298112  0.246888  0  2.06655  0
Ag  Ag1  1  0.10819912  0.06876499  0.70425298  1  0.465692  0  0.298844  0.248189  0  2.066217  0
Ag  Ag2  1  0.96080479  0.06869372  0.20424491  1  0.462725  0  0.298055  0.246792  0  2.066625  0
Ag  Ag3  1  0.89179392  0.93124006  0.29574871  1  0.465614  0  0.298831  0.248132  0  2.066198  0
H  H4  1  0.99171615  0.98315631  0.94012555  1  0.162911  0  0.1216  0.066842  0  1.034718  0
H  H5  1  0.00892338  0.01672600  0.55986222  1  0.16646  0  0.121589  0.066858  0  1.034396  0
H  H6  1  0.00830132  0.01685429  0.05987236  1  0.163022  0  0.121692  0.066964  0  1.034776  0
H  H7  1  0.99106283  0.98327352  0.44014417  1  0.1664  0  0.121629  0.06692  0  1.034604  0
H  H8  1  0.88786606  0.72173071  0.01486750  1  0.124934  0  0.104633  0.073879  0  1.025014  0
H  H9  1  0.16418983  0.27834324  0.48525322  1  0.115087  0  0.105399  0.075064  0  1.024353  0
H  H10  1  0.11211645  0.27828306  0.98514489  1  0.12524  0  0.104671  0.073884  0  1.024992  0
H  H11  1  0.83583252  0.72165548  0.51474700  1  0.114993  0  0.105387  0.075056  0  1.024338  0
H  H12  1  0.93253146  0.60798346  0.90604809  1  0.129383  0  0.094989  0.10733  0  1.061984  0
H  H13  1  0.32301164  0.39213326  0.59399976  1  0.133023  0  0.095347  0.107992  0  1.061456  0
H  H14  1  0.06744996  0.39202001  0.09396453  1  0.129571  0  0.094957  0.107328  0  1.062265  0
H  H15  1  0.67703977  0.60786943  0.40599922  1  0.132556  0  0.095331  0.108044  0  1.061498  0
H  H16  1  0.00477902  0.69684959  0.81509164  1  0.150046  0  0.116019  0.097201  0  0.988739  0
H  H17  1  0.30809504  0.30315705  0.68483483  1  0.150566  0  0.116541  0.098028  0  0.98952  0
H  H18  1  0.99519917  0.30314201  0.18491210  1  0.150232  0  0.116103  0.097307  0  0.988864  0
H  H19  1  0.69194164  0.69684325  0.31516564  1  0.150585  0  0.116542  0.098088  0  0.989408  0
Au  Au20  1  0.76351292  0.99993062  0.74985243  1  0.17523  0  0.257945  0.126238  0  3.274431  0
Au  Au21  1  0.23648762  0.00007048  0.25014071  1  0.175327  0  0.25785  0.126011  0  3.274382  0
Au  Au22  1  0.37789542  0.00012908  0.75013884  1  0.172299  0  0.264694  0.136112  0  3.421075  0
Au  Au23  1  0.62210195  0.99986568  0.24986074  1  0.172372  0  0.264697  0.136158  0  3.420771  0
C  C24  1  0.68839886  0.83684559  0.73429576  1  0.017037  0  -0.19748  -0.373067  0  4.14617  0
C  C25  1  0.85174690  0.16308344  0.76547163  1  0.017368  0  -0.197341  -0.372899  0  4.145426  0
C  C26  1  0.31159835  0.16315155  0.26570001  1  0.017407  0  -0.19745  -0.372888  0  4.146275  0
C  C27  1  0.14824618  0.83690815  0.23452186  1  0.017873  0  -0.197275  -0.372723  0  4.145123  0
C  C28  1  0.59943154  0.78749277  0.78030516  1  0.438758  0  0.0686  0.245636  0  4.112736  0
C  C29  1  0.81215767  0.21253763  0.71951375  1  0.502739  0  0.069049  0.246288  0  4.114471  0
C  C30  1  0.40057075  0.21250912  0.21969277  1  0.437921  0  0.068604  0.245558  0  4.112877  0
C  C31  1  0.18784343  0.78746188  0.28048333  1  0.502439  0  0.069162  0.246436  0  4.114177  0
C  C32  1  0.52451530  0.67809154  0.76973392  1  0.179858  0  -0.020069  -0.082867  0  4.112321  0
C  C33  1  0.84688132  0.32195470  0.73013595  1  0.141049  0  -0.019637  -0.084325  0  4.111892  0
C  C34  1  0.47548970  0.32191035  0.23026494  1  0.179789  0  -0.019981  -0.082806  0  4.112342  0
C  C35  1  0.15311318  0.67804244  0.26986494  1  0.140706  0  -0.019607  -0.084272  0  4.11196  0
C  C36  1  0.54149495  0.61455872  0.70907529  1  0.578733  0  0.085028  0.191589  0  4.096106  0
C  C37  1  0.92776231  0.38540358  0.79076447  1  0.557746  0  0.085927  0.195404  0  4.093242  0
C  C38  1  0.45850265  0.38543921  0.29092340  1  0.578666  0  0.085034  0.191644  0  4.096107  0
C  C39  1  0.07223258  0.61459435  0.20923702  1  0.557849  0  0.08587  0.195256  0  4.093501  0
C  C40  1  0.63008029  0.65816146  0.66061054  1  0.179079  0  -0.021729  -0.092987  0  4.10185  0
C  C41  1  0.97252755  0.34170501  0.83919769  1  0.11925  0  -0.021197  -0.092922  0  4.104263  0
C  C42  1  0.36991612  0.34183410  0.33938731  1  0.179501  0  -0.021811  -0.09303  0  4.101801  0
C  C43  1  0.02747174  0.65828816  0.16080304  1  0.119302  0  -0.021102  -0.092597  0  4.104006  0
C  C44  1  0.70212452  0.76844250  0.67500657  1  0.448502  0  0.075395  0.255622  0  4.086499  0
C  C45  1  0.93385248  0.23140417  0.82477336  1  0.494266  0  0.074271  0.252595  0  4.089514  0
C  C46  1  0.29786727  0.23155464  0.32499014  1  0.448231  0  0.075395  0.255582  0  4.086478  0
C  C47  1  0.06614776  0.76858821  0.17521746  1  0.494333  0  0.074025  0.252142  0  4.089745  0
C  C48  1  0.30935918  0.87795777  0.66668986  1  0.021756  0  -0.190755  -0.379408  0  4.143315  0
C  C49  1  0.43112467  0.12236010  0.83355534  1  0.036533  0  -0.19183  -0.379522  0  4.141564  0
C  C50  1  0.69065400  0.12204967  0.33331500  1  0.021518  0  -0.190704  -0.379288  0  4.143391  0
C  C51  1  0.56885471  0.87763387  0.16644552  1  0.036747  0  -0.191835  -0.379388  0  4.141305  0
C  C52  1  0.22995672  0.77271804  0.66696605  1  0.449713  0  0.065526  0.245002  0  4.09365  0
C  C53  1  0.45757263  0.22763704  0.83324407  1  0.429296  0  0.066236  0.245252  0  4.093333  0
C  C54  1  0.77005736  0.22728306  0.33303641  1  0.450051  0  0.065488  0.244952  0  4.094011  0
C  C55  1  0.54239377  0.77235535  0.16675560  1  0.429601  0  0.066175  0.245118  0  4.093217  0
C  C56  1  0.20353913  0.68674794  0.61267007  1  0.122921  0  -0.024797  -0.092658  0  4.120199  0
C  C57  1  0.51738912  0.31360081  0.88754789  1  0.135012  0  -0.026229  -0.093656  0  4.119955  0
C  C58  1  0.79647709  0.31325474  0.38732705  1  0.122706  0  -0.024852  -0.092642  0  4.120077  0
C  C59  1  0.48259240  0.68639475  0.11245042  1  0.135182  0  -0.026209  -0.093457  0  4.1198  0
C  C60  1  0.25708866  0.70868711  0.55394460  1  0.498465  0  0.08129  0.190459  0  4.088305  0
C  C61  1  0.54876700  0.29164897  0.94628346  1  0.549836  0  0.082789  0.191974  0  4.085749  0
C  C62  1  0.74293251  0.29130924  0.44605244  1  0.498182  0  0.081276  0.190459  0  4.088801  0
C  C63  1  0.45121875  0.70834421  0.05371261  1  0.549591  0  0.082701  0.191816  0  4.085817  0
C  C64  1  0.33242705  0.81260117  0.54948627  1  0.218121  0  -0.017329  -0.079974  0  4.107569  0
C  C65  1  0.51934130  0.18770086  0.95078017  1  0.155741  0  -0.018206  -0.080544  0  4.106177  0
C  C66  1  0.66758224  0.18740389  0.45051263  1  0.21816  0  -0.017357  -0.080031  0  4.108035  0
C  C67  1  0.48065822  0.81229549  0.04921687  1  0.155758  0  -0.018115  -0.080308  0  4.106095  0
C  C68  1  0.35429400  0.89397976  0.60621901  1  0.493705  0  0.074432  0.257049  0  4.093517  0
C  C69  1  0.45939715  0.10633256  0.89405931  1  0.502533  0  0.075057  0.257025  0  4.092522  0
C  C70  1  0.64572284  0.10602689  0.39378339  1  0.493384  0  0.07433  0.256938  0  4.093872  0
C  C71  1  0.54059107  0.89365745  0.10593998  1  0.502332  0  0.07493  0.256738  0  4.092499  0
C  C72  1  0.97566657  0.89851900  0.93241139  1  1.048553  0  0.177251  0.23445  0  3.935654  0
C  C73  1  0.07717067  0.10140686  0.56758051  1  1.040417  0  0.176988  0.234041  0  3.934527  0
C  C74  1  0.02432753  0.10147734  0.06759171  1  1.048044  0  0.177222  0.234362  0  3.935345  0
C  C75  1  0.92281742  0.89860453  0.43242684  1  1.039962  0  0.176819  0.233798  0  3.934488  0
C  C76  1  0.91967048  0.75442089  0.97325246  1  0.487065  0  0.063797  0.139355  0  3.938136  0
C  C77  1  0.16391211  0.24566495  0.52683008  1  0.474508  0  0.061833  0.136912  0  3.938827  0
C  C78  1  0.08031259  0.24559130  0.02675455  1  0.520956  0  0.063656  0.139272  0  3.938522  0
C  C79  1  0.83611741  0.75433457  0.47317212  1  0.474207  0  0.061846  0.136834  0  3.939009  0
C  C80  1  0.94364130  0.69161187  0.91345331  1  -0.002419  0  -0.085217  -0.17089  0  3.952452  0
C  C81  1  0.25087137  0.30847475  0.58659628  1  0.017503  0  -0.084879  -0.170497  0  3.952674  0
C  C82  1  0.05633207  0.30839714  0.08655181  1  -0.002558  0  -0.085141  -0.170871  0  3.95258  0
C  C83  1  0.74916165  0.69152635  0.41340524  1  0.01872  0  -0.084793  -0.170467  0  3.95255  0
C  C84  1  0.98391059  0.74034384  0.86335188  1  0.456852  0  0.060189  0.126376  0  3.893045  0
C  C85  1  0.24343145  0.25966122  0.63663164  1  0.422663  0  0.05886  0.124219  0  3.895947  0
C  C86  1  0.01607010  0.25966360  0.13665858  1  0.456486  0  0.060087  0.126294  0  3.893024  0
C  C87  1  0.75660259  0.74034463  0.36336831  1  0.422167  0  0.058847  0.124081  0  3.896217  0
N  N88  1  0.99958762  0.84425632  0.87262549  1  -1.218025  0  -0.337848  -0.217256  0  3.510512  0
N  N89  1  0.15563645  0.15568618  0.62732665  1  -1.185223  0  -0.337454  -0.216229  0  3.510868  0
N  N90  1  0.00040470  0.15575270  0.12737729  1  -1.217897  0  -0.337867  -0.217344  0  3.510273  0
N  N91  1  0.84437515  0.84431808  0.37267491  1  -1.184884  0  -0.337265  -0.215955  0  3.510887  0
N  N92  1  0.93647463  0.85805936  0.98297216  1  -1.182857  0  -0.310064  -0.283251  0  3.301367  0
N  N93  1  0.07767717  0.14192986  0.51708152  1  -1.178445  0  -0.308551  -0.282108  0  3.300524  0
N  N94  1  0.06352012  0.14195995  0.01703366  1  -1.216548  0  -0.31001  -0.283083  0  3.301324  0
N  N95  1  0.92232314  0.85806807  0.48292369  1  -1.178154  0  -0.30864  -0.282007  0  3.300522  0
Cl  Cl96  1  0.41130752  0.62339805  0.82774909  1  -0.147223  0  0.012686  -0.012654  0  1.69894  0
Cl  Cl97  1  0.78826250  0.37685804  0.67225150  1  -0.1503  0  0.012613  -0.012165  0  1.697549  0
Cl  Cl98  1  0.58870909  0.37660542  0.17225002  1  -0.147144  0  0.012646  -0.012694  0  1.698861  0
Cl  Cl99  1  0.21174312  0.62314781  0.32774985  1  -0.150182  0  0.012616  -0.01218  0  1.697717  0
Cl  Cl100  1  0.64296942  0.57740928  0.58605006  1  -0.161365  0  0.0219  -0.007624  0  1.665897  0
Cl  Cl101  1  0.06631796  0.42239860  0.91373395  1  -0.154176  0  0.022256  -0.0071  0  1.667786  0
Cl  Cl102  1  0.35701926  0.42258707  0.41394699  1  -0.161693  0  0.021935  -0.007584  0  1.665976  0
Cl  Cl103  1  0.93367681  0.57758825  0.08626811  1  -0.154244  0  0.022232  -0.007191  0  1.667609  0
Cl  Cl104  1  0.11211660  0.55878110  0.61722004  1  -0.157384  0  0.002079  -0.036119  0  1.738753  0
Cl  Cl105  1  0.55450192  0.44163654  0.88299117  1  -0.159784  0  0.002507  -0.03567  0  1.736592  0
Cl  Cl106  1  0.88789691  0.44122158  0.38277801  1  -0.157213  0  0.00209  -0.036128  0  1.738654  0
Cl  Cl107  1  0.44548310  0.55836059  0.11700554  1  -0.160201  0  0.002518  -0.035708  0  1.736629  0
Cl  Cl108  1  0.39376549  0.83868679  0.47732838  1  -0.146267  0  0.015254  -0.007339  0  1.70732  0
Cl  Cl109  1  0.55447602  0.16156614  0.02294470  1  -0.147009  0  0.015503  -0.007304  0  1.707358  0
Cl  Cl110  1  0.60625416  0.16131193  0.52266904  1  -0.146105  0  0.015318  -0.007243  0  1.707376  0
Cl  Cl111  1  0.44552468  0.83843259  0.97705226  1  -0.146941  0  0.015511  -0.007319  0  1.70735  0
F  F112  1  0.58147476  0.84873300  0.83926568  1  -0.635227  0  -0.101437  -0.126481  0  1.457099  0
F  F113  1  0.73304233  0.15143440  0.66052794  1  -0.633277  0  -0.101795  -0.126807  0  1.460293  0
F  F114  1  0.41852561  0.15127047  0.16073156  1  -0.634539  0  -0.101447  -0.126488  0  1.457138  0
F  F115  1  0.26695811  0.84857462  0.33946692  1  -0.633249  0  -0.101815  -0.126849  0  1.460177  0
F  F116  1  0.46925094  0.50857459  0.69706720  1  -0.647447  0  -0.085227  -0.119645  0  1.47948  0
F  F117  1  0.96225603  0.49142650  0.80280109  1  -0.651038  0  -0.086149  -0.121101  0  1.478713  0
F  F118  1  0.53074124  0.49142334  0.30292963  1  -0.647434  0  -0.085239  -0.119684  0  1.479512  0
F  F119  1  0.03774427  0.50857143  0.19720599  1  -0.65101  0  -0.086102  -0.12108  0  1.478794  0
F  F120  1  0.78735221  0.81029987  0.62742862  1  -0.639848  0  -0.098336  -0.129434  0  1.396481  0
F  F121  1  0.97671031  0.18942644  0.87234801  1  -0.635589  0  -0.097356  -0.127525  0  1.397621  0
F  F122  1  0.21264578  0.18969885  0.37256926  1  -0.639893  0  -0.098334  -0.129427  0  1.396447  0
F  F123  1  0.02328547  0.81056516  0.12764315  1  -0.635765  0  -0.097272  -0.127378  0  1.397689  0
F  F124  1  0.17628576  0.74962110  0.72407732  1  -0.64331  0  -0.105434  -0.137041  0  1.424102  0
F  F125  1  0.42740240  0.25079417  0.77611255  1  -0.644783  0  -0.105407  -0.137136  0  1.421813  0
F  F126  1  0.82372003  0.25038237  0.27592505  1  -0.643318  0  -0.105393  -0.137016  0  1.424085  0
F  F127  1  0.57255499  0.74920455  0.22389093  1  -0.644841  0  -0.105391  -0.137146  0  1.42182  0
F  F128  1  0.23388785  0.62762924  0.50036034  1  -0.630234  0  -0.09956  -0.127363  0  1.447029  0
F  F129  1  0.60720766  0.37267120  0.99985367  1  -0.629985  0  -0.100278  -0.128313  0  1.446938  0
F  F130  1  0.76611764  0.37236552  0.49963459  1  -0.630036  0  -0.099533  -0.127363  0  1.447295  0
F  F131  1  0.39279433  0.62732198  0.00014007  1  -0.629868  0  -0.100198  -0.12828  0  1.447051  0
F  F132  1  0.42579122  0.99466439  0.60104294  1  -0.631114  0  -0.105933  -0.134202  0  1.454943  0
F  F133  1  0.42948514  0.00560754  0.89924714  1  -0.631667  0  -0.1055  -0.133851  0  1.454097  0
F  F134  1  0.57422962  0.00533670  0.39895160  1  -0.630973  0  -0.105859  -0.134173  0  1.455022  0
F  F135  1  0.57052402  0.99438643  0.10075465  1  -0.631641  0  -0.10549  -0.133806  0  1.453979  0
