# generated using pymatgen
data_KH24C12(NO2)3
_symmetry_space_group_name_H-M   'P 1'
_cell_length_a   7.43190757
_cell_length_b   7.83610711
_cell_length_c   13.93007310
_cell_angle_alpha   89.99989740
_cell_angle_beta   89.99998917
_cell_angle_gamma   95.69071708
_symmetry_Int_Tables_number   1
_chemical_formula_structural   KH24C12(NO2)3
_chemical_formula_sum   'K2 H48 C24 N6 O12'
_cell_volume   807.25066441
_cell_formula_units_Z   2
loop_
 _symmetry_equiv_pos_site_id
 _symmetry_equiv_pos_as_xyz
  1  'x, y, z'
loop_
 _atom_site_type_symbol
 _atom_site_label
 _atom_site_symmetry_multiplicity
 _atom_site_fract_x
 _atom_site_fract_y
 _atom_site_fract_z
 _atom_site_occupancy
 _atom_site_hle17_bader_spin_density
 _atom_site_hle17_ddec_charge
 _atom_site_hle17_ddec_spin_density
 _atom_site_hle17_ddec_sum_bond_order
 _atom_site_hle17_magmom
 _atom_site_hse06_10hf_bader_spin_density
 _atom_site_hse06_10hf_ddec_charge
 _atom_site_hse06_10hf_ddec_spin_density
 _atom_site_hse06_10hf_ddec_sum_bond_order
 _atom_site_hse06_10hf_magmom
 _atom_site_hse06_bader_spin_density
 _atom_site_hse06_ddec_charge
 _atom_site_hse06_ddec_spin_density
 _atom_site_hse06_ddec_sum_bond_order
 _atom_site_hse06_magmom
 _atom_site_pbe_bader_spin_density
 _atom_site_pbe_cm5_charge
 _atom_site_pbe_ddec_charge
 _atom_site_pbe_ddec_spin_density
 _atom_site_pbe_ddec_sum_bond_order
 _atom_site_pbe_magmom
K  K0  1  0.49997905  0.50001749  0.50000571  1  0  0.882786  0  0.515521  0  0  0.801475  0  0.719429  0  0  0.819187  0  0.697221  0  0  0.810564  0.788486  0  0.735178  0
K  K1  1  0.00001710  0.49997995  0.00000190  1  0  0.882781  0  0.515526  0  0  0.80148  0  0.719423  0  0  0.819193  0  0.697214  0  0  0.810572  0.788489  0  0.735169  0
H  H2  1  0.51017724  0.81090049  0.21710467  1  0  0.039374  0  0.941175  0  0  0.053288  0  1.01481  0  0  0.05368  0  1.013415  0  0  0.095139  0.052817  0  1.01607  0
H  H3  1  0.98980336  0.18909935  0.71710233  1  0  0.039412  0  0.941251  0  0  0.05334  0  1.014811  0  0  0.053736  0  1.01341  0  0  0.095171  0.052869  0  1.016071  0
H  H4  1  0.48980175  0.18910481  0.78289957  1  0  0.039357  0  0.941257  0  0  0.053341  0  1.014808  0  0  0.053733  0  1.01341  0  0  0.095175  0.05287  0  1.016068  0
H  H5  1  0.01018148  0.81089821  0.28289473  1  0  0.039428  0  0.941131  0  0  0.053345  0  1.014754  0  0  0.053733  0  1.013363  0  0  0.095158  0.052873  0  1.016014  0
H  H6  1  0.34034363  0.75817935  0.30676468  1  0  0.054398  0  0.926619  0  0  0.06746  0  0.996027  0  0  0.068341  0  0.994871  0  0  0.102966  0.066703  0  0.996999  0
H  H7  1  0.15964905  0.24181198  0.80675658  1  0  0.054438  0  0.926645  0  0  0.067496  0  0.996015  0  0  0.068378  0  0.99486  0  0  0.102976  0.066742  0  0.996989  0
H  H8  1  0.65964948  0.24180789  0.69324674  1  0  0.054407  0  0.92664  0  0  0.067516  0  0.996008  0  0  0.068398  0  0.994853  0  0  0.102972  0.06676  0  0.996984  0
H  H9  1  0.84034506  0.75818424  0.19323474  1  0  0.054417  0  0.926609  0  0  0.06746  0  0.996044  0  0  0.068343  0  0.994886  0  0  0.102976  0.066705  0  0.997017  0
H  H10  1  0.34947287  0.53545189  0.17903395  1  0  0.068057  0  0.952032  0  0  0.074237  0  1.026581  0  0  0.075093  0  1.026111  0  0  0.106555  0.073507  0  1.027088  0
H  H11  1  0.15051629  0.46454373  0.67903209  1  0  0.068035  0  0.952097  0  0  0.074142  0  1.026714  0  0  0.075002  0  1.026253  0  0  0.10653  0.073414  0  1.02722  0
H  H12  1  0.65051615  0.46454693  0.82096958  1  0  0.068071  0  0.952024  0  0  0.074224  0  1.026601  0  0  0.075082  0  1.02614  0  0  0.106567  0.0735  0  1.027108  0
H  H13  1  0.84947498  0.53545123  0.32096713  1  0  0.068059  0  0.952075  0  0  0.074228  0  1.026636  0  0  0.075088  0  1.026172  0  0  0.106558  0.073501  0  1.027143  0
H  H14  1  0.57561748  0.50387997  0.21212567  1  0  0.067338  0  0.954185  0  0  0.078019  0  1.021729  0  0  0.078832  0  1.02163  0  0  0.104892  0.077252  0  1.022079  0
H  H15  1  0.92437373  0.49611854  0.71212446  1  0  0.067403  0  0.954115  0  0  0.078091  0  1.021612  0  0  0.078913  0  1.021519  0  0  0.104924  0.077315  0  1.021973  0
H  H16  1  0.42437793  0.49612779  0.78786925  1  0  0.067373  0  0.954129  0  0  0.07808  0  1.021609  0  0  0.078906  0  1.021504  0  0  0.104932  0.077293  0  1.021991  0
H  H17  1  0.07561918  0.50387897  0.28787189  1  0  0.067258  0  0.9541  0  0  0.077952  0  1.021635  0  0  0.078779  0  1.02153  0  0  0.10486  0.077164  0  1.022015  0
H  H18  1  0.43702471  0.19088589  0.27088360  1  0  0.040601  0  0.943496  0  0  0.055978  0  1.014193  0  0  0.056176  0  1.013751  0  0  0.096173  0.05568  0  1.014712  0
H  H19  1  0.06296454  0.80911071  0.77088356  1  0  0.040565  0  0.943431  0  0  0.05598  0  1.014091  0  0  0.056179  0  1.013642  0  0  0.09616  0.055681  0  1.014609  0
H  H20  1  0.56297718  0.80910770  0.72911490  1  0  0.040618  0  0.943302  0  0  0.055972  0  1.014017  0  0  0.056172  0  1.01357  0  0  0.096153  0.055672  0  1.014537  0
H  H21  1  0.93701987  0.19088301  0.22911567  1  0  0.040632  0  0.943465  0  0  0.056007  0  1.014165  0  0  0.056204  0  1.013723  0  0  0.096172  0.055707  0  1.014686  0
H  H22  1  0.23549601  0.26244289  0.22256868  1  0  0.054029  0  0.936798  0  0  0.068705  0  1.004198  0  0  0.069141  0  1.003251  0  0  0.105264  0.06827  0  1.005032  0
H  H23  1  0.26449490  0.73755643  0.72256582  1  0  0.05406  0  0.936747  0  0  0.06869  0  1.004206  0  0  0.06911  0  1.003266  0  0  0.105313  0.068255  0  1.005039  0
H  H24  1  0.76450780  0.73755583  0.77743269  1  0  0.054138  0  0.936795  0  0  0.06881  0  1.004161  0  0  0.069246  0  1.003214  0  0  0.10534  0.068374  0  1.004997  0
H  H25  1  0.73549009  0.26244242  0.27743125  1  0  0.0541  0  0.936865  0  0  0.068785  0  1.004222  0  0  0.069222  0  1.003278  0  0  0.105303  0.068348  0  1.005059  0
H  H26  1  0.09478036  0.24677969  0.38741636  1  0  0.062445  0  0.950358  0  0  0.071765  0  1.022925  0  0  0.072226  0  1.023338  0  0  0.103178  0.071298  0  1.022791  0
H  H27  1  0.40521658  0.75321391  0.88741203  1  0  0.062497  0  0.950265  0  0  0.071798  0  1.022874  0  0  0.072275  0  1.023269  0  0  0.103193  0.071332  0  1.02274  0
H  H28  1  0.90522897  0.75322027  0.61258502  1  0  0.062508  0  0.950308  0  0  0.071765  0  1.022912  0  0  0.072213  0  1.023338  0  0  0.103166  0.071298  0  1.022778  0
H  H29  1  0.59477618  0.24678231  0.11258145  1  0  0.062459  0  0.950352  0  0  0.071753  0  1.022931  0  0  0.072206  0  1.023352  0  0  0.103167  0.071286  0  1.022794  0
H  H30  1  0.15832251  0.04439456  0.34656168  1  0  0.03536  0  0.94487  0  0  0.04838  0  1.019328  0  0  0.04893  0  1.017857  0  0  0.091928  0.047799  0  1.020623  0
H  H31  1  0.34167595  0.95560045  0.84655787  1  0  0.035396  0  0.944816  0  0  0.048412  0  1.019296  0  0  0.04896  0  1.017831  0  0  0.091931  0.047832  0  1.020592  0
H  H32  1  0.84168250  0.95560286  0.65343969  1  0  0.035413  0  0.944845  0  0  0.048407  0  1.019283  0  0  0.048957  0  1.017812  0  0  0.091945  0.047827  0  1.020578  0
H  H33  1  0.65831413  0.04439579  0.15343704  1  0  0.03537  0  0.944868  0  0  0.048401  0  1.019279  0  0  0.048953  0  1.017806  0  0  0.091941  0.047822  0  1.020574  0
H  H34  1  0.18380484  0.95218161  0.51462782  1  0  0.062459  0  0.937296  0  0  0.074555  0  1.007051  0  0  0.075042  0  1.006376  0  0  0.101863  0.074107  0  1.007625  0
H  H35  1  0.31619505  0.04781319  0.01462372  1  0  0.062487  0  0.937274  0  0  0.074618  0  1.006997  0  0  0.075105  0  1.006323  0  0  0.101904  0.074171  0  1.007573  0
H  H36  1  0.81620003  0.04781453  0.48537355  1  0  0.062477  0  0.937291  0  0  0.074596  0  1.006983  0  0  0.075076  0  1.00631  0  0  0.101893  0.07415  0  1.00756  0
H  H37  1  0.68380550  0.95218042  0.98537479  1  0  0.062479  0  0.937364  0  0  0.074593  0  1.007075  0  0  0.075078  0  1.006399  0  0  0.101896  0.074146  0  1.007654  0
H  H38  1  0.11120295  0.15661449  0.54774004  1  0  0.056772  0  0.941049  0  0  0.06707  0  1.013489  0  0  0.067669  0  1.013096  0  0  0.100588  0.066501  0  1.013958  0
H  H39  1  0.38879883  0.84338531  0.04773656  1  0  0.056798  0  0.941024  0  0  0.067086  0  1.013501  0  0  0.067685  0  1.013109  0  0  0.100607  0.066518  0  1.013971  0
H  H40  1  0.88880114  0.84338679  0.45225990  1  0  0.056934  0  0.940888  0  0  0.067189  0  1.013344  0  0  0.067787  0  1.012951  0  0  0.100654  0.066619  0  1.013814  0
H  H41  1  0.61120200  0.15661085  0.95226051  1  0  0.05684  0  0.941008  0  0  0.067115  0  1.013468  0  0  0.067715  0  1.013073  0  0  0.100613  0.066543  0  1.013938  0
H  H42  1  0.51800588  0.96401728  0.40410720  1  0  0.064796  0  0.952788  0  0  0.076691  0  1.017229  0  0  0.078332  0  1.015836  0  0  0.10597  0.075339  0  1.018459  0
H  H43  1  0.98199418  0.03597668  0.90410287  1  0  0.06486  0  0.952744  0  0  0.076707  0  1.017258  0  0  0.078348  0  1.01586  0  0  0.106001  0.075327  0  1.018513  0
H  H44  1  0.48199184  0.03597505  0.59590063  1  0  0.064811  0  0.9528  0  0  0.076685  0  1.01728  0  0  0.078328  0  1.015878  0  0  0.10599  0.075307  0  1.018533  0
H  H45  1  0.01800353  0.96401566  0.09589348  1  0  0.064796  0  0.952773  0  0  0.07669  0  1.017204  0  0  0.078331  0  1.015811  0  0  0.105974  0.075337  0  1.018437  0
H  H46  1  0.70951180  0.98889639  0.32618512  1  0  0.035166  0  0.953287  0  0  0.051019  0  1.023913  0  0  0.050423  0  1.024474  0  0  0.094958  0.05133  0  1.023643  0
H  H47  1  0.79048217  0.01110300  0.82618514  1  0  0.03511  0  0.953295  0  0  0.051029  0  1.02388  0  0  0.050431  0  1.024437  0  0  0.09497  0.051338  0  1.023604  0
H  H48  1  0.29047929  0.01110883  0.67381769  1  0  0.035138  0  0.953232  0  0  0.051045  0  1.023849  0  0  0.05045  0  1.024405  0  0  0.09499  0.051356  0  1.023572  0
H  H49  1  0.20951343  0.98889448  0.17381265  1  0  0.035181  0  0.953274  0  0  0.051033  0  1.023889  0  0  0.050437  0  1.024449  0  0  0.094981  0.051342  0  1.023618  0
C  C50  1  0.46964655  0.72307246  0.27719270  1  0  0.070875  0  3.669635  0  0  0.006233  0  3.947384  0  0  0.013321  0  3.95214  0  0  -0.073655  0.001508  0  3.944097  0
C  C51  1  0.03034537  0.27692410  0.77719104  1  0  0.070644  0  3.669888  0  0  0.006103  0  3.947413  0  0  0.0132  0  3.952183  0  0  -0.073657  0.001376  0  3.944127  0
C  C52  1  0.53034784  0.27692632  0.72281011  1  0  0.07083  0  3.669661  0  0  0.006118  0  3.947393  0  0  0.013214  0  3.952158  0  0  -0.073653  0.001395  0  3.94411  0
C  C53  1  0.96964739  0.72307212  0.22280674  1  0  0.070814  0  3.669645  0  0  0.006173  0  3.947407  0  0  0.013273  0  3.952167  0  0  -0.073662  0.001449  0  3.944123  0
C  C54  1  0.44621775  0.54227186  0.23915853  1  0  0.038401  0  3.644994  0  0  -0.016254  0  3.910006  0  0  -0.010606  0  3.915463  0  0  -0.07749  -0.019971  0  3.906243  0
C  C55  1  0.05377392  0.45772226  0.73915454  1  0  0.038369  0  3.645037  0  0  -0.016227  0  3.909945  0  0  -0.010616  0  3.915442  0  0  -0.07753  -0.019944  0  3.906206  0
C  C56  1  0.55378069  0.45772689  0.76084284  1  0  0.038352  0  3.644899  0  0  -0.016291  0  3.90997  0  0  -0.010667  0  3.91545  0  0  -0.077541  -0.019984  0  3.906169  0
C  C57  1  0.94621616  0.54227398  0.26084109  1  0  0.03845  0  3.644982  0  0  -0.01617  0  3.90996  0  0  -0.010554  0  3.915453  0  0  -0.077454  -0.019853  0  3.906152  0
C  C58  1  0.31983588  0.26216635  0.28793517  1  0  0.058848  0  3.689229  0  0  -0.005327  0  3.967703  0  0  0.001607  0  3.972504  0  0  -0.073635  -0.00996  0  3.964375  0
C  C59  1  0.18015590  0.73782890  0.78793446  1  0  0.058775  0  3.689289  0  0  -0.005382  0  3.967834  0  0  0.001569  0  3.972618  0  0  -0.073707  -0.010009  0  3.964504  0
C  C60  1  0.68017004  0.73782722  0.71206477  1  0  0.058637  0  3.689288  0  0  -0.005484  0  3.967704  0  0  0.001457  0  3.972499  0  0  -0.073733  -0.010115  0  3.964377  0
C  C61  1  0.81983015  0.26216738  0.21206547  1  0  0.058698  0  3.689403  0  0  -0.005471  0  3.967877  0  0  0.001463  0  3.972678  0  0  -0.073695  -0.0101  0  3.964553  0
C  C62  1  0.21115267  0.17548955  0.36914728  1  0  0.046753  0  3.68311  0  0  -0.013949  0  3.959875  0  0  -0.007739  0  3.965567  0  0  -0.078331  -0.018059  0  3.955939  0
C  C63  1  0.28884308  0.82450540  0.86914361  1  0  0.046712  0  3.682899  0  0  -0.014001  0  3.959706  0  0  -0.007801  0  3.965391  0  0  -0.078335  -0.018109  0  3.955767  0
C  C64  1  0.78885354  0.82450658  0.63085409  1  0  0.046595  0  3.682988  0  0  -0.013938  0  3.95956  0  0  -0.007721  0  3.965252  0  0  -0.078322  -0.018046  0  3.95562  0
C  C65  1  0.71114700  0.17549084  0.13085202  1  0  0.046658  0  3.683067  0  0  -0.013959  0  3.959779  0  0  -0.007746  0  3.965472  0  0  -0.078358  -0.018069  0  3.95584  0
C  C66  1  0.23016429  0.08744699  0.53140563  1  0  0.047729  0  3.654273  0  0  -0.01122  0  3.922926  0  0  -0.005224  0  3.929236  0  0  -0.076256  -0.015171  0  3.918475  0
C  C67  1  0.26983573  0.91254903  0.03140209  1  0  0.047689  0  3.654345  0  0  -0.011346  0  3.923101  0  0  -0.005348  0  3.929411  0  0  -0.076315  -0.015296  0  3.918644  0
C  C68  1  0.76984206  0.91255042  0.46859431  1  0  0.047488  0  3.654216  0  0  -0.011404  0  3.922871  0  0  -0.005393  0  3.929158  0  0  -0.076356  -0.015354  0  3.918423  0
C  C69  1  0.73016227  0.08744587  0.96859498  1  0  0.047634  0  3.65437  0  0  -0.011297  0  3.923062  0  0  -0.005293  0  3.929353  0  0  -0.076308  -0.015247  0  3.918606  0
C  C70  1  0.64351785  0.90858931  0.38393217  1  0  0.056981  0  3.675146  0  0  -0.000386  0  3.942521  0  0  0.005733  0  3.948467  0  0  -0.076113  -0.004451  0  3.938393  0
C  C71  1  0.85648102  0.09140602  0.88393281  1  0  0.057029  0  3.675074  0  0  -0.000394  0  3.942519  0  0  0.005733  0  3.948457  0  0  -0.076138  -0.004436  0  3.938394  0
C  C72  1  0.35648192  0.09140944  0.61606993  1  0  0.057033  0  3.675118  0  0  -0.000417  0  3.942575  0  0  0.005706  0  3.948516  0  0  -0.076158  -0.00446  0  3.938449  0
C  C73  1  0.14351698  0.90858889  0.11606641  1  0  0.056971  0  3.675049  0  0  -0.000332  0  3.942412  0  0  0.005785  0  3.94836  0  0  -0.076105  -0.004395  0  3.938283  0
N  N74  1  0.12474815  0.60772138  0.50407027  1  0  -0.604401  0  2.385402  0  0  -0.597927  0  2.620135  0  0  -0.610248  0  2.628214  0  0  -0.343839  -0.589249  0  2.614781  0
N  N75  1  0.37530413  0.39232057  0.00407011  1  0  -0.604689  0  2.386055  0  0  -0.59821  0  2.620742  0  0  -0.61052  0  2.62881  0  0  -0.344081  -0.589534  0  2.61538  0
N  N76  1  0.87531030  0.39232059  0.49592967  1  0  -0.604636  0  2.38649  0  0  -0.598157  0  2.62117  0  0  -0.610454  0  2.629234  0  0  -0.343981  -0.58948  0  2.615809  0
N  N77  1  0.62473805  0.60772023  0.99592839  1  0  -0.604324  0  2.385758  0  0  -0.597856  0  2.620477  0  0  -0.610176  0  2.628565  0  0  -0.343772  -0.589191  0  2.615132  0
N  N78  1  0.00002082  0.50001376  0.49999928  1  0  0.39179  0  4.330841  0  0  0.438658  0  4.606352  0  0  0.453028  0  4.636942  0  0  0.043537  0.42909  0  4.585502  0
N  N79  1  0.50002248  0.50002150  0.99999950  1  0  0.391766  0  4.330764  0  0  0.438639  0  4.606272  0  0  0.453008  0  4.636857  0  0  0.043569  0.42907  0  4.585427  0
O  O80  1  0.60463211  0.73635741  0.35065318  1  0  -0.335463  0  2.28396  0  0  -0.259957  0  2.534174  0  0  -0.276433  0  2.537118  0  0  -0.275651  -0.248282  0  2.531729  0
O  O81  1  0.89537019  0.26364441  0.85065365  1  0  -0.335432  0  2.283916  0  0  -0.259973  0  2.534135  0  0  -0.276452  0  2.537076  0  0  -0.275692  -0.248295  0  2.531679  0
O  O82  1  0.39537213  0.26364515  0.64934604  1  0  -0.335466  0  2.283845  0  0  -0.259952  0  2.534114  0  0  -0.276429  0  2.537057  0  0  -0.27568  -0.248275  0  2.531658  0
O  O83  1  0.10463227  0.73635431  0.14934557  1  0  -0.335473  0  2.283799  0  0  -0.260008  0  2.534033  0  0  -0.276481  0  2.536972  0  0  -0.275698  -0.248333  0  2.531582  0
O  O84  1  0.37763794  0.43296047  0.31624362  1  0  -0.334871  0  2.314979  0  0  -0.261023  0  2.56933  0  0  -0.277173  0  2.570952  0  0  -0.291651  -0.249571  0  2.567833  0
O  O85  1  0.12235843  0.56703979  0.81624166  1  0  -0.334782  0  2.315069  0  0  -0.260967  0  2.569412  0  0  -0.277106  0  2.571041  0  0  -0.291635  -0.249526  0  2.567918  0
O  O86  1  0.62237245  0.56703692  0.68375704  1  0  -0.334784  0  2.314993  0  0  -0.261009  0  2.569346  0  0  -0.277165  0  2.570984  0  0  -0.29167  -0.249556  0  2.56785  0
O  O87  1  0.87763328  0.43295901  0.18375613  1  0  -0.334812  0  2.314987  0  0  -0.261006  0  2.569343  0  0  -0.277152  0  2.570976  0  0  -0.291654  -0.24956  0  2.567848  0
O  O88  1  0.32556488  0.16722852  0.45102625  1  0  -0.322816  0  2.262716  0  0  -0.247291  0  2.506672  0  0  -0.263112  0  2.5083  0  0  -0.269806  -0.236054  0  2.505144  0
O  O89  1  0.17443351  0.83276615  0.95102545  1  0  -0.322844  0  2.262688  0  0  -0.247285  0  2.506656  0  0  -0.263109  0  2.508287  0  0  -0.269823  -0.236044  0  2.505119  0
O  O90  1  0.67444282  0.83276888  0.54897441  1  0  -0.3227  0  2.262628  0  0  -0.247289  0  2.506562  0  0  -0.263111  0  2.508181  0  0  -0.269827  -0.236049  0  2.505027  0
O  O91  1  0.82556315  0.16722877  0.04897449  1  0  -0.322717  0  2.262709  0  0  -0.247269  0  2.506676  0  0  -0.263088  0  2.5083  0  0  -0.269809  -0.23603  0  2.505146  0
