# generated using pymatgen
data_CdH5C7IN4
_symmetry_space_group_name_H-M   'P 1'
_cell_length_a   7.76119943
_cell_length_b   9.88726729
_cell_length_c   11.85746801
_cell_angle_alpha   89.99986665
_cell_angle_beta   90.46672558
_cell_angle_gamma   90.00011589
_symmetry_Int_Tables_number   1
_chemical_formula_structural   CdH5C7IN4
_chemical_formula_sum   'Cd4 H20 C28 I4 N16'
_cell_volume   909.87696577
_cell_formula_units_Z   4
loop_
 _symmetry_equiv_pos_site_id
 _symmetry_equiv_pos_as_xyz
  1  'x, y, z'
loop_
 _atom_site_type_symbol
 _atom_site_label
 _atom_site_symmetry_multiplicity
 _atom_site_fract_x
 _atom_site_fract_y
 _atom_site_fract_z
 _atom_site_occupancy
 _atom_site_pbe_bader_spin_density
 _atom_site_pbe_cm5_charge
 _atom_site_pbe_ddec_charge
 _atom_site_pbe_ddec_spin_density
 _atom_site_pbe_ddec_sum_bond_order
 _atom_site_pbe_magmom
Cd  Cd0  1  0.17521745  0.67042357  0.31395904  1  0  0.620214  0.631177  0  2.444606  0
Cd  Cd1  1  0.32478277  0.17042253  0.68604004  1  0  0.620231  0.631207  0  2.444601  0
Cd  Cd2  1  0.82478295  0.32957813  0.68604044  1  0  0.620211  0.631122  0  2.444639  0
Cd  Cd3  1  0.67521633  0.82957816  0.31396027  1  0  0.620228  0.631177  0  2.444582  0
H  H4  1  0.34686730  0.51516405  0.58385968  1  0  0.121833  0.087404  0  1.037391  0
H  H5  1  0.15313514  0.01516147  0.41613720  1  0  0.121864  0.08739  0  1.037393  0
H  H6  1  0.65313057  0.48483765  0.41613556  1  0  0.121867  0.087387  0  1.03736  0
H  H7  1  0.84686781  0.98483922  0.58386400  1  0  0.121868  0.087402  0  1.037378  0
H  H8  1  0.94331264  0.16007388  0.30239368  1  0  0.102818  0.117758  0  1.024388  0
H  H9  1  0.55669005  0.66007063  0.69760824  1  0  0.102797  0.117742  0  1.024413  0
H  H10  1  0.05668906  0.83992883  0.69760413  1  0  0.10282  0.117757  0  1.024437  0
H  H11  1  0.44331163  0.33992803  0.30239210  1  0  0.102795  0.117747  0  1.024422  0
H  H12  1  0.78895504  0.16390015  0.11601350  1  0  0.099806  0.104141  0  0.997618  0
H  H13  1  0.71105024  0.66390067  0.88398844  1  0  0.099802  0.10412  0  0.99764  0
H  H14  1  0.21104406  0.83609952  0.88398681  1  0  0.099826  0.10417  0  0.99758  0
H  H15  1  0.28895143  0.33609900  0.11601274  1  0  0.099813  0.104134  0  0.997629  0
H  H16  1  0.77335405  0.38304982  0.00854142  1  0  0.086158  0.098577  0  1.059535  0
H  H17  1  0.72664532  0.88305108  0.99146172  1  0  0.086153  0.098566  0  1.059515  0
H  H18  1  0.22664119  0.61694884  0.99145801  1  0  0.086161  0.098576  0  1.059496  0
H  H19  1  0.27335375  0.11694758  0.00854112  1  0  0.086177  0.098594  0  1.059485  0
H  H20  1  0.91728642  0.58830067  0.09242945  1  0  0.094206  0.065167  0  1.055283  0
H  H21  1  0.58271092  0.08829963  0.90757340  1  0  0.09422  0.065175  0  1.055279  0
H  H22  1  0.08271013  0.41170103  0.90756831  1  0  0.094224  0.065199  0  1.055293  0
H  H23  1  0.41728684  0.91169903  0.09243111  1  0  0.094224  0.065193  0  1.055277  0
C  C24  1  0.26753513  0.44979514  0.53151505  1  0  0.134076  0.147497  0  3.988392  0
C  C25  1  0.23246579  0.94979180  0.46848518  1  0  0.134066  0.147567  0  3.988377  0
C  C26  1  0.73246400  0.55020656  0.46848273  1  0  0.134059  0.147523  0  3.988303  0
C  C27  1  0.76753588  0.05020788  0.53151600  1  0  0.134085  0.147562  0  3.988296  0
C  C28  1  0.10800645  0.37480279  0.39899171  1  0  0.193626  0.208816  0  4.087958  0
C  C29  1  0.39199299  0.87480135  0.60100865  1  0  0.193626  0.208862  0  4.087881  0
C  C30  1  0.89199398  0.62519790  0.60100524  1  0  0.193585  0.208859  0  4.087931  0
C  C31  1  0.60800610  0.12519832  0.39899250  1  0  0.193587  0.208841  0  4.087857  0
C  C32  1  0.01111814  0.37102730  0.29337166  1  0  0.122447  0.172126  0  3.997722  0
C  C33  1  0.48888258  0.87102673  0.70662873  1  0  0.122489  0.172205  0  3.997787  0
C  C34  1  0.98888228  0.62897339  0.70662614  1  0  0.122448  0.172046  0  3.997862  0
C  C35  1  0.51111909  0.12897396  0.29337246  1  0  0.122461  0.172104  0  3.997804  0
C  C36  1  0.93353808  0.25253933  0.25306003  1  0  -0.080943  -0.143582  0  3.919165  0
C  C37  1  0.56646228  0.75253798  0.74694084  1  0  -0.080946  -0.143593  0  3.919184  0
C  C38  1  0.06646104  0.74746136  0.74693859  1  0  -0.080939  -0.143578  0  3.919265  0
C  C39  1  0.43353681  0.24746068  0.25306032  1  0  -0.080934  -0.143575  0  3.919255  0
C  C40  1  0.84812502  0.25564340  0.14959795  1  0  -0.071081  -0.018149  0  3.964611  0
C  C41  1  0.65187793  0.75564493  0.85040210  1  0  -0.071081  -0.018165  0  3.964743  0
C  C42  1  0.15187409  0.74435527  0.85040152  1  0  -0.071121  -0.018235  0  3.964737  0
C  C43  1  0.34812375  0.24435474  0.14959740  1  0  -0.071093  -0.01818  0  3.964691  0
C  C44  1  0.84058524  0.37678716  0.08936477  1  0  -0.096111  -0.136125  0  3.984846  0
C  C45  1  0.65941541  0.87678854  0.91063755  1  0  -0.096128  -0.136123  0  3.984919  0
C  C46  1  0.15941000  0.62321150  0.91063466  1  0  -0.096068  -0.135996  0  3.984871  0
C  C47  1  0.34058624  0.12321013  0.08936448  1  0  -0.096124  -0.136085  0  3.984909  0
C  C48  1  0.92019603  0.49061538  0.13522676  1  0  0.033315  0.092135  0  3.991067  0
C  C49  1  0.57980493  0.99061574  0.86477450  1  0  0.033286  0.092117  0  3.99103  0
C  C50  1  0.07980311  0.50938329  0.86477018  1  0  0.033247  0.091982  0  3.991177  0
C  C51  1  0.42019414  0.00938393  0.13522835  1  0  0.033295  0.092066  0  3.991075  0
I  I52  1  0.48246485  0.63191286  0.17951760  1  0  -0.163267  -0.352311  0  1.538055  0
I  I53  1  0.01753655  0.13191297  0.82048241  1  0  -0.163264  -0.352301  0  1.53806  0
I  I54  1  0.51753553  0.36808378  0.82048272  1  0  -0.163258  -0.352282  0  1.538061  0
I  I55  1  0.98246511  0.86808771  0.17951877  1  0  -0.163248  -0.352282  0  1.538046  0
N  N56  1  0.19207185  0.48855011  0.43440050  1  0  -0.364934  -0.343757  0  3.45562  0
N  N57  1  0.30792789  0.98854763  0.56559880  1  0  -0.364938  -0.343828  0  3.455505  0
N  N58  1  0.80792470  0.51145260  0.56559725  1  0  -0.364945  -0.343771  0  3.455456  0
N  N59  1  0.69207379  0.01145306  0.43440154  1  0  -0.364937  -0.343802  0  3.455472  0
N  N60  1  0.23145791  0.31973386  0.55433772  1  0  -0.266147  -0.202746  0  3.531372  0
N  N61  1  0.26854525  0.81973165  0.44566364  1  0  -0.266103  -0.20268  0  3.531338  0
N  N62  1  0.76854120  0.68026884  0.44566175  1  0  -0.266132  -0.202698  0  3.531376  0
N  N63  1  0.73145772  0.18026903  0.55433672  1  0  -0.266118  -0.202679  0  3.531355  0
N  N64  1  0.12917097  0.27041896  0.46938508  1  0  -0.235775  -0.24877  0  3.173836  0
N  N65  1  0.37083076  0.77041668  0.53061720  1  0  -0.235835  -0.248871  0  3.173745  0
N  N66  1  0.87083072  0.72958375  0.53061357  1  0  -0.235738  -0.248765  0  3.173788  0
N  N67  1  0.62916961  0.22958401  0.46938482  1  0  -0.235791  -0.24883  0  3.173705  0
N  N68  1  0.00447824  0.48817804  0.23433644  1  0  -0.33027  -0.279403  0  3.490414  0
N  N69  1  0.49552146  0.98817429  0.76566539  1  0  -0.330236  -0.279395  0  3.490483  0
N  N70  1  0.99551959  0.51182365  0.76566217  1  0  -0.330239  -0.27928  0  3.490414  0
N  N71  1  0.50447762  0.01182336  0.23433661  1  0  -0.330268  -0.279354  0  3.490367  0
