# generated using pymatgen
data_CdCu2H72C56N4(ClO6)2
_symmetry_space_group_name_H-M   'P 1'
_cell_length_a   7.82389111
_cell_length_b   15.45240765
_cell_length_c   15.45235840
_cell_angle_alpha   90.41620126
_cell_angle_beta   101.11781267
_cell_angle_gamma   101.11817061
_symmetry_Int_Tables_number   1
_chemical_formula_structural   CdCu2H72C56N4(ClO6)2
_chemical_formula_sum   'Cd1 Cu2 H72 C56 N4 Cl2 O12'
_cell_volume   1796.77632283
_cell_formula_units_Z   1
loop_
 _symmetry_equiv_pos_site_id
 _symmetry_equiv_pos_as_xyz
  1  'x, y, z'
loop_
 _atom_site_type_symbol
 _atom_site_label
 _atom_site_symmetry_multiplicity
 _atom_site_fract_x
 _atom_site_fract_y
 _atom_site_fract_z
 _atom_site_occupancy
 _atom_site_pbe_bader_charge
 _atom_site_pbe_bader_spin_density
 _atom_site_pbe_cm5_charge
 _atom_site_pbe_ddec_charge
 _atom_site_pbe_ddec_spin_density
 _atom_site_pbe_ddec_sum_bond_order
 _atom_site_pbe_magmom
Cd  Cd0  1  0.00000003  0.00000018  0.00000056  1  1.15492  -0.0  0.662652  0.673547  -0.0  2.393937  0.0
Cu  Cu1  1  0.00000020  0.49999986  0.99999976  1  1.141357  -0.565538  0.711792  0.879198  -0.753159  2.229313  -0.565
Cu  Cu2  1  0.99999997  0.00000087  0.50000098  1  1.141407  0.565524  0.711688  0.879048  0.753145  2.229258  0.565
H  H3  1  0.14072797  0.67182408  0.79229660  1  0.045992  0.000153  0.096978  0.146159  5.3e-05  0.98492  0.0
H  H4  1  0.85927519  0.20770043  0.32818339  1  0.045952  -0.000153  0.097008  0.146224  -5.3e-05  0.98496  0.0
H  H5  1  0.85927332  0.32817606  0.20770227  1  0.046003  0.000153  0.096977  0.146174  5.3e-05  0.984919  0.0
H  H6  1  0.14072506  0.79230037  0.67181667  1  0.045971  -0.000153  0.096987  0.146165  -5.3e-05  0.984935  0.0
H  H7  1  0.37434275  0.71071052  0.83513899  1  0.059962  -0.00116  0.093371  0.141172  -0.000541  0.999155  -0.001
H  H8  1  0.62565344  0.16486049  0.28929370  1  0.060326  0.00116  0.09335  0.141121  0.000541  0.999163  0.001
H  H9  1  0.62565750  0.28929028  0.16486107  1  0.059977  -0.00116  0.09338  0.14118  -0.000541  0.999135  -0.001
H  H10  1  0.37434758  0.83513899  0.71070578  1  0.060307  0.00116  0.093354  0.141126  0.000541  0.999155  0.001
H  H11  1  0.21528313  0.76256876  0.87088730  1  0.104399  -0.00015  0.089885  0.154751  -5.3e-05  1.038598  0.0
H  H12  1  0.78471928  0.12911197  0.23743349  1  0.10449  0.000151  0.089913  0.154854  5.3e-05  1.03853  0.0
H  H13  1  0.78471685  0.23743138  0.12911209  1  0.11231  -0.00015  0.089896  0.154754  -5.3e-05  1.038597  0.0
H  H14  1  0.21528123  0.87088949  0.76256661  1  0.112305  0.000151  0.089933  0.154834  5.3e-05  1.038536  0.0
H  H15  1  0.56054759  0.61822059  0.17262177  1  0.027277  -0.000784  0.095224  0.13752  -0.000362  1.020894  0.0
H  H16  1  0.43946115  0.82737779  0.38177920  1  0.027437  0.000784  0.09525  0.137617  0.000362  1.020901  0.0
H  H17  1  0.43945109  0.38177955  0.82737814  1  0.02728  -0.000784  0.095232  0.137523  -0.000362  1.020895  0.0
H  H18  1  0.56054040  0.17262301  0.61822164  1  0.027409  0.000784  0.095248  0.137616  0.000362  1.020904  0.0
H  H19  1  0.66630155  0.57718407  0.09410716  1  0.073508  -0.000534  0.097947  0.150116  -0.000217  1.033592  0.0
H  H20  1  0.33370312  0.90589164  0.42281649  1  0.073499  0.000533  0.097969  0.150133  0.000217  1.033606  0.0
H  H21  1  0.33369817  0.42281541  0.90589219  1  0.073477  -0.000533  0.097954  0.150106  -0.000217  1.033627  0.0
H  H22  1  0.66629686  0.09410850  0.57718419  1  0.073503  0.000533  0.097957  0.150125  0.000217  1.033618  0.0
H  H23  1  0.53181255  0.50189123  0.15342437  1  0.035061  8.8e-05  0.09712  0.149773  1.4e-05  0.986252  0.0
H  H24  1  0.46819948  0.84657687  0.49811029  1  0.034738  -8.7e-05  0.097111  0.149733  -1.4e-05  0.986325  0.0
H  H25  1  0.46818482  0.49810891  0.84657540  1  0.035034  8.8e-05  0.09712  0.149781  1.4e-05  0.986231  0.0
H  H26  1  0.53180103  0.15342459  0.50189045  1  0.034713  -8.7e-05  0.097114  0.149755  -1.4e-05  0.986257  0.0
H  H27  1  0.38288055  0.80045451  0.04473099  1  0.092749  6e-06  0.100197  0.104382  3e-06  1.044275  0.0
H  H28  1  0.61711886  0.95527173  0.19954404  1  0.092792  -6e-06  0.100217  0.104384  -3e-06  1.044238  0.0
H  H29  1  0.61711396  0.19954497  0.95526914  1  0.092794  6e-06  0.100196  0.104369  3e-06  1.044303  0.0
H  H30  1  0.38288373  0.04472841  0.80045624  1  0.092822  -6e-06  0.100224  0.104406  -3e-06  1.044237  0.0
H  H31  1  0.63120479  0.93106560  0.05163792  1  0.099622  4e-06  0.097895  0.072922  6e-06  1.073217  0.0
H  H32  1  0.36879798  0.94836363  0.06893404  1  0.099353  -4e-06  0.097885  0.072914  -6e-06  1.073244  0.0
H  H33  1  0.36879493  0.06893388  0.94836338  1  0.099842  4e-06  0.097886  0.072904  6e-06  1.073239  0.0
H  H34  1  0.63120330  0.05163651  0.93106611  1  0.099346  -4e-06  0.0979  0.072931  -6e-06  1.073241  0.0
H  H35  1  0.94288584  0.78179108  0.95549749  1  0.085849  6e-06  0.103632  0.077502  7e-06  1.034804  0.0
H  H36  1  0.05711322  0.04449756  0.21821019  1  0.085933  -6e-06  0.103624  0.077461  -7e-06  1.034816  0.0
H  H37  1  0.05711571  0.21820972  0.04450334  1  0.085884  6e-06  0.103602  0.077441  7e-06  1.03482  0.0
H  H38  1  0.94288597  0.95550060  0.78179040  1  0.08592  -6e-06  0.103617  0.077454  -7e-06  1.034821  0.0
H  H39  1  0.71496111  0.64240457  0.95031515  1  0.124902  4.2e-05  0.106887  0.127817  -1.9e-05  1.028803  0.0
H  H40  1  0.28503724  0.04968047  0.35759647  1  0.124868  -4.2e-05  0.106916  0.127832  1.9e-05  1.028815  0.0
H  H41  1  0.28503679  0.35759690  0.04968533  1  0.124842  4.2e-05  0.106882  0.127791  -1.9e-05  1.028808  0.0
H  H42  1  0.71496195  0.95031769  0.64240347  1  0.124884  -4.2e-05  0.106919  0.127832  1.9e-05  1.028785  0.0
H  H43  1  0.92833600  0.59839693  0.24725219  1  -0.004015  -9e-05  0.087022  0.045612  -7.6e-05  1.001316  0.0
H  H44  1  0.07166712  0.75274865  0.40160357  1  -0.004026  9e-05  0.087047  0.04563  7.6e-05  1.001325  0.0
H  H45  1  0.07166633  0.40160255  0.75274742  1  -0.004049  -9e-05  0.08702  0.045616  -7.6e-05  1.00129  0.0
H  H46  1  0.92833313  0.24725215  0.59839520  1  -0.004016  9e-05  0.087034  0.045616  7.6e-05  1.001284  0.0
H  H47  1  0.03889815  0.51670087  0.21235345  1  0.053232  8.5e-05  0.103932  0.082491  3.5e-05  0.995439  0.0
H  H48  1  0.96110443  0.78764640  0.48330148  1  0.053208  -8.5e-05  0.103913  0.082486  -3.5e-05  0.995472  0.0
H  H49  1  0.96110314  0.48329927  0.78764670  1  0.053234  8.5e-05  0.103929  0.0825  3.5e-05  0.995436  0.0
H  H50  1  0.03889555  0.21235374  0.51669725  1  0.053179  -8.5e-05  0.103906  0.082447  -3.5e-05  0.995486  0.0
H  H51  1  0.32564997  0.60635141  0.27117804  1  0.026489  3e-06  0.090087  0.089211  2e-06  0.990327  0.0
H  H52  1  0.67435294  0.72882242  0.39364942  1  0.026443  -3e-06  0.090101  0.089217  -2e-06  0.990308  0.0
H  H53  1  0.67435027  0.39364939  0.72882202  1  0.026482  3e-06  0.090083  0.089201  2e-06  0.990333  0.0
H  H54  1  0.32564808  0.27117706  0.60634941  1  0.026416  -3e-06  0.090075  0.089202  -2e-06  0.990299  0.0
H  H55  1  0.20905648  0.65909531  0.33649084  1  0.012914  4.1e-05  0.08605  0.075052  2.5e-05  1.020009  0.0
H  H56  1  0.79094686  0.66351038  0.34090526  1  0.012934  -4.1e-05  0.086041  0.075042  -2.5e-05  1.019975  0.0
H  H57  1  0.79094507  0.34090549  0.66350935  1  0.012914  4.1e-05  0.08605  0.075053  2.5e-05  1.020005  0.0
H  H58  1  0.20905416  0.33648910  0.65909486  1  0.012941  -4.1e-05  0.086048  0.075056  -2.5e-05  1.019976  0.0
H  H59  1  0.25784231  0.78741838  0.25205725  1  0.026782  6.9e-05  0.087114  0.082169  4.8e-05  1.030433  0.0
H  H60  1  0.74215703  0.74794394  0.21258141  1  0.026701  -6.9e-05  0.087115  0.082198  -4.8e-05  1.030407  0.0
H  H61  1  0.74215690  0.21258308  0.74794271  1  0.026722  6.9e-05  0.087106  0.082149  4.8e-05  1.03041  0.0
H  H62  1  0.25784373  0.25205488  0.78741804  1  0.026723  -6.9e-05  0.087111  0.082179  -4.8e-05  1.030416  0.0
H  H63  1  0.37308969  0.73142314  0.18920176  1  0.032838  8e-06  0.087  0.082659  9e-06  1.033739  0.0
H  H64  1  0.62690974  0.81079855  0.26857598  1  0.032594  -8e-06  0.087003  0.082655  -9e-06  1.033738  0.0
H  H65  1  0.62691056  0.26857766  0.81079894  1  0.032828  8e-06  0.086994  0.082663  9e-06  1.033735  0.0
H  H66  1  0.37308971  0.18920027  0.73142334  1  0.032599  -8e-06  0.086989  0.082647  -9e-06  1.033745  0.0
H  H67  1  0.98605447  0.74704232  0.14962161  1  0.030007  1.4e-05  0.087283  0.04709  -6e-06  1.020364  0.0
H  H68  1  0.01394581  0.85037844  0.25295846  1  0.030266  -1.4e-05  0.087276  0.047075  6e-06  1.020368  0.0
H  H69  1  0.01394551  0.25295782  0.85037778  1  0.030006  1.4e-05  0.087285  0.04708  -6e-06  1.02035  0.0
H  H70  1  0.98605548  0.14962170  0.74704106  1  0.030118  -1.4e-05  0.087288  0.047088  6e-06  1.020404  0.0
H  H71  1  0.12252643  0.73091447  0.07323581  1  0.069205  3.3e-05  0.099915  0.068971  3.3e-05  1.0109  0.0
H  H72  1  0.87747176  0.92676391  0.26908592  1  0.069198  -3.3e-05  0.099906  0.068949  -3.3e-05  1.010907  0.0
H  H73  1  0.87747459  0.26908501  0.92676432  1  0.069205  3.3e-05  0.099918  0.068964  3.3e-05  1.010892  0.0
H  H74  1  0.12252666  0.07323557  0.73091331  1  0.069204  -3.3e-05  0.099925  0.06897  -3.3e-05  1.010931  0.0
C  C75  1  0.24117279  0.69838673  0.85087720  1  -0.117106  -0.012175  -0.247134  -0.477851  -0.008766  3.911475  -0.01
C  C76  1  0.75882893  0.14912695  0.30161100  1  -0.117582  0.012176  -0.24713  -0.477872  0.008767  3.911447  0.01
C  C77  1  0.75882850  0.30161341  0.14912167  1  -0.117075  -0.012175  -0.24713  -0.477851  -0.008766  3.911462  -0.01
C  C78  1  0.24117262  0.85087385  0.69838854  1  -0.117441  0.012176  -0.247144  -0.477796  0.008766  3.911407  0.01
C  C79  1  0.22580544  0.63491938  0.92373186  1  0.726459  0.002065  0.126563  0.442969  0.000558  4.001596  0.003
C  C80  1  0.77419110  0.07626904  0.36508118  1  0.72601  -0.002066  0.126464  0.442695  -0.000559  4.001493  -0.003
C  C81  1  0.77419455  0.36508076  0.07626753  1  0.726009  0.002065  0.126561  0.442965  0.000558  4.001613  0.003
C  C82  1  0.22581045  0.92373176  0.63491901  1  0.725907  -0.002066  0.126431  0.442652  -0.000559  4.001524  -0.003
C  C83  1  0.37558179  0.63339665  0.99196539  1  0.037815  -0.005901  -0.070734  -0.31984  -0.003912  3.979723  -0.006
C  C84  1  0.62440669  0.00803428  0.36660276  1  0.037675  0.0059  -0.070729  -0.319724  0.003911  3.979659  0.006
C  C85  1  0.62441819  0.36660349  0.00803464  1  0.03781  -0.005901  -0.070733  -0.319813  -0.003911  3.979701  -0.006
C  C86  1  0.37559486  0.99196652  0.63339937  1  0.037743  0.0059  -0.070725  -0.319791  0.00391  3.979759  0.006
C  C87  1  0.37893558  0.56596569  0.05343821  1  0.71894  0.002054  0.122965  0.44506  0.000416  3.99612  0.003
C  C88  1  0.62106371  0.94656287  0.43403890  1  0.719201  -0.002056  0.122848  0.444779  -0.000417  3.99606  -0.003
C  C89  1  0.62106441  0.43403445  0.94656052  1  0.71901  0.002054  0.122891  0.444933  0.000416  3.996167  0.003
C  C90  1  0.37893497  0.05343727  0.56596230  1  0.719136  -0.002057  0.122883  0.444848  -0.000418  3.995948  -0.003
C  C91  1  0.54530173  0.56540543  0.12184545  1  -0.043217  -0.012291  -0.244474  -0.481313  -0.008872  3.901263  -0.01
C  C92  1  0.45469584  0.87814855  0.43459667  1  -0.043104  0.012291  -0.244479  -0.481269  0.008872  3.901172  0.01
C  C93  1  0.45469695  0.43459472  0.87815381  1  -0.043189  -0.012291  -0.244473  -0.481284  -0.008872  3.901286  -0.01
C  C94  1  0.54530440  0.12185225  0.56540404  1  -0.043065  0.012292  -0.244479  -0.481305  0.008873  3.90105  0.01
C  C95  1  0.52826136  0.70917152  0.99873789  1  -0.060529  0.000646  0.009774  0.157521  0.00042  3.992501  0.001
C  C96  1  0.47172906  0.00126040  0.29082597  1  -0.060659  -0.000646  0.009681  0.157413  -0.00042  3.992766  -0.001
C  C97  1  0.47173758  0.29082929  0.00126334  1  -0.060279  0.000646  0.009756  0.157483  0.00042  3.992525  0.001
C  C98  1  0.52827196  0.99873908  0.70917415  1  -0.060788  -0.000646  0.009691  0.157426  -0.00042  3.992855  -0.001
C  C99  1  0.50739706  0.79223322  0.02727298  1  -0.023951  -0.000943  -0.090047  -0.182684  -0.000622  3.944723  -0.001
C  C100  1  0.49260811  0.97272950  0.20776776  1  -0.023583  0.000942  -0.090093  -0.182679  0.000622  3.944687  0.001
C  C101  1  0.49260006  0.20776627  0.97272806  1  -0.024018  -0.000943  -0.090017  -0.182641  -0.000622  3.944704  -0.001
C  C102  1  0.50739447  0.02727064  0.79223188  1  -0.023901  0.000942  -0.090069  -0.18268  0.000622  3.94472  0.001
C  C103  1  0.64334669  0.86535128  0.03040897  1  0.465183  0.000239  0.034521  0.087731  0.000161  3.95982  0.0
C  C104  1  0.35665733  0.96959205  0.13464880  1  0.464918  -0.000239  0.034585  0.087725  -0.000161  3.959804  0.0
C  C105  1  0.35665015  0.13464754  0.96959139  1  0.465061  0.000239  0.034546  0.087749  0.000161  3.959858  0.0
C  C106  1  0.64334395  0.03040808  0.86535071  1  0.465253  -0.000239  0.034538  0.087733  -0.000161  3.959769  0.0
C  C107  1  0.81819926  0.78172383  0.97728631  1  0.487384  -5e-06  0.040419  0.092652  2e-06  3.966555  0.0
C  C108  1  0.18180422  0.02271002  0.21827799  1  0.486848  5e-06  0.040407  0.092616  -2e-06  3.966456  0.0
C  C109  1  0.18180072  0.21827631  0.02271243  1  0.487077  -5e-06  0.040418  0.092695  2e-06  3.966519  0.0
C  C110  1  0.81819497  0.97728814  0.78172195  1  0.487154  5e-06  0.040477  0.092714  -2e-06  3.966483  0.0
C  C111  1  0.68974523  0.70473973  0.97367036  1  -0.038099  -0.000964  -0.083098  -0.178879  -0.000641  3.900205  -0.001
C  C112  1  0.31025656  0.02632706  0.29526241  1  -0.037652  0.000964  -0.083071  -0.178788  0.000641  3.900246  0.001
C  C113  1  0.31025371  0.29526107  0.02633023  1  -0.038063  -0.000964  -0.083096  -0.178874  -0.000641  3.90022  -0.001
C  C114  1  0.68974263  0.97367110  0.70473753  1  -0.037927  0.000964  -0.083116  -0.1788  0.000641  3.900281  0.001
C  C115  1  0.04099333  0.58770247  0.21757359  1  0.466294  9.3e-05  -0.074279  0.035364  4.1e-05  3.873822  0.0
C  C116  1  0.95900809  0.78242702  0.41229799  1  0.466256  -9.3e-05  -0.074298  0.035289  -4.1e-05  3.87405  0.0
C  C117  1  0.95900925  0.41229767  0.78242670  1  0.466249  9.3e-05  -0.074276  0.035312  4.1e-05  3.873839  0.0
C  C118  1  0.04099163  0.21757246  0.58770072  1  0.466321  -9.3e-05  -0.074278  0.035351  -4.1e-05  3.873866  0.0
C  C119  1  0.21753926  0.64282004  0.26830581  1  -0.031764  2.7e-05  -0.167911  -0.1747  2e-05  3.903738  0.0
C  C120  1  0.78246337  0.73169532  0.35717987  1  -0.031773  -2.7e-05  -0.167936  -0.174674  -2e-05  3.903726  0.0
C  C121  1  0.78246072  0.35718010  0.73169423  1  -0.03175  2.7e-05  -0.167911  -0.174687  2e-05  3.903698  0.0
C  C122  1  0.21753792  0.26830482  0.64281964  1  -0.031761  -2.7e-05  -0.167925  -0.174698  -2e-05  3.903595  0.0
C  C123  1  0.24925869  0.72603721  0.21381570  1  -0.040668  5.6e-05  -0.17413  -0.191379  4e-05  3.9048  0.0
C  C124  1  0.75074109  0.78618505  0.27396291  1  -0.040465  -5.6e-05  -0.174157  -0.191462  -4e-05  3.90483  0.0
C  C125  1  0.75074025  0.27396359  0.78618488  1  -0.040594  5.6e-05  -0.174115  -0.191353  4e-05  3.904773  0.0
C  C126  1  0.24926020  0.21381509  0.72603660  1  -0.040477  -5.6e-05  -0.174106  -0.19136  -4e-05  3.904713  0.0
C  C127  1  0.08878801  0.71134411  0.13686376  1  0.401572  0.000133  -0.076001  0.03542  6.7e-05  3.881288  0.0
C  C128  1  0.91121140  0.86313728  0.28865686  1  0.401395  -0.000133  -0.075915  0.035558  -6.7e-05  3.881241  0.0
C  C129  1  0.91121224  0.28865669  0.86313630  1  0.401579  0.000133  -0.075981  0.035479  6.7e-05  3.881249  0.0
C  C130  1  0.08878728  0.13686287  0.71134240  1  0.401562  -0.000133  -0.075983  0.035437  -6.7e-05  3.881373  0.0
N  N131  1  0.79729026  0.86069668  0.00607361  1  -1.227798  -0.001005  -0.330137  -0.23758  -0.000668  3.492642  -0.001
N  N132  1  0.20270991  0.99392435  0.13930291  1  -1.227804  0.001005  -0.330112  -0.237482  0.000668  3.492638  0.001
N  N133  1  0.20270946  0.13930280  0.99392703  1  -1.227862  -0.001005  -0.330122  -0.237542  -0.000668  3.492714  -0.001
N  N134  1  0.79729084  0.00607447  0.86069719  1  -1.227797  0.001005  -0.330131  -0.2376  0.000668  3.492604  0.001
Cl  Cl135  1  0.18481270  0.91622165  0.91622234  1  -0.701052  0.0  -0.316136  -0.539883  0.0  1.13473  0.0
Cl  Cl136  1  0.81518467  0.08377849  0.08377809  1  -0.701021  0.0  -0.316145  -0.53989  0.0  1.134743  0.0
O  O137  1  0.07223787  0.58498429  0.91684275  1  -1.096873  -0.092369  -0.309138  -0.475038  -0.062264  2.391197  -0.085
O  O138  1  0.92776826  0.08316326  0.41501830  1  -1.096439  0.092369  -0.309059  -0.474899  0.062266  2.390987  0.085
O  O139  1  0.92776341  0.41501585  0.08315676  1  -1.096442  -0.092371  -0.309149  -0.475053  -0.062266  2.391189  -0.085
O  O140  1  0.07223172  0.91683688  0.58498173  1  -1.09642  0.092369  -0.309048  -0.474866  0.062266  2.390957  0.085
O  O141  1  0.24776521  0.50282756  0.05718553  1  -1.089046  -0.094861  -0.304541  -0.483354  -0.064036  2.379864  -0.087
O  O142  1  0.75223157  0.94280911  0.49718475  1  -1.089056  0.094868  -0.304416  -0.483187  0.064043  2.379774  0.087
O  O143  1  0.75223477  0.49717258  0.94281385  1  -1.089051  -0.094858  -0.304495  -0.483279  -0.064034  2.379852  -0.087
O  O144  1  0.24776816  0.05719367  0.50281657  1  -1.088951  0.094872  -0.304434  -0.483201  0.064044  2.379761  0.087
O  O145  1  0.01889507  0.61812023  0.12926106  1  -1.044063  0.001433  -0.233644  -0.267508  0.001044  2.508508  0.0
O  O146  1  0.98110551  0.87073952  0.38187996  1  -1.043926  -0.001433  -0.233667  -0.267516  -0.001044  2.508519  0.0
O  O147  1  0.98110595  0.38187925  0.87073842  1  -1.044074  0.001433  -0.233664  -0.267522  0.001044  2.508597  0.0
O  O148  1  0.01889317  0.12926063  0.61811930  1  -1.043953  -0.001433  -0.233661  -0.267504  -0.001044  2.508573  0.0
