# generated using pymatgen
data_CuH34C34N6(O3F)2
_symmetry_space_group_name_H-M   'P 1'
_cell_length_a   5.27537318
_cell_length_b   13.52735080
_cell_length_c   22.47526372
_cell_angle_alpha   89.99899668
_cell_angle_beta   90.00045523
_cell_angle_gamma   102.08235201
_symmetry_Int_Tables_number   1
_chemical_formula_structural   CuH34C34N6(O3F)2
_chemical_formula_sum   'Cu2 H68 C68 N12 O12 F4'
_cell_volume   1568.34635749
_cell_formula_units_Z   2
loop_
 _symmetry_equiv_pos_site_id
 _symmetry_equiv_pos_as_xyz
  1  'x, y, z'
loop_
 _atom_site_type_symbol
 _atom_site_label
 _atom_site_symmetry_multiplicity
 _atom_site_fract_x
 _atom_site_fract_y
 _atom_site_fract_z
 _atom_site_occupancy
 _atom_site_pbe_bader_charge
 _atom_site_pbe_bader_spin_density
 _atom_site_pbe_cm5_charge
 _atom_site_pbe_ddec_charge
 _atom_site_pbe_ddec_spin_density
 _atom_site_pbe_ddec_sum_bond_order
 _atom_site_pbe_magmom
Cu  Cu0  1  0.99998858  0.99999686  0.49999853  1  1.080521  0.567109  0.698938  0.78698  0.748181  2.060238  0.568
Cu  Cu1  1  0.00003794  0.50000713  0.99999750  1  1.080669  -0.567099  0.699113  0.787331  -0.74817  2.059674  -0.568
H  H2  1  0.52112479  0.13312479  0.66093464  1  0.1218  -9e-06  0.111107  0.129837  -1e-05  1.057322  0.0
H  H3  1  0.47887362  0.36686918  0.16092608  1  0.123138  9e-06  0.111117  0.129861  1e-05  1.057267  0.0
H  H4  1  0.47887052  0.86686720  0.33907250  1  0.122953  -9e-06  0.111113  0.129806  -1e-05  1.057348  0.0
H  H5  1  0.52115182  0.63314105  0.83907661  1  0.122564  9e-06  0.111087  0.129774  1e-05  1.057329  0.0
H  H6  1  0.20717860  0.41900428  0.75125702  1  0.104331  -9.6e-05  0.107897  0.123051  -6.8e-05  1.044867  0.0
H  H7  1  0.79281031  0.08099597  0.25125609  1  0.104342  9.5e-05  0.107916  0.123054  6.8e-05  1.044919  0.0
H  H8  1  0.79282474  0.58099605  0.24874433  1  0.104294  -9.5e-05  0.107924  0.123057  -6.8e-05  1.044994  0.0
H  H9  1  0.20716641  0.91900046  0.74874215  1  0.104183  9.5e-05  0.107924  0.123084  6.8e-05  1.044951  0.0
H  H10  1  0.77107730  0.35728720  0.57029287  1  0.138446  0.000123  0.126585  0.108339  0.000125  1.010165  0.0
H  H11  1  0.22892838  0.14270353  0.07029346  1  0.138346  -0.000123  0.126564  0.108313  -0.000125  1.010165  0.0
H  H12  1  0.22893322  0.64270486  0.42970849  1  0.138476  0.000123  0.126575  0.10827  0.000125  1.010141  0.0
H  H13  1  0.77105861  0.85729446  0.92970033  1  0.13834  -0.000123  0.126549  0.108281  -0.000125  1.010232  0.0
H  H14  1  0.79348784  0.43015540  0.70502048  1  0.101108  -4.5e-05  0.108199  0.071901  -2.6e-05  1.031478  0.0
H  H15  1  0.20651573  0.06982560  0.20501451  1  0.101303  4.5e-05  0.108165  0.071803  2.6e-05  1.031277  0.0
H  H16  1  0.20654089  0.56983147  0.29498844  1  0.101164  -4.5e-05  0.108132  0.071739  -2.6e-05  1.031475  0.0
H  H17  1  0.79349254  0.93017324  0.79498061  1  0.101139  4.5e-05  0.108144  0.071687  2.6e-05  1.031307  0.0
H  H18  1  0.91529198  0.52709524  0.57919622  1  0.072322  0.000125  0.112738  0.143207  8.8e-05  0.978361  0.0
H  H19  1  0.08465395  0.97289462  0.07918590  1  0.071535  -0.000125  0.112757  0.143132  -8.8e-05  0.978436  0.0
H  H20  1  0.08465165  0.47289576  0.42081181  1  0.071522  0.000125  0.112782  0.143177  8.8e-05  0.978615  0.0
H  H21  1  0.91529693  0.02710321  0.92081189  1  0.071831  -0.000125  0.11268  0.143106  -8.8e-05  0.978225  0.0
H  H22  1  0.70209551  0.56224111  0.63621399  1  0.040913  1.2e-05  0.098181  0.119308  2e-06  1.030621  0.0
H  H23  1  0.29787133  0.93773889  0.13620150  1  0.040417  -1.2e-05  0.098177  0.119355  -2e-06  1.03056  0.0
H  H24  1  0.29787084  0.43773491  0.36380471  1  0.04041  1.2e-05  0.098164  0.119348  2e-06  1.030644  0.0
H  H25  1  0.70204984  0.06224522  0.86379585  1  0.040469  -1.2e-05  0.098152  0.119309  -2e-06  1.030693  0.0
H  H26  1  0.09236635  0.60133088  0.70707074  1  0.09008  3e-06  0.095871  0.124222  -0.0  1.024244  0.0
H  H27  1  0.90762606  0.89864683  0.20706322  1  0.09019  -3e-06  0.095759  0.124109  0.0  1.024403  0.0
H  H28  1  0.90762933  0.39865810  0.29293240  1  0.090292  3e-06  0.095826  0.124205  -0.0  1.024328  0.0
H  H29  1  0.09231270  0.10135697  0.79293457  1  0.090076  -3e-06  0.09582  0.124247  0.0  1.024349  0.0
H  H30  1  0.28989925  0.56087001  0.64803025  1  0.05848  4.9e-05  0.103404  0.125101  3e-05  1.018103  0.0
H  H31  1  0.71006864  0.93911387  0.14802412  1  0.058506  -4.9e-05  0.103453  0.125042  -3e-05  1.018119  0.0
H  H32  1  0.71008699  0.43913023  0.35196310  1  0.05829  4.9e-05  0.103422  0.125107  3e-05  1.018122  0.0
H  H33  1  0.28988278  0.06091111  0.85197412  1  0.058438  -4.9e-05  0.103465  0.125064  -3e-05  1.018066  0.0
H  H34  1  0.52565156  0.49816286  0.80044553  1  0.03896  -0.000804  0.104214  0.081558  -0.000401  1.007988  0.0
H  H35  1  0.47442341  0.00184637  0.30044907  1  0.038506  0.000805  0.104144  0.081408  0.000401  1.008135  0.0
H  H36  1  0.47440995  0.50184377  0.19955137  1  0.03841  -0.000805  0.104142  0.081383  -0.000401  1.00818  0.0
H  H37  1  0.52549817  0.99814227  0.69954250  1  0.038672  0.000805  0.104094  0.081281  0.000401  1.008192  0.0
H  H38  1  0.31642689  0.43912456  0.85834670  1  0.064785  -9.5e-05  0.102244  0.083533  -4.1e-05  0.988065  0.0
H  H39  1  0.68361923  0.06089641  0.35834854  1  0.064694  9.5e-05  0.102296  0.083361  4.1e-05  0.988075  0.0
H  H40  1  0.68362024  0.56089105  0.14165510  1  0.064997  -9.5e-05  0.102286  0.083379  -4.1e-05  0.988033  0.0
H  H41  1  0.31632510  0.93908479  0.64164169  1  0.064326  9.4e-05  0.102291  0.08324  4.1e-05  0.987902  0.0
H  H42  1  0.66955657  0.56349109  0.90174934  1  0.090062  -0.000582  0.108112  0.093924  -0.000198  1.039625  0.0
H  H43  1  0.33051048  0.93652143  0.40175402  1  0.089745  0.000582  0.108195  0.094061  0.000198  1.039635  0.0
H  H44  1  0.33051334  0.43652085  0.09824667  1  0.08974  -0.000582  0.108184  0.094016  -0.000198  1.039716  0.0
H  H45  1  0.66941947  0.06346876  0.59823755  1  0.090047  0.000582  0.108183  0.09414  0.000198  1.039595  0.0
H  H46  1  0.90790695  0.51201216  0.86292815  1  0.058314  -0.001223  0.101296  0.080681  -0.000529  0.996606  -0.001
H  H47  1  0.09216069  0.98798441  0.36292673  1  0.058122  0.001222  0.101419  0.080881  0.000529  0.996516  0.001
H  H48  1  0.09215796  0.48798995  0.13706831  1  0.058223  -0.001222  0.101437  0.080918  -0.000529  0.996498  -0.001
H  H49  1  0.90777768  0.01201863  0.63706617  1  0.058483  0.001222  0.101552  0.081124  0.000529  0.99664  0.001
H  H50  1  0.96757604  0.33792170  0.89626227  1  0.035998  -0.00116  0.100786  0.077161  -0.000476  1.002525  -0.001
H  H51  1  0.03243860  0.16207667  0.39625055  1  0.035815  0.00116  0.100803  0.077162  0.000477  1.002599  0.001
H  H52  1  0.03244362  0.66207342  0.10374264  1  0.036195  -0.00116  0.100789  0.07721  -0.000476  1.002548  -0.001
H  H53  1  0.96755682  0.83793418  0.60374858  1  0.03597  0.00116  0.100792  0.077142  0.000476  1.002621  0.001
H  H54  1  0.75215825  0.27682428  0.95240816  1  0.092894  -0.00047  0.113354  0.104419  -0.000124  0.983738  0.0
H  H55  1  0.24782506  0.22318441  0.45240101  1  0.092665  0.00047  0.113272  0.104395  0.000124  0.983803  0.0
H  H56  1  0.24785047  0.72318663  0.04759720  1  0.092625  -0.00047  0.113327  0.104345  -0.000124  0.983902  0.0
H  H57  1  0.75218360  0.77681519  0.54759723  1  0.092674  0.00047  0.113279  0.104423  0.000124  0.983743  0.0
H  H58  1  0.37896663  0.26229286  0.89007819  1  0.103198  3.3e-05  0.103092  0.098539  4.7e-05  1.011081  0.0
H  H59  1  0.62103775  0.23772542  0.39007082  1  0.103335  -3.2e-05  0.103042  0.098442  -4.7e-05  1.01114  0.0
H  H60  1  0.62104253  0.73773012  0.10993162  1  0.103163  3.2e-05  0.103058  0.098424  4.7e-05  1.011177  0.0
H  H61  1  0.37896555  0.76226737  0.60992030  1  0.103241  -3.3e-05  0.103082  0.098521  -4.7e-05  1.011255  0.0
H  H62  1  0.61958088  0.21196755  0.85186033  1  0.043175  -0.00086  0.100082  0.080734  -0.000426  1.04513  0.0
H  H63  1  0.38042022  0.28803472  0.35184730  1  0.042843  0.00086  0.100118  0.080686  0.000426  1.0453  0.0
H  H64  1  0.38039925  0.78802815  0.14815215  1  0.042598  -0.00086  0.1001  0.080672  -0.000426  1.045271  0.0
H  H65  1  0.61957855  0.71196407  0.64814693  1  0.042886  0.00086  0.100113  0.080699  0.000426  1.045402  0.0
H  H66  1  0.55991680  0.41679445  0.95880437  1  0.497921  0.000328  0.295507  0.262211  -0.000256  0.969123  0.0
H  H67  1  0.44010844  0.08322313  0.45880153  1  0.497745  -0.000327  0.295489  0.262167  0.000256  0.969214  0.0
H  H68  1  0.44015050  0.58322729  0.04119832  1  0.497659  0.000327  0.295459  0.262137  -0.000256  0.969209  0.0
H  H69  1  0.55985797  0.91676420  0.54119093  1  0.497497  -0.000327  0.295486  0.262241  0.000256  0.969183  0.0
C  C70  1  0.82196597  0.20193443  0.51034569  1  1.573768  -0.000335  0.203655  0.592488  0.001141  4.220862  0.0
C  C71  1  0.17804683  0.29806116  0.01033948  1  1.573536  0.000333  0.203615  0.592522  -0.001143  4.220546  0.0
C  C72  1  0.17804002  0.79806364  0.48965655  1  1.573372  -0.000334  0.203783  0.592506  0.001142  4.220787  0.0
C  C73  1  0.82199001  0.70194912  0.98965921  1  1.573732  0.000333  0.203565  0.5924  -0.001141  4.220471  0.0
C  C74  1  0.97596164  0.23791193  0.56548596  1  -0.017  0.000221  -0.047059  -0.247146  6.3e-05  3.995729  0.0
C  C75  1  0.02405524  0.26208893  0.06548045  1  -0.017261  -0.000221  -0.047206  -0.247439  -6.3e-05  3.99579  0.0
C  C76  1  0.02404279  0.76207935  0.43451317  1  -0.016469  0.00022  -0.047042  -0.247152  6.2e-05  3.995568  0.0
C  C77  1  0.97598695  0.73792817  0.93452090  1  -0.015459  -0.000221  -0.046926  -0.246934  -6.3e-05  3.995258  0.0
C  C78  1  0.17013274  0.19141246  0.59266875  1  0.865191  -0.000608  0.119865  0.346763  -0.000392  4.120837  0.0
C  C79  1  0.82985574  0.30857394  0.09266409  1  0.86543  0.000607  0.11992  0.346844  0.000392  4.120916  0.0
C  C80  1  0.82986522  0.80857728  0.40733038  1  0.864748  -0.000608  0.119848  0.34668  -0.000393  4.12089  0.0
C  C81  1  0.17017617  0.69143783  0.90733859  1  0.864893  0.000608  0.119864  0.346709  0.000393  4.120928  0.0
C  C82  1  0.26957643  0.23677934  0.64964192  1  0.025608  -9.2e-05  -0.033193  -0.088696  -6.8e-05  4.009706  0.0
C  C83  1  0.73040228  0.26321517  0.14963932  1  0.025627  9.2e-05  -0.033136  -0.088609  6.7e-05  4.009828  0.0
C  C84  1  0.73041852  0.76321567  0.35035721  1  0.025731  -9.2e-05  -0.03314  -0.088512  -6.8e-05  4.009636  0.0
C  C85  1  0.26961329  0.73679803  0.85036115  1  0.025729  9.2e-05  -0.033215  -0.088706  6.7e-05  4.00993  0.0
C  C86  1  0.44846004  0.19401394  0.68161386  1  0.00811  -9.7e-05  -0.100015  -0.217582  -5.5e-05  4.057682  0.0
C  C87  1  0.55153200  0.30597811  0.18160923  1  0.006122  9.7e-05  -0.100081  -0.217668  5.5e-05  4.057889  0.0
C  C88  1  0.55154631  0.80598112  0.31838616  1  0.006342  -9.7e-05  -0.100035  -0.217591  -5.5e-05  4.057944  0.0
C  C89  1  0.44846946  0.69402598  0.81838857  1  0.006676  9.7e-05  -0.099903  -0.217319  5.5e-05  4.057579  0.0
C  C90  1  0.53669706  0.23029774  0.73616255  1  0.362077  -0.000165  0.084035  0.179439  -0.000111  4.048539  0.0
C  C91  1  0.46329836  0.26969809  0.23615559  1  0.362011  0.000165  0.084149  0.179516  0.000111  4.048723  0.0
C  C92  1  0.46330359  0.76969729  0.26384281  1  0.362696  -0.000165  0.084161  0.179506  -0.000111  4.048864  0.0
C  C93  1  0.53669054  0.73030368  0.76384043  1  0.362015  0.000165  0.084025  0.179343  0.000111  4.04871  0.0
C  C94  1  0.45597098  0.31288829  0.76433215  1  0.495149  -0.000357  0.097314  0.098617  -0.000325  4.095072  0.0
C  C95  1  0.54403402  0.18710829  0.26432615  1  0.495757  0.000357  0.09717  0.098397  0.000325  4.095341  0.0
C  C96  1  0.54404148  0.68711132  0.23567054  1  0.495395  -0.000357  0.097222  0.098463  -0.000325  4.095169  0.0
C  C97  1  0.45594157  0.81288965  0.73566897  1  0.495509  0.000358  0.097192  0.098381  0.000325  4.095127  0.0
C  C98  1  0.27995673  0.35695792  0.73172663  1  -0.061782  -0.000387  -0.112737  -0.289264  -0.000272  3.978048  0.0
C  C99  1  0.72004032  0.14304043  0.23172354  1  -0.062527  0.000387  -0.11268  -0.289157  0.000272  3.978353  0.0
C  C100  1  0.72005686  0.64304019  0.26827473  1  -0.061955  -0.000387  -0.112696  -0.289245  -0.000272  3.978278  0.0
C  C101  1  0.27994821  0.85696059  0.76827426  1  -0.062198  0.000387  -0.112697  -0.28919  0.000272  3.97829  0.0
C  C102  1  0.19067819  0.32095227  0.67520910  1  0.360251  -0.000166  0.102292  0.163605  -0.000115  4.013014  0.0
C  C103  1  0.80932480  0.17904169  0.17520212  1  0.360867  0.000166  0.102184  0.163448  0.000115  4.01311  0.0
C  C104  1  0.80934262  0.67904512  0.32479492  1  0.36023  -0.000166  0.10219  0.16353  -0.000116  4.012898  0.0
C  C105  1  0.19067933  0.82096391  0.82479567  1  0.360863  0.000166  0.10221  0.163452  0.000116  4.013145  0.0
C  C106  1  0.91461993  0.32201446  0.59168903  1  0.439613  -0.000442  0.054039  0.04211  -0.000288  3.933485  0.0
C  C107  1  0.08537553  0.17797805  0.09168345  1  0.440131  0.000442  0.054174  0.042414  0.000289  3.933516  0.0
C  C108  1  0.08539021  0.67797684  0.40831188  1  0.439468  -0.000442  0.053974  0.042194  -0.000289  3.933667  0.0
C  C109  1  0.91462747  0.82202906  0.90831435  1  0.438794  0.000443  0.053962  0.042083  0.000289  3.933694  0.0
C  C110  1  0.92447306  0.45052319  0.66738403  1  0.270144  9e-06  -0.001589  0.065107  -4e-06  3.925737  0.0
C  C111  1  0.07550981  0.04946357  0.16737710  1  0.265078  -9e-06  -0.001532  0.065555  4e-06  3.925044  0.0
C  C112  1  0.07553669  0.54946736  0.33261955  1  0.265608  9e-06  -0.001497  0.06564  -4e-06  3.924799  0.0
C  C113  1  0.92447986  0.95053971  0.83262069  1  0.271081  -9e-06  -0.001524  0.065767  4e-06  3.924891  0.0
C  C114  1  0.87211645  0.53146682  0.62638125  1  -0.054702  4.9e-05  -0.166514  -0.2432  4.2e-05  3.88679  0.0
C  C115  1  0.12786554  0.96852285  0.12637307  1  -0.048857  -4.9e-05  -0.166541  -0.243232  -4.2e-05  3.886659  0.0
C  C116  1  0.12785449  0.46851450  0.37362856  1  -0.048995  4.9e-05  -0.166493  -0.243195  4.2e-05  3.886644  0.0
C  C117  1  0.87209105  0.03147500  0.87362384  1  -0.05298  -4.9e-05  -0.166461  -0.243213  -4.2e-05  3.886557  0.0
C  C118  1  0.09975476  0.55376513  0.66831626  1  -0.088815  3.6e-05  -0.177315  -0.25875  3.6e-05  3.903118  0.0
C  C119  1  0.90022849  0.94622222  0.16831116  1  -0.088844  -3.6e-05  -0.177233  -0.258674  -3.6e-05  3.903286  0.0
C  C120  1  0.90023256  0.44622230  0.33168287  1  -0.089015  3.6e-05  -0.177319  -0.258905  3.6e-05  3.903018  0.0
C  C121  1  0.09972587  0.05378618  0.83168619  1  -0.090825  -3.6e-05  -0.177302  -0.258917  -3.6e-05  3.903402  0.0
C  C122  1  0.51226206  0.44700493  0.83876727  1  0.276872  -0.006058  -0.065194  -0.083238  -0.004268  3.917028  -0.005
C  C123  1  0.48777882  0.05299900  0.33877026  1  0.278018  0.006056  -0.065262  -0.082806  0.004267  3.916979  0.005
C  C124  1  0.48778236  0.55300161  0.16123142  1  0.277387  -0.006057  -0.065272  -0.082838  -0.004267  3.91705  -0.005
C  C125  1  0.51216212  0.94698671  0.66122264  1  0.277939  0.006059  -0.065234  -0.082448  0.004267  3.916594  0.005
C  C126  1  0.71674376  0.49387023  0.88445999  1  0.24732  -0.000696  -0.078978  -0.070364  -0.00125  3.90479  0.001
C  C127  1  0.28331207  0.00613652  0.38446156  1  0.248436  0.000696  -0.079238  -0.070922  0.00125  3.905504  -0.001
C  C128  1  0.28332498  0.50613567  0.11554003  1  0.248394  -0.000696  -0.079172  -0.070855  -0.001251  3.905315  0.001
C  C129  1  0.71662929  0.99385749  0.61553223  1  0.248288  0.000695  -0.079407  -0.071532  0.001252  3.905931  -0.001
C  C130  1  0.77067448  0.32840143  0.91441035  1  0.28485  -0.001389  -0.073507  -0.043083  -0.001757  3.889724  0.0
C  C131  1  0.22933982  0.17160649  0.41440416  1  0.285768  0.001388  -0.073563  -0.043246  0.001758  3.890262  0.0
C  C132  1  0.22935245  0.67160428  0.08559367  1  0.284679  -0.001389  -0.073589  -0.043373  -0.001758  3.890162  0.0
C  C133  1  0.77065328  0.82839605  0.58559408  1  0.2853  0.001389  -0.07353  -0.043225  0.001758  3.890052  0.0
C  C134  1  0.57003587  0.28146611  0.86822999  1  0.27309  -0.006678  -0.073356  -0.100889  -0.004726  3.896571  -0.005
C  C135  1  0.42997836  0.21854210  0.36822164  1  0.273394  0.00668  -0.073304  -0.100722  0.004726  3.896792  0.005
C  C136  1  0.42997930  0.71854256  0.13177714  1  0.274005  -0.006679  -0.073307  -0.100626  -0.004726  3.896768  -0.005
C  C137  1  0.57000786  0.78145437  0.63177482  1  0.273489  0.006679  -0.073362  -0.100869  0.004726  3.897256  0.005
N  N138  1  0.01648373  0.36515232  0.64317844  1  -1.253797  -0.00028  -0.234919  -0.020159  -0.000176  3.739381  0.0
N  N139  1  0.98350249  0.13484107  0.14316991  1  -1.253806  0.00028  -0.235045  -0.020572  0.000176  3.7395  0.0
N  N140  1  0.98352715  0.63483672  0.35682558  1  -1.253879  -0.000281  -0.234925  -0.020449  -0.000176  3.739301  0.0
N  N141  1  0.01650091  0.86517057  0.85682789  1  -1.253871  0.000281  -0.234877  -0.020332  0.000176  3.739296  0.0
N  N142  1  0.56009472  0.35062443  0.81812762  1  -1.142582  -0.001561  -0.299586  -0.093955  -0.000835  3.598228  -0.001
N  N143  1  0.43992893  0.14937604  0.31812763  1  -1.143418  0.001562  -0.299453  -0.093725  0.000835  3.598085  0.001
N  N144  1  0.43992839  0.64937750  0.18187195  1  -1.143243  -0.001562  -0.299476  -0.093792  -0.000835  3.598202  -0.001
N  N145  1  0.56003978  0.85061583  0.68186794  1  -1.143584  0.001562  -0.299328  -0.093533  0.000835  3.598065  0.001
N  N146  1  0.73381884  0.42766000  0.93565114  1  -1.056591  -0.094672  -0.484791  -0.312449  -0.064004  3.465431  -0.08
N  N147  1  0.26620424  0.07234980  0.43564919  1  -1.057072  0.094667  -0.484603  -0.312229  0.064001  3.465615  0.08
N  N148  1  0.26623623  0.57234886  0.06434844  1  -1.056247  -0.094675  -0.484651  -0.312172  -0.064005  3.465434  -0.08
N  N149  1  0.73376831  0.92764963  0.56434416  1  -1.056733  0.094673  -0.484624  -0.312214  0.064005  3.465704  0.08
O  O150  1  0.79004714  0.10807198  0.49359356  1  -1.145583  0.076387  -0.332951  -0.561049  0.050753  2.351171  0.069
O  O151  1  0.20998193  0.39192860  0.99359774  1  -1.145731  -0.076371  -0.332936  -0.56116  -0.050742  2.351126  -0.069
O  O152  1  0.20995011  0.89192756  0.50640335  1  -1.145524  0.076373  -0.332954  -0.561032  0.050743  2.351316  0.069
O  O153  1  0.79006669  0.60808249  0.00640273  1  -1.145573  -0.07638  -0.333061  -0.561239  -0.050753  2.350997  -0.069
O  O154  1  0.71821050  0.26453452  0.48382979  1  -1.172631  0.025496  -0.328805  -0.545774  0.016704  2.11203  0.021
O  O155  1  0.28182377  0.23546362  0.98382714  1  -1.172516  -0.025495  -0.32869  -0.545607  -0.016704  2.111711  -0.021
O  O156  1  0.28180919  0.73546815  0.51617290  1  -1.172362  0.025493  -0.328879  -0.545791  0.016702  2.112097  0.021
O  O157  1  0.71822825  0.76454296  0.01617955  1  -1.172788  -0.025503  -0.328724  -0.545668  -0.016709  2.111743  -0.021
O  O158  1  0.25083401  0.11707100  0.57184633  1  -1.133382  -0.001268  -0.301379  -0.478692  -0.000789  2.228807  0.0
O  O159  1  0.74917719  0.38291590  0.07183985  1  -1.13357  0.001266  -0.301401  -0.478748  0.000787  2.228985  0.0
O  O160  1  0.74915175  0.88290963  0.42816125  1  -1.133249  -0.001268  -0.301355  -0.478699  -0.000788  2.228985  0.0
O  O161  1  0.25087450  0.61710124  0.92816685  1  -1.133423  0.001267  -0.301419  -0.478817  0.000787  2.229253  0.0
F  F162  1  0.72166588  0.18735648  0.76307028  1  -0.648293  -0.000195  -0.091441  -0.134978  -0.000107  1.392059  0.0
F  F163  1  0.27831797  0.31263932  0.26305768  1  -0.648126  0.000195  -0.091526  -0.13503  0.000107  1.391946  0.0
F  F164  1  0.27830354  0.81262559  0.23693775  1  -0.648331  -0.000195  -0.091545  -0.135032  -0.000107  1.392154  0.0
F  F165  1  0.72165382  0.68735860  0.73693522  1  -0.648063  0.000194  -0.091525  -0.13507  0.000107  1.392035  0.0
