# generated using pymatgen
data_ZnH5C7NO3
_symmetry_space_group_name_H-M   'P 1'
_cell_length_a   6.19394632
_cell_length_b   16.15428408
_cell_length_c   16.37000595
_cell_angle_alpha   90.00071394
_cell_angle_beta   90.00046012
_cell_angle_gamma   89.99914549
_symmetry_Int_Tables_number   1
_chemical_formula_structural   ZnH5C7NO3
_chemical_formula_sum   'Zn8 H40 C56 N8 O24'
_cell_volume   1637.96263577
_cell_formula_units_Z   8
loop_
 _symmetry_equiv_pos_site_id
 _symmetry_equiv_pos_as_xyz
  1  'x, y, z'
loop_
 _atom_site_type_symbol
 _atom_site_label
 _atom_site_symmetry_multiplicity
 _atom_site_fract_x
 _atom_site_fract_y
 _atom_site_fract_z
 _atom_site_occupancy
 _atom_site_pbe_bader_charge
 _atom_site_pbe_bader_spin_density
 _atom_site_pbe_cm5_charge
 _atom_site_pbe_ddec_charge
 _atom_site_pbe_ddec_spin_density
 _atom_site_pbe_ddec_sum_bond_order
 _atom_site_pbe_magmom
Zn  Zn0  1  0.95094031  0.90087499  0.65030421  1  1.296891  0  0.675659  0.844847  0  2.352924  0
Zn  Zn1  1  0.45168386  0.84773695  0.59571217  1  1.297068  0  0.675959  0.845207  0  2.354183  0
Zn  Zn2  1  0.95096715  0.09912293  0.34969521  1  1.296796  0  0.675651  0.844807  0  2.352989  0
Zn  Zn3  1  0.45171478  0.15226080  0.40428766  1  1.297291  0  0.675871  0.845162  0  2.354253  0
Zn  Zn4  1  0.95095341  0.40088194  0.84969567  1  1.29682  0  0.67562  0.844789  0  2.353109  0
Zn  Zn5  1  0.45169543  0.34773778  0.90428624  1  1.297271  0  0.675896  0.845146  0  2.35423  0
Zn  Zn6  1  0.95096051  0.59912032  0.15030191  1  1.296842  0  0.675629  0.844739  0  2.353089  0
Zn  Zn7  1  0.45169514  0.65225688  0.09570748  1  1.297205  0  0.675938  0.845125  0  2.354302  0
H  H8  1  0.29400270  0.05653466  0.57043227  1  0.06617  0  0.099749  0.080853  0  0.990937  0
H  H9  1  0.47399509  0.01356591  0.64346205  1  0.06006  0  0.099712  0.074202  0  1.013966  0
H  H10  1  0.40308214  0.14615496  0.72684764  1  0.115783  0  0.107386  0.120701  0  1.02808  0
H  H11  1  0.79810538  0.14460728  0.85650092  1  0.121398  0  0.114325  0.133858  0  0.988181  0
H  H12  1  0.69386492  0.01802696  0.77373527  1  0.13014  0  0.116103  0.092209  0  1.014795  0
H  H13  1  0.97461828  0.85844490  0.48469743  1  0.094553  0  0.099999  0.074342  0  1.01498  0
H  H14  1  0.79579937  0.93431906  0.44480711  1  0.071531  0  0.100015  0.081888  0  0.991763  0
H  H15  1  0.90128836  0.77936366  0.35019235  1  0.119812  0  0.107555  0.121298  0  1.026487  0
H  H16  1  0.29654285  0.64784204  0.34877443  1  0.116192  0  0.113958  0.133176  0  0.989169  0
H  H17  1  0.19388308  0.72755073  0.47666300  1  0.117374  0  0.11627  0.093268  0  1.014453  0
H  H18  1  0.29407355  0.94346196  0.42955448  1  0.06647  0  0.099719  0.080706  0  0.990904  0
H  H19  1  0.47403423  0.98643545  0.35651704  1  0.059502  0  0.099701  0.074117  0  1.014123  0
H  H20  1  0.40310062  0.85383745  0.27314234  1  0.115291  0  0.107326  0.120546  0  1.028367  0
H  H21  1  0.79809391  0.85538825  0.14350436  1  0.121387  0  0.114356  0.133873  0  0.988244  0
H  H22  1  0.69388245  0.98197463  0.22626862  1  0.130245  0  0.116121  0.09228  0  1.014788  0
H  H23  1  0.97464186  0.14156467  0.51530141  1  0.094285  0  0.100002  0.07432  0  1.014905  0
H  H24  1  0.79585032  0.06568825  0.55519510  1  0.071082  0  0.10008  0.081926  0  0.991761  0
H  H25  1  0.90132699  0.22065740  0.64979660  1  0.119976  0  0.107547  0.1213  0  1.026567  0
H  H26  1  0.29651407  0.35214157  0.65123370  1  0.116154  0  0.11403  0.133247  0  0.989021  0
H  H27  1  0.19386208  0.27242964  0.52334924  1  0.117614  0  0.116247  0.093015  0  1.014642  0
H  H28  1  0.29405481  0.55653988  0.92956351  1  0.066202  0  0.0998  0.080857  0  0.990924  0
H  H29  1  0.47401425  0.51356465  0.85652188  1  0.059699  0  0.099731  0.074132  0  1.014063  0
H  H30  1  0.40308255  0.64616069  0.77314698  1  0.115455  0  0.107405  0.120658  0  1.028267  0
H  H31  1  0.79808076  0.64461510  0.64350898  1  0.121552  0  0.114326  0.13383  0  0.98828  0
H  H32  1  0.69384612  0.51803830  0.72627961  1  0.129709  0  0.116118  0.092296  0  1.014819  0
H  H33  1  0.97463388  0.35843775  0.01529805  1  0.094445  0  0.099975  0.074302  0  1.014975  0
H  H34  1  0.79584043  0.43431674  0.05519451  1  0.070943  0  0.100019  0.081854  0  0.991667  0
H  H35  1  0.90131299  0.27936129  0.14980387  1  0.119627  0  0.107513  0.121304  0  1.026483  0
H  H36  1  0.29652878  0.14786445  0.15123690  1  0.116349  0  0.11404  0.133324  0  0.988962  0
H  H37  1  0.19387632  0.22756720  0.02334670  1  0.117623  0  0.116287  0.093094  0  1.014616  0
H  H38  1  0.29407149  0.44345303  0.07044767  1  0.066271  0  0.099745  0.080782  0  0.990834  0
H  H39  1  0.47402637  0.48643548  0.14348410  1  0.059676  0  0.09974  0.074163  0  1.014112  0
H  H40  1  0.40309859  0.35383852  0.22686132  1  0.115361  0  0.107336  0.120575  0  1.028338  0
H  H41  1  0.79808785  0.35539529  0.35649447  1  0.12192  0  0.11438  0.133912  0  0.988244  0
H  H42  1  0.69387058  0.48197505  0.27372549  1  0.130176  0  0.116116  0.092237  0  1.014737  0
H  H43  1  0.97462465  0.64156502  0.98469896  1  0.094642  0  0.099999  0.074352  0  1.014927  0
H  H44  1  0.79584155  0.56568252  0.94480404  1  0.072045  0  0.100035  0.081864  0  0.991769  0
H  H45  1  0.90129429  0.72064058  0.85019547  1  0.119641  0  0.107547  0.121345  0  1.02643  0
H  H46  1  0.29651361  0.85214640  0.84877124  1  0.11618  0  0.114026  0.133256  0  0.989151  0
H  H47  1  0.19385270  0.77243112  0.97665088  1  0.117538  0  0.116264  0.09313  0  1.014531  0
C  C48  1  0.30356222  0.01456592  0.62393902  1  0.491152  0  -0.08058  0.005495  0  3.97785  0
C  C49  1  0.17102817  0.05219134  0.69204602  1  0.462337  0  0.120444  0.226504  0  3.946415  0
C  C50  1  0.24375962  0.11973020  0.73758161  1  0.032535  0  -0.079275  -0.189136  0  3.907787  0
C  C51  1  0.11159527  0.15278528  0.79839537  1  -0.062575  0  0.006577  0.03322  0  3.94387  0
C  C52  1  0.90688892  0.11813761  0.81120948  1  -0.00191  0  -0.078678  -0.147665  0  3.938261  0
C  C53  1  0.84788702  0.04967264  0.76515649  1  0.445301  0  0.043645  0.091004  0  3.958674  0
C  C54  1  0.18760893  0.22482080  0.84902078  1  1.579974  0  0.207532  0.568646  0  4.192356  0
C  C55  1  0.80443229  0.87860279  0.48428569  1  0.454457  0  -0.079721  0.0054  0  3.97665  0
C  C56  1  0.67093353  0.81125230  0.44473845  1  0.489709  0  0.121535  0.22799  0  3.944512  0
C  C57  1  0.74243394  0.76760384  0.37629843  1  -0.096816  0  -0.079056  -0.188697  0  3.908753  0
C  C58  1  0.60984083  0.70700886  0.34210248  1  0.017547  0  0.005788  0.030784  0  3.947346  0
C  C59  1  0.40544372  0.69294145  0.37615842  1  0.005544  0  -0.078091  -0.14607  0  3.939798  0
C  C60  1  0.34739516  0.73727577  0.44534005  1  0.412319  0  0.044186  0.089936  0  3.959505  0
C  C61  1  0.68564875  0.65712240  0.27007538  1  1.595781  0  0.207487  0.56734  0  4.194858  0
C  C62  1  0.30360202  0.98543252  0.37605019  1  0.49191  0  -0.080382  0.005972  0  3.977998  0
C  C63  1  0.17105628  0.94780584  0.30794785  1  0.463066  0  0.120464  0.226601  0  3.946139  0
C  C64  1  0.24378622  0.88026294  0.26241178  1  0.032346  0  -0.079179  -0.188931  0  3.907165  0
C  C65  1  0.11159568  0.84720723  0.20160147  1  -0.062297  0  0.006515  0.033073  0  3.943564  0
C  C66  1  0.90689055  0.88185866  0.18879231  1  -0.001929  0  -0.078708  -0.147686  0  3.938346  0
C  C67  1  0.84789498  0.95032699  0.23484276  1  0.445257  0  0.043661  0.090957  0  3.958492  0
C  C68  1  0.18761110  0.77517569  0.15097496  1  1.580611  0  0.207518  0.568737  0  4.192168  0
C  C69  1  0.80446166  0.12139828  0.51571655  1  0.455316  0  -0.079627  0.005589  0  3.976112  0
C  C70  1  0.67094970  0.18874939  0.55526052  1  0.489491  0  0.121441  0.227772  0  3.944421  0
C  C71  1  0.74245021  0.23240619  0.62369637  1  -0.09693  0  -0.078972  -0.188621  0  3.90887  0
C  C72  1  0.60983599  0.29299311  0.65789516  1  0.01765  0  0.005747  0.030717  0  3.94754  0
C  C73  1  0.40542748  0.30705094  0.62384623  1  0.00555  0  -0.078192  -0.14618  0  3.939581  0
C  C74  1  0.34738528  0.26271256  0.55466817  1  0.412107  0  0.044214  0.090259  0  3.959303  0
C  C75  1  0.68565191  0.34287985  0.72992116  1  1.595755  0  0.207517  0.567313  0  4.194748  0
C  C76  1  0.30357876  0.51456985  0.87605381  1  0.491953  0  -0.080642  0.005586  0  3.978216  0
C  C77  1  0.17103774  0.55219752  0.80795195  1  0.462901  0  0.120666  0.226673  0  3.946129  0
C  C78  1  0.24376615  0.61973457  0.76241792  1  0.032617  0  -0.079336  -0.189006  0  3.907741  0
C  C79  1  0.11158699  0.65278950  0.70160742  1  -0.062199  0  0.006535  0.033106  0  3.943857  0
C  C80  1  0.90686733  0.61814414  0.68879722  1  -0.002205  0  -0.078591  -0.147583  0  3.938343  0
C  C81  1  0.84787010  0.54967976  0.73485232  1  0.445607  0  0.043662  0.090984  0  3.958694  0
C  C82  1  0.18760069  0.72482191  0.65097569  1  1.58024  0  0.20748  0.568675  0  4.192645  0
C  C83  1  0.80445597  0.37860122  0.01571282  1  0.454916  0  -0.079612  0.005612  0  3.976221  0
C  C84  1  0.67094391  0.31125493  0.05526024  1  0.489891  0  0.121509  0.227924  0  3.944396  0
C  C85  1  0.74244806  0.26760486  0.12370044  1  -0.096789  0  -0.079061  -0.188789  0  3.908807  0
C  C86  1  0.60984472  0.20701464  0.15789787  1  0.01742  0  0.005746  0.030604  0  3.947853  0
C  C87  1  0.40544656  0.19295547  0.12384815  1  0.006662  0  -0.078142  -0.146146  0  3.93984  0
C  C88  1  0.34739584  0.23728768  0.05466880  1  0.411164  0  0.044125  0.090112  0  3.959371  0
C  C89  1  0.68567104  0.15713094  0.22991653  1  1.595825  0  0.207768  0.567856  0  4.194644  0
C  C90  1  0.30359194  0.48542797  0.12395006  1  0.491892  0  -0.080505  0.005744  0  3.978096  0
C  C91  1  0.17105317  0.44780524  0.19205476  1  0.462973  0  0.120446  0.226559  0  3.946129  0
C  C92  1  0.24378129  0.38026662  0.23759073  1  0.032333  0  -0.07917  -0.188853  0  3.907432  0
C  C93  1  0.11159426  0.34721354  0.29840225  1  -0.062808  0  0.006583  0.033082  0  3.943803  0
C  C94  1  0.90688631  0.38186389  0.31120885  1  -0.002015  0  -0.078746  -0.147787  0  3.938419  0
C  C95  1  0.84789092  0.45032979  0.26515609  1  0.445272  0  0.043627  0.091029  0  3.958309  0
C  C96  1  0.18759997  0.27517892  0.34902922  1  1.580581  0  0.207566  0.568801  0  4.19253  0
C  C97  1  0.80444605  0.62139862  0.98428269  1  0.453999  0  -0.07966  0.005456  0  3.976444  0
C  C98  1  0.67093125  0.68874490  0.94473690  1  0.489793  0  0.121603  0.228109  0  3.944379  0
C  C99  1  0.74243124  0.73239589  0.87629864  1  -0.096633  0  -0.079074  -0.188801  0  3.908837  0
C  C100  1  0.60982725  0.79298486  0.84210527  1  0.017605  0  0.005843  0.030907  0  3.947072  0
C  C101  1  0.40541981  0.80705240  0.87615650  1  0.005522  0  -0.078241  -0.146295  0  3.939416  0
C  C102  1  0.34737491  0.76271179  0.94533330  1  0.412038  0  0.044133  0.090027  0  3.959184  0
C  C103  1  0.68563932  0.84287688  0.77007757  1  1.595426  0  0.207516  0.567303  0  4.194808  0
N  N104  1  0.97798002  0.01735424  0.70721445  1  -1.27564  0  -0.327229  -0.285865  0  3.533874  0
N  N105  1  0.47840776  0.79465427  0.47897642  1  -1.223042  0  -0.327759  -0.284988  0  3.536576  0
N  N106  1  0.97801251  0.98264356  0.29278257  1  -1.276209  0  -0.32724  -0.285924  0  3.533785  0
N  N107  1  0.47841241  0.20534089  0.52102773  1  -1.223108  0  -0.327692  -0.284879  0  3.536518  0
N  N108  1  0.97797621  0.51736270  0.79278990  1  -1.276163  0  -0.327428  -0.286145  0  3.533882  0
N  N109  1  0.47841707  0.29466018  0.02102480  1  -1.223305  0  -0.327666  -0.28486  0  3.536435  0
N  N110  1  0.97800018  0.48264315  0.20721689  1  -1.276134  0  -0.327187  -0.285884  0  3.533637  0
N  N111  1  0.47839502  0.70533621  0.97896957  1  -1.223133  0  -0.327735  -0.284888  0  3.536502  0
O  O112  1  0.23195126  0.93485247  0.60145169  1  -1.134886  0  -0.397934  -0.554369  0  2.478917  0
O  O113  1  0.38918910  0.24274248  0.84265637  1  -1.154841  0  -0.316421  -0.53543  0  2.30185  0
O  O114  1  0.05435605  0.26290045  0.89362566  1  -1.171817  0  -0.313194  -0.560388  0  2.23476  0
O  O115  1  0.73269366  0.89861054  0.56369134  1  -1.133381  0  -0.398209  -0.555859  0  2.481678  0
O  O116  1  0.88669945  0.66442329  0.25196503  1  -1.152388  0  -0.315677  -0.534874  0  2.304013  0
O  O117  1  0.55289864  0.61161008  0.23262662  1  -1.186469  0  -0.312058  -0.558746  0  2.242929  0
O  O118  1  0.23198927  0.06514011  0.39854046  1  -1.135337  0  -0.398076  -0.554613  0  2.479308  0
O  O119  1  0.38917940  0.75725370  0.15733237  1  -1.155308  0  -0.316464  -0.535345  0  2.301798  0
O  O120  1  0.05434085  0.73709418  0.10636987  1  -1.171925  0  -0.31317  -0.560504  0  2.234583  0
O  O121  1  0.73272794  0.10139087  0.43631077  1  -1.133272  0  -0.398298  -0.555956  0  2.48154  0
O  O122  1  0.88671158  0.33557927  0.74803428  1  -1.152422  0  -0.31567  -0.534833  0  2.304129  0
O  O123  1  0.55289440  0.38838968  0.76737520  1  -1.186415  0  -0.312068  -0.55876  0  2.2428  0
O  O124  1  0.23197234  0.43485941  0.89854317  1  -1.135241  0  -0.397977  -0.554433  0  2.479215  0
O  O125  1  0.38916654  0.74274366  0.65734004  1  -1.155032  0  -0.316474  -0.535384  0  2.302056  0
O  O126  1  0.05433351  0.76289667  0.60636984  1  -1.171857  0  -0.313072  -0.56042  0  2.234871  0
O  O127  1  0.73271269  0.39861052  0.93630876  1  -1.133307  0  -0.398265  -0.555914  0  2.481654  0
O  O128  1  0.88673037  0.16442586  0.24803096  1  -1.152675  0  -0.315635  -0.534945  0  2.304367  0
O  O129  1  0.55292209  0.11161104  0.26737001  1  -1.186175  0  -0.312324  -0.559135  0  2.242416  0
O  O130  1  0.23197465  0.56513378  0.10145325  1  -1.135166  0  -0.398083  -0.554619  0  2.47936  0
O  O131  1  0.38917290  0.25725499  0.34266397  1  -1.155095  0  -0.316574  -0.535527  0  2.301977  0
O  O132  1  0.05433755  0.23710292  0.39363118  1  -1.171925  0  -0.313088  -0.560398  0  2.234897  0
O  O133  1  0.73271214  0.60138903  0.06368786  1  -1.133445  0  -0.398275  -0.55588  0  2.481601  0
O  O134  1  0.88669519  0.83557050  0.75196468  1  -1.152295  0  -0.315646  -0.534873  0  2.303978  0
O  O135  1  0.55288225  0.88838810  0.73262938  1  -1.186081  0  -0.312079  -0.558789  0  2.243057  0
