# generated using pymatgen
data_ZnH6C19N4(O2F3)2
_symmetry_space_group_name_H-M   'P 1'
_cell_length_a   17.24524097
_cell_length_b   22.85495050
_cell_length_c   23.94264366
_cell_angle_alpha   93.80046309
_cell_angle_beta   89.88576482
_cell_angle_gamma   95.90562630
_symmetry_Int_Tables_number   1
_chemical_formula_structural   ZnH6C19N4(O2F3)2
_chemical_formula_sum   'Zn4 H24 C76 N16 O16 F24'
_cell_volume   9365.89671759
_cell_formula_units_Z   4
loop_
 _symmetry_equiv_pos_site_id
 _symmetry_equiv_pos_as_xyz
  1  'x, y, z'
loop_
 _atom_site_type_symbol
 _atom_site_label
 _atom_site_symmetry_multiplicity
 _atom_site_fract_x
 _atom_site_fract_y
 _atom_site_fract_z
 _atom_site_occupancy
 _atom_site_pbe_bader_charge
 _atom_site_pbe_bader_spin_density
 _atom_site_pbe_cm5_charge
 _atom_site_pbe_ddec_charge
 _atom_site_pbe_ddec_spin_density
 _atom_site_pbe_ddec_sum_bond_order
 _atom_site_pbe_magmom
Zn  Zn0  1  0.99832548  0.95161474  0.45991990  1  1.30176  0  0.675051  0.864388  0  2.359019  0
Zn  Zn1  1  0.99834347  0.03657344  0.54997325  1  1.300391  0  0.671793  0.862006  0  2.33918  0
Zn  Zn2  1  0.94732940  0.52885687  0.05294585  1  1.293835  0  0.671592  0.83678  0  2.397261  0
Zn  Zn3  1  0.94773607  0.44296323  0.96534654  1  1.291389  0  0.673667  0.839987  0  2.405625  0
H  H4  1  0.02848185  0.64865426  0.07654534  1  0.159068  0  0.138022  0.12308  0  0.959613  0
H  H5  1  0.03877130  0.72937960  0.15482970  1  0.135621  0  0.126981  0.14057  0  0.984512  0
H  H6  1  0.09114228  0.86500177  0.26726264  1  0.142523  0  0.134582  0.17278  0  0.95908  0
H  H7  1  0.90495775  0.75667726  0.34502705  1  0.14571  0  0.130525  0.168508  0  0.981357  0
H  H8  1  0.05348644  0.41604086  0.87136394  1  0.16808  0  0.135849  0.119884  0  0.966735  0
H  H9  1  0.06335094  0.33703225  0.79308969  1  0.1117  0  0.125235  0.138868  0  0.98675  0
H  H10  1  0.10636190  0.23295117  0.65938412  1  0.136785  0  0.134399  0.172823  0  0.959447  0
H  H11  1  0.89724903  0.14460686  0.72979590  1  0.163949  0  0.130348  0.168151  0  0.981193  0
H  H12  1  0.75554593  0.05123635  0.56368034  1  0.070608  0  0.107782  0.118111  0  0.992987  0
H  H13  1  0.60926560  0.04751290  0.56197854  1  0.107446  0  0.109044  0.11426  0  1.01053  0
H  H14  1  0.39584110  0.08516208  0.57167486  1  0.120263  0  0.118015  0.147664  0  0.981351  0
H  H15  1  0.38526269  0.92793043  0.45996002  1  0.146814  0  0.117595  0.148141  0  0.996107  0
H  H16  1  0.94476805  0.55382920  0.82745630  1  0.093917  0  0.109841  0.120278  0  0.985793  0
H  H17  1  0.95730578  0.63099520  0.75688325  1  0.127262  0  0.109772  0.114471  0  1.010129  0
H  H18  1  0.95055897  0.71647435  0.62622575  1  0.123299  0  0.118308  0.147533  0  0.980878  0
H  H19  1  0.01943641  0.85225410  0.75617326  1  0.119339  0  0.118075  0.148819  0  0.995783  0
H  H20  1  0.99574594  0.42616262  0.18735050  1  0.092729  0  0.109461  0.121596  0  0.988324  0
H  H21  1  0.03372283  0.35523619  0.25594362  1  0.102457  0  0.109754  0.114753  0  1.010463  0
H  H22  1  0.05005529  0.27256459  0.38733767  1  0.080596  0  0.117887  0.147419  0  0.980629  0
H  H23  1  0.06278895  0.13758955  0.25327946  1  0.145375  0  0.118243  0.148901  0  0.994311  0
H  H24  1  0.70598142  0.53917734  0.07107389  1  0.106122  0  0.109971  0.120857  0  0.988283  0
H  H25  1  0.56043279  0.54056653  0.06678829  1  0.113744  0  0.11047  0.116213  0  1.006978  0
H  H26  1  0.33844173  0.53714494  0.10606531  1  0.125259  0  0.120004  0.15043  0  0.977302  0
H  H27  1  0.34429364  0.46441795  0.93489152  1  0.15274  0  0.118702  0.149812  0  0.995106  0
C  C28  1  0.84895798  0.99167294  0.49775898  1  1.627355  0  0.217667  0.616359  0  4.153142  0
C  C29  1  0.98921814  0.91219744  0.57372516  1  1.648721  0  0.216038  0.631737  0  4.160515  0
C  C30  1  0.14725645  0.99867017  0.51344593  1  1.647555  0  0.214152  0.631012  0  4.164026  0
C  C31  1  0.01733631  0.07477032  0.43486978  1  1.641637  0  0.21334  0.627749  0  4.168377  0
C  C32  1  0.95518437  0.56747367  0.93837582  1  1.587254  0  0.216268  0.612413  0  4.162395  0
C  C33  1  0.09949260  0.49941320  0.00954810  1  1.636879  0  0.213756  0.627904  0  4.175933  0
C  C34  1  0.96729292  0.40757722  0.07851422  1  1.584792  0  0.215484  0.612522  0  4.163137  0
C  C35  1  0.79746043  0.47678416  0.00645505  1  1.580575  0  0.218707  0.614671  0  4.1566  0
C  C36  1  0.99617339  0.64455529  0.11545499  1  0.478031  0  0.066115  0.125416  0  3.883771  0
C  C37  1  0.00149873  0.68841917  0.15824785  1  0.04832  0  -0.066176  -0.174332  0  3.923146  0
C  C38  1  0.95746495  0.67978162  0.20722584  1  0.40319  0  0.104076  0.109693  0  4.057292  0
C  C39  1  0.91002092  0.62657457  0.21035100  1  0.539824  0  0.122035  0.091771  0  4.025249  0
C  C40  1  0.90895938  0.58449039  0.16506844  1  1.229806  0  0.246686  0.337431  0  4.086062  0
C  C41  1  0.05058659  0.85643754  0.30127795  1  0.076848  0  -0.074627  -0.317242  0  3.885097  0
C  C42  1  0.99801132  0.80560744  0.30014354  1  0.353228  0  0.112427  0.254887  0  4.045427  0
C  C43  1  0.94636912  0.79581699  0.34467252  1  0.077107  0  -0.084348  -0.331853  0  3.905075  0
C  C44  1  0.95091792  0.83858520  0.38848590  1  1.09083  0  0.255648  0.4874  0  4.04258  0
C  C45  1  0.04878925  0.89571905  0.34800815  1  1.109826  0  0.259857  0.490094  0  4.036589  0
C  C46  1  0.01040774  0.37778966  0.86535074  1  0.446831  0  0.063269  0.119485  0  3.89845  0
C  C47  1  0.01568077  0.33446979  0.82291511  1  0.077009  0  -0.069761  -0.178883  0  3.932649  0
C  C48  1  0.95807745  0.28587722  0.81837972  1  0.386113  0  0.102926  0.106708  0  4.053073  0
C  C49  1  0.89811983  0.28344877  0.85794964  1  0.595741  0  0.126035  0.097283  0  4.014518  0
C  C50  1  0.89753472  0.32954282  0.89956197  1  1.199145  0  0.252008  0.348598  0  4.068961  0
C  C51  1  0.06024571  0.19676708  0.65936278  1  0.094269  0  -0.075268  -0.31922  0  3.886287  0
C  C52  1  0.00208718  0.19475463  0.70006859  1  0.337119  0  0.11222  0.256837  0  4.044069  0
C  C53  1  0.94323776  0.14744491  0.69870374  1  0.125583  0  -0.084377  -0.331707  0  3.905673  0
C  C54  1  0.94671614  0.10446860  0.65562087  1  1.038651  0  0.252159  0.482436  0  4.050691  0
C  C55  1  0.05664102  0.15035738  0.61855875  1  1.065197  0  0.259382  0.49084  0  4.032815  0
C  C56  1  0.76164846  0.98897205  0.49348298  1  -0.008099  0  -0.013676  -0.106148  0  3.934181  0
C  C57  1  0.72093567  0.02329427  0.53237452  1  0.046741  0  -0.083475  -0.075695  0  3.9927  0
C  C58  1  0.64058171  0.02145587  0.53152599  1  -0.035519  0  -0.08795  -0.142445  0  3.989207  0
C  C59  1  0.59655030  0.98480315  0.49092736  1  0.411909  0  0.081786  0.077741  0  4.080175  0
C  C60  1  0.63658041  0.95071169  0.45176274  1  0.519263  0  0.102761  0.120032  0  4.030461  0
C  C61  1  0.71788243  0.95284238  0.45295743  1  0.563654  0  0.101532  0.17132  0  4.046282  0
C  C62  1  0.36198854  0.04951994  0.54734399  1  0.077716  0  -0.09638  -0.292837  0  3.959478  0
C  C63  1  0.39962818  0.00716520  0.51576425  1  0.364231  0  0.092253  0.224595  0  4.073926  0
C  C64  1  0.35615771  0.96109197  0.48428904  1  0.008189  0  -0.100898  -0.298811  0  3.95517  0
C  C65  1  0.27585316  0.95905785  0.48504903  1  0.483215  0  0.111541  0.317052  0  4.037852  0
C  C66  1  0.23458728  0.00085875  0.51556970  1  0.080952  0  -0.021759  -0.235612  0  3.897261  0
C  C67  1  0.28122509  0.04555591  0.54655907  1  0.397674  0  0.109874  0.312609  0  4.042461  0
C  C68  1  0.96484937  0.61550915  0.89834932  1  0.030236  0  -0.01554  -0.109995  0  3.953157  0
C  C69  1  0.95703819  0.60043122  0.84044631  1  -0.006569  0  -0.084196  -0.078588  0  4.000575  0
C  C70  1  0.96421532  0.64267153  0.80154776  1  -0.003416  0  -0.086653  -0.140866  0  3.98775  0
C  C71  1  0.98088626  0.70281261  0.81889630  1  0.403568  0  0.083066  0.081875  0  4.07364  0
C  C72  1  0.98986644  0.71818887  0.87651219  1  0.55942  0  0.103662  0.120253  0  4.02937  0
C  C73  1  0.98158361  0.67513024  0.91559275  1  0.486951  0  0.099301  0.169647  0  4.041932  0
C  C74  1  0.96663464  0.76263768  0.63928695  1  0.074586  0  -0.09608  -0.291951  0  3.956133  0
C  C75  1  0.98410099  0.77954586  0.69553492  1  0.345626  0  0.092196  0.223841  0  4.073576  0
C  C76  1  0.00514584  0.83905904  0.71259269  1  0.073767  0  -0.100128  -0.297546  0  3.952604  0
C  C77  1  0.00692527  0.88019825  0.67271354  1  0.444566  0  0.112864  0.316145  0  4.036507  0
C  C78  1  0.98853196  0.86596065  0.61563232  1  -0.01699  0  -0.019732  -0.230068  0  3.889643  0
C  C79  1  0.96905799  0.80571305  0.60096688  1  0.504768  0  0.110257  0.311109  0  4.04289  0
C  C80  1  0.99418105  0.36405138  0.11646266  1  -0.014679  0  -0.014539  -0.107946  0  3.943597  0
C  C81  1  0.00575358  0.38117212  0.17375859  1  0.033219  0  -0.083861  -0.07752  0  3.997337  0
C  C82  1  0.02736574  0.34258201  0.21142824  1  0.022241  0  -0.086747  -0.141695  0  3.989363  0
C  C83  1  0.03937437  0.28428686  0.19315576  1  0.432946  0  0.083216  0.080228  0  4.075389  0
C  C84  1  0.03147446  0.26756921  0.13571578  1  0.478562  0  0.10461  0.121752  0  4.026141  0
C  C85  1  0.00865629  0.30680548  0.09794534  1  0.550673  0  0.102351  0.172295  0  4.039551  0
C  C86  1  0.04978613  0.22632628  0.37303224  1  0.027995  0  -0.096854  -0.293845  0  3.956193  0
C  C87  1  0.05675868  0.21001202  0.31598333  1  0.463619  0  0.09329  0.224672  0  4.07617  0
C  C88  1  0.05681125  0.15045689  0.29752739  1  0.022901  0  -0.100828  -0.297899  0  3.956045  0
C  C89  1  0.04635916  0.10853037  0.33654132  1  0.397173  0  0.113317  0.318571  0  4.032941  0
C  C90  1  0.03480762  0.12189306  0.39436272  1  0.1205  0  -0.02159  -0.23477  0  3.880621  0
C  C91  1  0.03855968  0.18248635  0.41051604  1  0.403005  0  0.111967  0.313607  0  4.031441  0
C  C92  1  0.71023660  0.47407728  0.00305056  1  0.047582  0  -0.0137  -0.106951  0  3.939994  0
C  C93  1  0.67064802  0.51085677  0.04044763  1  0.004853  0  -0.081718  -0.074085  0  3.993445  0
C  C94  1  0.59070462  0.51165027  0.03829080  1  -0.030139  0  -0.086946  -0.143011  0  3.986786  0
C  C95  1  0.54602795  0.47499872  0.99805281  1  0.412326  0  0.083751  0.080483  0  4.081188  0
C  C96  1  0.58481518  0.43791962  0.96085661  1  0.498245  0  0.104147  0.121946  0  4.029123  0
C  C97  1  0.66570184  0.43731221  0.96338780  1  0.576023  0  0.102011  0.170799  0  4.042612  0
C  C98  1  0.30831103  0.52187155  0.06707091  1  0.060378  0  -0.094615  -0.290382  0  3.952927  0
C  C99  1  0.34990959  0.50031813  0.02121168  1  0.334133  0  0.0942  0.225714  0  4.069701  0
C  C100  1  0.31166502  0.48055394  0.97063364  1  0.031331  0  -0.099334  -0.296321  0  3.954955  0
C  C101  1  0.23201630  0.48209920  0.96788480  1  0.466359  0  0.110376  0.314251  0  4.043135  0
C  C102  1  0.18673026  0.50214831  0.01293081  1  0.060443  0  -0.023749  -0.239731  0  3.91831  0
C  C103  1  0.22826676  0.52212424  0.06206655  1  0.440734  0  0.109382  0.309872  0  4.047582  0
N  N104  1  0.95009538  0.59313952  0.11923097  1  -1.24285  0  -0.306164  -0.260635  0  3.497603  0
N  N105  1  0.95557413  0.71979083  0.25441469  1  -0.43093  0  -0.124956  -0.083869  0  3.244134  0
N  N106  1  0.00163346  0.76624089  0.25197612  1  -0.428923  0  -0.121305  -0.104653  0  3.176634  0
N  N107  1  0.00037412  0.88799698  0.39106632  1  -1.238337  0  -0.304209  -0.380393  0  3.398169  0
N  N108  1  0.95122475  0.37526289  0.90288350  1  -1.224036  0  -0.305966  -0.262227  0  3.495248  0
N  N109  1  0.95455256  0.23837811  0.77750908  1  -0.431589  0  -0.123328  -0.079501  0  3.238021  0
N  N110  1  0.00733562  0.24302890  0.74091398  1  -0.452196  0  -0.123304  -0.109637  0  3.181024  0
N  N111  1  0.00145826  0.10476907  0.61579711  1  -1.22586  0  -0.303591  -0.379934  0  3.396312  0
N  N112  1  0.51486073  0.97839829  0.48672941  1  -0.470688  0  -0.145379  -0.104013  0  3.273705  0
N  N113  1  0.48182133  0.01468856  0.51871700  1  -0.479068  0  -0.14774  -0.135098  0  3.244404  0
N  N114  1  0.98891527  0.74945206  0.78313998  1  -0.479013  0  -0.147687  -0.109506  0  3.266535  0
N  N115  1  0.97776203  0.73313297  0.73183079  1  -0.462066  0  -0.145435  -0.131338  0  3.250179  0
N  N116  1  0.05146159  0.23941133  0.22851167  1  -0.458288  0  -0.145303  -0.104678  0  3.272917  0
N  N117  1  0.05714780  0.25652286  0.27999939  1  -0.466916  0  -0.145968  -0.131709  0  3.23818  0
N  N118  1  0.46513361  0.47337453  0.99070449  1  -0.466505  0  -0.145038  -0.10345  0  3.278948  0
N  N119  1  0.43084099  0.50036280  0.02995628  1  -0.46108  0  -0.145702  -0.133231  0  3.239789  0
O  O120  1  0.88118711  0.94910281  0.47409317  1  -1.144396  0  -0.316158  -0.547613  0  2.357236  0
O  O121  1  0.88317950  0.03620154  0.52582110  1  -1.158276  0  -0.31958  -0.550788  0  2.29915  0
O  O122  1  0.96737403  0.96154229  0.59128401  1  -1.145507  0  -0.317208  -0.54935  0  2.328012  0
O  O123  1  0.01137703  0.89790135  0.52454558  1  -1.146147  0  -0.315201  -0.543814  0  2.309249  0
O  O124  1  0.11284082  0.01768053  0.55686647  1  -1.141406  0  -0.31688  -0.545154  0  2.306546  0
O  O125  1  0.11532208  0.97828968  0.46747515  1  -1.148464  0  -0.315605  -0.551474  0  2.360556  0
O  O126  1  0.98885846  0.02443030  0.41456889  1  -1.146224  0  -0.318966  -0.545599  0  2.316575  0
O  O127  1  0.03222709  0.08925753  0.48618902  1  -1.148726  0  -0.316758  -0.552461  0  2.364482  0
O  O128  1  0.93410409  0.58135910  0.98803482  1  -1.144098  0  -0.319409  -0.546413  0  2.322401  0
O  O129  1  0.96817060  0.51630445  0.91860767  1  -1.160546  0  -0.315798  -0.544583  0  2.291412  0
O  O130  1  0.06565750  0.45360485  0.98337011  1  -1.149632  0  -0.313889  -0.546786  0  2.323038  0
O  O131  1  0.06704322  0.54151171  0.03364384  1  -1.153092  0  -0.314814  -0.546916  0  2.29631  0
O  O132  1  0.93922172  0.38870971  0.03099577  1  -1.149123  0  -0.319875  -0.548451  0  2.332376  0
O  O133  1  0.97511540  0.46128289  0.09780921  1  -1.150085  0  -0.316881  -0.548596  0  2.336081  0
O  O134  1  0.82951641  0.50303576  0.05035929  1  -1.157856  0  -0.318126  -0.54957  0  2.319978  0
O  O135  1  0.83255401  0.45371970  0.96517459  1  -1.151662  0  -0.316454  -0.54333  0  2.358918  0
F  F136  1  0.86458485  0.53345608  0.16825399  1  -0.603054  0  -0.054804  -0.092  0  1.374352  0
F  F137  1  0.86621857  0.61471693  0.25526960  1  -0.604953  0  -0.072182  -0.084999  0  1.381098  0
F  F138  1  0.09808673  0.94458181  0.35119639  1  -0.602322  0  -0.050307  -0.102791  0  1.380564  0
F  F139  1  0.90382413  0.83168990  0.43228886  1  -0.608512  0  -0.052817  -0.103848  0  1.363313  0
F  F140  1  0.84063638  0.32721874  0.93715175  1  -0.59557  0  -0.048006  -0.082468  0  1.386224  0
F  F141  1  0.84140841  0.23880548  0.85704327  1  -0.593646  0  -0.068025  -0.080908  0  1.382371  0
F  F142  1  0.11098119  0.15039608  0.57911822  1  -0.591656  0  -0.048005  -0.09992  0  1.387605  0
F  F143  1  0.89213310  0.05837160  0.65176814  1  -0.60025  0  -0.057675  -0.113712  0  1.34481  0
F  F144  1  0.75099779  0.91934436  0.41289597  1  -0.616635  0  -0.095251  -0.111381  0  1.379312  0
F  F145  1  0.59733114  0.91545141  0.41159607  1  -0.616972  0  -0.09485  -0.115124  0  1.368632  0
F  F146  1  0.24725775  0.08836577  0.57652001  1  -0.628839  0  -0.102363  -0.140316  0  1.360081  0
F  F147  1  0.23531144  0.91325309  0.45534820  1  -0.633235  0  -0.103194  -0.138002  0  1.334059  0
F  F148  1  0.99231698  0.69394653  0.97009389  1  -0.616404  0  -0.097765  -0.120265  0  1.37396  0
F  F149  1  0.00665810  0.77492167  0.89563305  1  -0.613543  0  -0.093338  -0.112843  0  1.369  0
F  F150  1  0.94962942  0.78781174  0.54724284  1  -0.626072  0  -0.101347  -0.138148  0  1.346631  0
F  F151  1  0.02913435  0.93720453  0.68992510  1  -0.624257  0  -0.102065  -0.136193  0  1.330494  0
F  F152  1  0.00197132  0.28669700  0.04368290  1  -0.612914  0  -0.095495  -0.111245  0  1.372228  0
F  F153  1  0.04416053  0.21283035  0.11575303  1  -0.611393  0  -0.092398  -0.112355  0  1.367748  0
F  F154  1  0.02825301  0.20066408  0.46485854  1  -0.623664  0  -0.103308  -0.137729  0  1.344614  0
F  F155  1  0.04743252  0.05163139  0.31696333  1  -0.622829  0  -0.099796  -0.136852  0  1.372069  0
F  F156  1  0.69725839  0.39947974  0.92643256  1  -0.618357  0  -0.093378  -0.109851  0  1.389478  0
F  F157  1  0.54463460  0.40150481  0.92203806  1  -0.614983  0  -0.093198  -0.113084  0  1.369534  0
F  F158  1  0.18904012  0.54130242  0.10777491  1  -0.6296  0  -0.103072  -0.138517  0  1.32802  0
F  F159  1  0.19596699  0.46413720  0.91823537  1  -0.629842  0  -0.104112  -0.145459  0  1.329471  0
