# generated using pymatgen
data_ZnH12C29SN2Cl2O9
_symmetry_space_group_name_H-M   'P 1'
_cell_length_a   9.69812706
_cell_length_b   10.96353787
_cell_length_c   27.99638954
_cell_angle_alpha   88.42710775
_cell_angle_beta   89.71773693
_cell_angle_gamma   88.21136353
_symmetry_Int_Tables_number   1
_chemical_formula_structural   ZnH12C29SN2Cl2O9
_chemical_formula_sum   'Zn2 H24 C58 S2 N4 Cl4 O18'
_cell_volume   2974.14197211
_cell_formula_units_Z   2
loop_
 _symmetry_equiv_pos_site_id
 _symmetry_equiv_pos_as_xyz
  1  'x, y, z'
loop_
 _atom_site_type_symbol
 _atom_site_label
 _atom_site_symmetry_multiplicity
 _atom_site_fract_x
 _atom_site_fract_y
 _atom_site_fract_z
 _atom_site_occupancy
 _atom_site_pbe_bader_charge
 _atom_site_pbe_bader_spin_density
 _atom_site_pbe_cm5_charge
 _atom_site_pbe_ddec_charge
 _atom_site_pbe_ddec_spin_density
 _atom_site_pbe_ddec_sum_bond_order
 _atom_site_pbe_magmom
Zn  Zn0  1  0.64433157  0.49729033  0.49998689  1  1.292369  0  0.678732  0.822008  0  2.449333  0
Zn  Zn1  1  0.35880155  0.50067500  0.50050446  1  1.273264  0  0.670217  0.818012  0  2.393645  0
H  H2  1  0.28211850  0.50846855  0.64293411  1  0.105825  0  0.108202  0.114479  0  0.999757  0
H  H3  1  0.24256401  0.52287510  0.73085545  1  0.07465  0  0.113525  0.124623  0  0.978341  0
H  H4  1  0.27036523  0.26933269  0.87950497  1  0.140885  0  0.11901  0.140743  0  0.977142  0
H  H5  1  0.72163438  0.46885703  0.34893253  1  0.132983  0  0.113393  0.129942  0  0.990816  0
H  H6  1  0.40300829  0.21677573  0.03485299  1  0.125696  0  0.093236  0.104415  0  1.100015  0
H  H7  1  0.68256534  0.52662984  0.75095483  1  0.080729  0  0.112311  0.133428  0  0.980027  0
H  H8  1  0.58422080  0.80555299  0.87621143  1  0.096127  0  0.118514  0.124221  0  0.976987  0
H  H9  1  0.53357436  0.81987827  0.03327209  1  0.087257  0  0.109502  0.110636  0  1.001095  0
H  H10  1  0.28396722  0.54031992  0.34808593  1  0.131729  0  0.112693  0.126744  0  1.00801  0
H  H11  1  0.54958903  0.80875841  0.12141024  1  0.156718  0  0.122627  0.134215  0  0.976711  0
H  H12  1  0.58340599  0.80517807  0.96472837  1  0.070343  0  0.110289  0.110775  0  1.000399  0
H  H13  1  0.28756384  0.12101408  0.49716627  1  0.121945  0  0.101608  0.104834  0  1.016627  0
H  H14  1  0.77103984  0.20590999  0.48450993  1  0.072309  0  0.099678  0.11058  0  1.038667  0
H  H15  1  0.98656657  0.08553389  0.49785944  1  0.031703  0  0.096094  0.093823  0  0.999192  0
H  H16  1  0.97681201  0.86814422  0.52778496  1  0.081369  0  0.096261  0.091874  0  1.005352  0
H  H17  1  0.75310647  0.76689418  0.53138951  1  0.094891  0  0.099828  0.109025  0  1.035346  0
H  H18  1  0.28325658  0.89194369  0.49973508  1  0.090415  0  0.103688  0.108744  0  1.005779  0
H  H19  1  0.12905716  0.63144330  0.45396171  1  0.143173  0  0.140237  0.120826  0  0.957872  0
H  H20  1  0.26385957  0.32602540  0.56429756  1  0.140768  0  0.119174  0.143351  0  1.026135  0
H  H21  1  0.13798204  0.18231937  0.61745322  1  0.106351  0  0.120553  0.135076  0  0.960321  0
H  H22  1  0.74854980  0.33201879  0.56620288  1  0.136222  0  0.11878  0.155711  0  1.026281  0
H  H23  1  0.86704579  0.62932754  0.45281123  1  0.168883  0  0.141712  0.122356  0  0.955713  0
H  H24  1  0.04586891  0.50059008  0.28260702  1  0.642176  0  0.336492  0.389928  0  0.881663  0
H  H25  1  0.29883274  0.04235232  0.08947212  1  0.65124  0  0.350809  0.400619  0  0.842632  0
C  C26  1  0.49807773  0.26283215  0.49771832  1  1.549295  0  0.219365  0.597055  0  4.149924  0
C  C27  1  0.51164625  0.50414825  0.59354957  1  1.599038  0  0.215212  0.604726  0  4.159932  0
C  C28  1  0.49244485  0.73345366  0.50244589  1  1.578642  0  0.218821  0.601538  0  4.148565  0
C  C29  1  0.50386445  0.50446929  0.40717900  1  1.552957  0  0.219708  0.59951  0  4.156075  0
C  C30  1  0.38123120  0.43232607  0.82082254  1  1.266263  0  0.243509  0.443058  0  4.092926  0
C  C31  1  0.49565881  0.63448304  0.81980710  1  1.322618  0  0.241957  0.439415  0  4.096722  0
C  C32  1  0.59387720  0.52331008  0.72740748  1  0.067528  0  -0.088379  -0.221665  0  3.95033  0
C  C33  1  0.61492176  0.51720963  0.67817809  1  0.040901  0  0.02547  0.157324  0  3.998183  0
C  C34  1  0.36891331  0.51337631  0.66726458  1  0.048808  0  -0.076208  -0.058193  0  3.966718  0
C  C35  1  0.34660809  0.52143390  0.71611401  1  0.033717  0  -0.084025  -0.156965  0  3.978753  0
C  C36  1  0.46064186  0.52602649  0.74606046  1  0.292572  0  0.096332  0.222231  0  4.012356  0
C  C37  1  0.43888695  0.53087725  0.89851379  1  -0.068827  0  0.001195  0.031389  0  4.01683  0
C  C38  1  0.38067318  0.43447764  0.87366629  1  -0.009459  0  -0.009421  -0.054485  0  4.016097  0
C  C39  1  0.32083419  0.33993423  0.89901244  1  0.064642  0  -0.074496  -0.141709  0  3.963725  0
C  C40  1  0.49170274  0.63170634  0.87257640  1  0.037188  0  -0.013286  -0.077658  0  4.014233  0
C  C41  1  0.50185470  0.51147732  0.64692758  1  -0.031077  0  -0.017665  -0.096894  0  3.91582  0
C  C42  1  0.50303754  0.50490577  0.35342148  1  0.072187  0  -0.001733  0.006576  0  3.927021  0
C  C43  1  0.42528809  0.41085401  0.02700682  1  0.043079  0  0.005225  0.063266  0  3.961025  0
C  C44  1  0.49105599  0.62856594  0.02593146  1  -0.089404  0  0.002806  0.033374  0  3.989662  0
C  C45  1  0.46515818  0.51685786  0.05133126  1  0.024535  0  0.008374  0.005543  0  3.913966  0
C  C46  1  0.42220285  0.30027473  0.05300703  1  -0.063121  0  -0.089206  -0.149927  0  3.975214  0
C  C47  1  0.44540564  0.29173453  0.10233418  1  -0.115782  0  0.007918  -0.055366  0  3.872378  0
C  C48  1  0.47182887  0.39646510  0.12783153  1  0.049453  0  0.00791  -0.053838  0  3.915135  0
C  C49  1  0.48234786  0.50979805  0.10211987  1  0.020079  0  0.012402  0.047242  0  3.949263  0
C  C50  1  0.51300607  0.61765437  0.12647851  1  -0.030397  0  -0.001268  -0.053521  0  3.959542  0
C  C51  1  0.52801423  0.61729938  0.17887836  1  1.33971  0  0.243607  0.441715  0  4.119849  0
C  C52  1  0.49169997  0.39144685  0.18027200  1  1.354723  0  0.245339  0.441621  0  4.097776  0
C  C53  1  0.62749710  0.48425107  0.27907289  1  0.053629  0  0.03121  0.100842  0  4.00541  0
C  C54  1  0.62680709  0.48458660  0.32879265  1  0.032526  0  -0.072912  -0.131935  0  3.918955  0
C  C55  1  0.37933272  0.52420333  0.32842601  1  0.085504  0  -0.071423  -0.089227  0  3.930665  0
C  C56  1  0.38075539  0.52273160  0.27874910  1  -0.197452  0  7.7e-05  -0.120348  0  3.9029  0
C  C57  1  0.50466046  0.50319287  0.25351118  1  0.455106  0  0.104612  0.137808  0  3.985592  0
C  C58  1  0.39597303  0.41990724  0.97567767  1  0.064056  0  0.005592  -0.013976  0  3.910282  0
C  C59  1  0.44287722  0.52578020  0.94956400  1  0.032485  0  0.008133  0.012121  0  3.909187  0
C  C60  1  0.49275981  0.62871591  0.97380788  1  0.119558  0  0.007042  0.04311  0  3.974452  0
C  C61  1  0.32628055  0.33340800  0.94907406  1  0.003776  0  0.023396  0.108537  0  3.981573  0
C  C62  1  0.54344288  0.72902441  0.89690424  1  -0.071982  0  -0.06694  -0.064655  0  3.9756  0
C  C63  1  0.51887810  0.73245922  0.05169056  1  -0.078584  0  -0.073557  -0.109549  0  3.955066  0
C  C64  1  0.52828146  0.72747823  0.10142860  1  0.033532  0  -0.058172  -0.055286  0  3.93152  0
C  C65  1  0.54236646  0.72753604  0.94670480  1  -0.000283  0  -0.080039  -0.121788  0  3.970574  0
C  C66  1  0.76695305  0.11011226  0.49492339  1  -0.021993  0  -0.097787  -0.131752  0  3.978382  0
C  C67  1  0.88726304  0.04251322  0.50268043  1  -0.018959  0  -0.09912  -0.084068  0  4.055601  0
C  C68  1  0.88205676  0.91912874  0.51812081  1  -0.109352  0  -0.101872  -0.097677  0  4.07178  0
C  C69  1  0.75726754  0.86246919  0.52041159  1  -0.032114  0  -0.095105  -0.129575  0  3.987446  0
C  C70  1  0.63161105  0.92723210  0.50896918  1  0.034126  0  0.002769  0.064455  0  3.922775  0
C  C71  1  0.63540060  0.05729084  0.50073108  1  -0.030347  0  0.003497  0.067291  0  3.92032  0
C  C72  1  0.50706180  0.12627834  0.49801885  1  -0.071209  0  -0.010302  -0.074225  0  3.915338  0
C  C73  1  0.38319565  0.06631312  0.49908617  1  -0.010113  0  -0.08448  -0.088631  0  4.002872  0
C  C74  1  0.38056943  0.93861977  0.50159836  1  -0.051917  0  -0.085095  -0.095809  0  4.006021  0
C  C75  1  0.50165392  0.86890528  0.50595950  1  -0.020812  0  -0.006317  -0.060733  0  3.908849  0
C  C76  1  0.15194838  0.32647217  0.56442399  1  -0.005097  0  -0.073949  -0.127125  0  3.926437  0
C  C77  1  0.08193843  0.24768004  0.59417365  1  0.012601  0  -0.071731  -0.117306  0  3.950987  0
C  C78  1  0.93579714  0.25129196  0.59491550  1  0.044741  0  0.029206  0.168501  0  4.07018  0
C  C79  1  0.86031897  0.33180562  0.56592222  1  0.122765  0  -0.087966  -0.228152  0  3.941428  0
C  C80  1  0.93011600  0.41220174  0.53467277  1  0.484335  0  0.127811  0.188471  0  3.933824  0
C  C81  1  0.07827818  0.41129592  0.53426785  1  0.431752  0  0.126929  0.167424  0  3.936581  0
C  C82  1  0.07230088  0.56828156  0.47685807  1  0.592464  0  0.075707  0.058251  0  3.887024  0
C  C83  1  0.92710512  0.56708310  0.47626554  1  0.444776  0  0.07984  0.067385  0  3.885698  0
S  S84  1  0.22661458  0.54912013  0.24428635  1  3.061721  0  0.540183  1.156036  0  5.979323  0
S  S85  1  0.43957932  0.14039891  0.13054808  1  3.033415  0  0.547253  1.149656  0  5.925623  0
N  N86  1  0.44402477  0.53146536  0.79705972  1  -1.145145  0  -0.229099  -0.223308  0  3.569423  0
N  N87  1  0.50357100  0.50455136  0.20238683  1  -1.192996  0  -0.24343  -0.249825  0  3.675623  0
N  N88  1  0.14556847  0.49163207  0.50496652  1  -1.199437  0  -0.28833  -0.184943  0  3.47115  0
N  N89  1  0.85800155  0.49077285  0.50432101  1  -1.206978  0  -0.291544  -0.193334  0  3.451787  0
Cl  Cl90  1  0.85145481  0.15186981  0.63255983  1  -0.175454  0  0.015536  -0.053236  0  1.429727  0
Cl  Cl91  1  0.78049542  0.45984591  0.24841392  1  -0.19045  0  0.017565  -0.049117  0  1.481568  0
Cl  Cl92  1  0.23506851  0.21380149  0.97437138  1  -0.190696  0  0.012285  -0.061544  0  1.496747  0
Cl  Cl93  1  0.78551199  0.51440883  0.65963992  1  -0.198538  0  -0.013167  -0.078916  0  1.530755  0
O  O94  1  0.60455498  0.31908601  0.51061415  1  -1.176892  0  -0.31212  -0.548627  0  2.445095  0
O  O95  1  0.38337846  0.31576009  0.48689413  1  -1.161352  0  -0.31414  -0.544083  0  2.321828  0
O  O96  1  0.62347317  0.53126215  0.57274334  1  -1.164927  0  -0.313517  -0.543946  0  2.366565  0
O  O97  1  0.40328056  0.47097144  0.57232878  1  -1.176281  0  -0.316381  -0.56084  0  2.376637  0
O  O98  1  0.60014804  0.67587101  0.48771585  1  -1.164942  0  -0.316166  -0.549511  0  2.394945  0
O  O99  1  0.37746796  0.68486045  0.51222132  1  -1.1615  0  -0.320813  -0.550404  0  2.29106  0
O  O100  1  0.61841608  0.47624090  0.42725325  1  -1.160445  0  -0.319245  -0.547508  0  2.299964  0
O  O101  1  0.39037277  0.53145455  0.42805294  1  -1.160006  0  -0.315708  -0.546153  0  2.304933  0
O  O102  1  0.33310992  0.34851661  0.79855400  1  -1.09367  0  -0.277393  -0.433687  0  2.066431  0
O  O103  1  0.49742674  0.29635455  0.20423436  1  -1.069336  0  -0.240557  -0.388372  0  2.148491  0
O  O104  1  0.54264323  0.71977962  0.79615558  1  -1.095907  0  -0.276677  -0.43112  0  2.064527  0
O  O105  1  0.55864435  0.70637997  0.20155880  1  -1.079364  0  -0.261489  -0.407907  0  2.0693  0
O  O106  1  0.23683437  0.66467903  0.21950154  1  -1.270357  0  -0.299709  -0.496439  0  2.107747  0
O  O107  1  0.19533046  0.44081714  0.21882565  1  -1.281312  0  -0.314585  -0.531294  0  2.107115  0
O  O108  1  0.11255443  0.56525584  0.28607454  1  -1.202954  0  -0.359447  -0.533338  0  2.153611  0
O  O109  1  0.57793656  0.09946714  0.14108759  1  -1.251203  0  -0.294156  -0.482428  0  2.094945  0
O  O110  1  0.32458858  0.13267285  0.16284435  1  -1.254067  0  -0.296587  -0.497827  0  2.107307  0
O  O111  1  0.39648715  0.05954621  0.08460366  1  -1.198336  0  -0.374245  -0.556711  0  2.142678  0
