# generated using pymatgen
data_CuH9C14NO5
_symmetry_space_group_name_H-M   'P 1'
_cell_length_a   5.25571521
_cell_length_b   8.32784964
_cell_length_c   13.39052093
_cell_angle_alpha   96.75991473
_cell_angle_beta   89.99986728
_cell_angle_gamma   90.00119139
_symmetry_Int_Tables_number   1
_chemical_formula_structural   CuH9C14NO5
_chemical_formula_sum   'Cu2 H18 C28 N2 O10'
_cell_volume   582.01269526
_cell_formula_units_Z   2
loop_
 _symmetry_equiv_pos_site_id
 _symmetry_equiv_pos_as_xyz
  1  'x, y, z'
loop_
 _atom_site_type_symbol
 _atom_site_label
 _atom_site_symmetry_multiplicity
 _atom_site_fract_x
 _atom_site_fract_y
 _atom_site_fract_z
 _atom_site_occupancy
 _atom_site_hle17_ddec_charge
 _atom_site_hle17_ddec_spin_density
 _atom_site_hle17_ddec_sum_bond_order
 _atom_site_hle17_magmom
 _atom_site_hse06_10hf_ddec_charge
 _atom_site_hse06_10hf_ddec_spin_density
 _atom_site_hse06_10hf_ddec_sum_bond_order
 _atom_site_hse06_10hf_magmom
 _atom_site_hse06_ddec_charge
 _atom_site_hse06_ddec_spin_density
 _atom_site_hse06_ddec_sum_bond_order
 _atom_site_hse06_magmom
 _atom_site_pbe_cm5_charge
 _atom_site_pbe_ddec_charge
 _atom_site_pbe_ddec_spin_density
 _atom_site_pbe_ddec_sum_bond_order
 _atom_site_pbe_magmom
Cu  Cu0  1  0.63321339  0.04271338  0.13562563  1  1.025012  0.701905  1.6324  0.532  1.034731  0.795238  2.009281  0.655  1.118448  0.856004  1.951417  0.74  0.727756  0.971358  0.751253  2.065916  0.598
Cu  Cu1  1  0.13322740  0.95728537  0.86437570  1  1.025056  0.701922  1.632417  0.532  1.03475  0.79524  2.009283  0.655  1.118486  0.856026  1.951468  0.74  0.727796  0.971356  0.751254  2.06595  0.598
H  H2  1  0.01820439  0.54969732  0.03363227  1  0.101559  0.00051  0.957492  0.0  0.111974  0.000415  1.019402  0.0  0.114076  0.000266  1.017778  0.0  0.10895  0.110299  0.000561  1.020754  0.0
H  H3  1  0.51820491  0.45028901  0.96637033  1  0.101585  0.000514  0.957483  0.0  0.11199  0.000415  1.019398  0.0  0.114096  0.000266  1.017769  0.0  0.108961  0.110314  0.000561  1.02075  0.0
H  H4  1  0.08532695  0.33106787  0.14722951  1  0.131751  -0.000302  0.952826  0.0  0.138357  -0.000222  1.013272  0.0  0.141773  -0.000215  1.013373  0.0  0.114592  0.13595  -0.000204  1.013329  0.0
H  H5  1  0.58534762  0.66891212  0.85276961  1  0.131771  -0.000303  0.952822  0.0  0.138351  -0.000222  1.013314  0.0  0.141763  -0.000215  1.013419  0.0  0.114625  0.135941  -0.000205  1.013365  0.0
H  H6  1  0.45882296  0.36053415  0.26522853  1  0.107242  0.000303  0.939302  0.001  0.114336  0.000184  1.006776  0.0  0.117604  6.1e-05  1.002467  0.0  0.131274  0.111964  0.000316  1.009771  0.001
H  H7  1  0.95882321  0.63945800  0.73477231  1  0.107121  0.000303  0.939417  0.001  0.114231  0.000184  1.006866  0.0  0.117491  6.1e-05  1.002577  0.0  0.131277  0.111859  0.000316  1.009858  0.001
H  H8  1  0.90804964  0.67758459  0.27499190  1  0.104181  0.000224  0.935822  0.0  0.117465  0.000212  0.996785  0.0  0.118953  0.000142  0.996217  0.0  0.119128  0.116281  0.000274  0.997365  0.0
H  H9  1  0.40806705  0.32240938  0.72500310  1  0.104149  0.000222  0.935755  0.0  0.117455  0.000211  0.996728  0.0  0.118943  0.000142  0.996159  0.0  0.119117  0.116269  0.000274  0.997292  0.0
H  H10  1  0.82722180  0.48412560  0.31003723  1  0.083569  -1.5e-05  0.961895  0.0  0.096585  7.4e-05  1.032143  0.0  0.097066  3.5e-05  1.0325  0.0  0.1127  0.096118  0.000111  1.032123  0.0
H  H11  1  0.32723660  0.51587571  0.68996358  1  0.083538  -2.1e-05  0.961844  0.0  0.096562  7.4e-05  1.032117  0.0  0.097042  3.5e-05  1.032472  0.0  0.112678  0.096084  0.000111  1.032099  0.0
H  H12  1  0.00570043  0.84209943  0.42253844  1  0.09917  0.000113  0.959734  0.0  0.109413  8.4e-05  1.020733  0.0  0.111617  5.4e-05  1.021165  0.0  0.10155  0.107817  0.000109  1.020578  0.0
H  H13  1  0.50569039  0.15790617  0.57745820  1  0.099128  0.000109  0.95984  0.0  0.109443  8.4e-05  1.020784  0.0  0.111647  5.4e-05  1.021216  0.0  0.101548  0.107844  0.000109  1.020624  0.0
H  H14  1  0.90970371  0.95255966  0.60005843  1  0.10996  -8.8e-05  0.940773  0.0  0.117379  -4.8e-05  1.004231  0.0  0.120581  -4e-05  1.002723  0.0  0.105735  0.11499  -5e-05  1.005476  0.0
H  H15  1  0.40971605  0.04747063  0.39993791  1  0.10995  -7.7e-05  0.940916  0.0  0.117393  -4.9e-05  1.004317  0.0  0.120601  -4e-05  1.002806  0.0  0.105776  0.115002  -5e-05  1.005567  0.0
H  H16  1  0.22100887  0.67417180  0.58662215  1  0.087235  0.000375  0.984445  0.0  0.097011  0.000306  1.050201  0.0  0.099521  0.000205  1.049039  0.0  0.098252  0.095144  0.000396  1.051168  0.0
H  H17  1  0.72101222  0.32582929  0.41338087  1  0.087247  0.000378  0.984373  0.0  0.096982  0.000307  1.050178  0.0  0.099495  0.000205  1.049008  0.0  0.098231  0.095113  0.000397  1.051144  0.0
H  H18  1  0.32513835  0.55107197  0.41553474  1  0.087595  -1.8e-05  0.966517  0.0  0.098054  -1e-06  1.031773  0.0  0.100037  -2e-06  1.032608  0.0  0.096264  0.096611  -0.0  1.031323  0.0
H  H19  1  0.82514174  0.44893530  0.58447101  1  0.087683  -2.4e-05  0.966349  0.0  0.0981  -1e-06  1.031657  0.0  0.100084  -2e-06  1.032489  0.0  0.096288  0.096658  -0.0  1.031201  0.0
C  C20  1  0.29904597  0.81091111  0.02091301  1  0.674394  -0.013713  3.853877  -0.013  0.634645  -0.003581  4.146253  -0.004  0.677078  -0.003994  4.13744  -0.004  0.213931  0.605685  -0.003134  4.149985  -0.005
C  C21  1  0.79906234  0.18907772  0.97908831  1  0.674464  -0.013724  3.853814  -0.013  0.634726  -0.003581  4.146171  -0.004  0.677159  -0.003995  4.137354  -0.004  0.214022  0.605764  -0.003134  4.149923  -0.005
C  C22  1  0.51244164  0.71920624  0.17396744  1  0.496307  -0.003398  3.770747  -0.004  0.455145  0.00053  4.040616  0.0  0.485362  -0.000173  4.047371  0.0  0.234497  0.434936  0.001214  4.034964  0.0
C  C23  1  0.01246209  0.28078611  0.82603115  1  0.496376  -0.003421  3.770678  -0.004  0.455141  0.000532  4.040564  0.0  0.48536  -0.000173  4.047316  0.0  0.234498  0.434935  0.001215  4.034893  0.0
C  C24  1  0.32105010  0.69673417  0.09753405  1  -0.228609  0.00776  3.712659  0.009  -0.209259  0.004441  3.954296  0.006  -0.230373  0.002894  3.974539  0.004  -0.020704  -0.19609  0.005761  3.941285  0.007
C  C25  1  0.82105793  0.30325140  0.90246105  1  -0.228632  0.007791  3.712781  0.009  -0.209275  0.004441  3.954413  0.006  -0.230377  0.002896  3.974636  0.004  -0.020699  -0.196114  0.005761  3.941408  0.007
C  C26  1  0.16610036  0.56083778  0.09096794  1  0.035382  -0.003507  3.68595  -0.002  0.000844  -0.000855  3.943281  -0.001  0.015269  -0.000982  3.954014  -0.001  -0.057142  -0.008393  -0.000716  3.936304  -0.001
C  C27  1  0.66610123  0.43914938  0.90902652  1  0.03534  -0.003565  3.685993  -0.002  0.00085  -0.000853  3.943285  -0.001  0.015271  -0.000986  3.954018  -0.001  -0.057107  -0.00839  -0.000717  3.936305  -0.001
C  C28  1  0.20304628  0.43904282  0.15308721  1  -0.146486  0.000404  3.7351  0.001  -0.165538  -0.000279  4.010224  0.0  -0.177146  -0.000434  4.028728  0.0  -0.09606  -0.158402  -4.2e-05  3.998051  0.0
C  C29  1  0.70304820  0.56094604  0.84690664  1  -0.146425  0.000423  3.735037  0.001  -0.165501  -0.00028  4.010227  0.0  -0.177103  -0.00043  4.028725  0.0  -0.096095  -0.158357  -4.1e-05  3.998029  0.0
C  C30  1  0.40259652  0.45523798  0.22007341  1  0.126697  -0.001302  3.609815  0.0  0.080316  -0.000181  3.872607  0.0  0.094516  -0.000397  3.883968  0.0  0.065563  0.071239  -1e-05  3.86475  0.0
C  C31  1  0.90259683  0.54474986  0.77992261  1  0.126901  -0.001316  3.609709  0.0  0.080488  -0.00018  3.872552  0.0  0.094688  -0.0004  3.883908  0.0  0.065606  0.071403  -1e-05  3.864693  0.0
C  C32  1  0.75668353  0.60700099  0.30512427  1  -0.054879  0.000643  3.644853  0.001  -0.12445  0.000586  3.893611  0.0  -0.119415  0.000366  3.902493  0.0  -0.054418  -0.127801  0.000781  3.887944  0.001
C  C33  1  0.25668275  0.39299817  0.69487711  1  -0.054857  0.000653  3.644741  0.001  -0.124534  0.000586  3.893527  0.0  -0.119495  0.000366  3.902404  0.0  -0.054486  -0.127879  0.000781  3.887834  0.001
C  C34  1  0.67690439  0.68634616  0.40741015  1  0.084112  -0.001843  3.730297  -0.001  0.103669  -0.000658  3.968185  0.0  0.10484  -0.000688  3.990525  0.0  -0.009583  0.102992  -0.000634  3.953028  0.0
C  C35  1  0.17691747  0.31365804  0.59258863  1  0.084151  -0.001952  3.730156  -0.001  0.103719  -0.000658  3.968042  0.0  0.104889  -0.00069  3.990383  0.0  -0.009502  0.103049  -0.000635  3.952865  0.0
C  C36  1  0.83614407  0.80227544  0.45960665  1  -0.1139  0.001227  3.715661  0.001  -0.131554  0.00044  3.960864  0.001  -0.135755  0.000341  3.98275  0.0  -0.087799  -0.128813  0.000565  3.946063  0.001
C  C37  1  0.33615585  0.19772606  0.54038894  1  -0.11381  0.001314  3.715403  0.001  -0.131523  0.00044  3.960558  0.001  -0.135727  0.000342  3.982448  0.0  -0.087776  -0.128774  0.000565  3.945745  0.001
C  C38  1  0.78230216  0.86527760  0.55853056  1  -0.060271  -0.00077  3.720187  0.0  -0.081024  9.3e-05  3.966188  0.0  -0.080363  -0.000166  3.986574  0.0  -0.079714  -0.081311  0.00027  3.952554  0.001
C  C39  1  0.28231879  0.13473289  0.44146349  1  -0.060327  -0.000919  3.719908  0.0  -0.08107  9.3e-05  3.965902  0.0  -0.080419  -0.000167  3.986289  0.0  -0.079793  -0.081358  0.00027  3.952283  0.001
C  C40  1  0.56218639  0.81673274  0.60595768  1  -0.077869  0.008995  3.758783  0.01  -0.05355  0.004911  3.982138  0.006  -0.063646  0.003429  4.006617  0.004  -0.023158  -0.04726  0.006045  3.966201  0.007
C  C41  1  0.06218811  0.18327962  0.39404173  1  -0.077828  0.009063  3.758547  0.01  -0.05353  0.00491  3.981929  0.006  -0.063614  0.003429  4.00639  0.004  -0.023111  -0.047254  0.006044  3.966018  0.007
C  C42  1  0.39781334  0.70617603  0.55186455  1  -0.07515  -0.001673  3.775817  -0.001  -0.094917  -0.000208  4.018451  0.0  -0.093634  -0.000374  4.039369  0.0  -0.089773  -0.095542  -7.9e-05  4.004349  0.0
C  C43  1  0.89781518  0.29382740  0.44813791  1  -0.075117  -0.001787  3.775679  -0.001  -0.094839  -0.000208  4.018309  0.0  -0.093559  -0.000375  4.039225  0.0  -0.089769  -0.095467  -7.8e-05  4.004228  0.0
C  C44  1  0.45552906  0.63952008  0.45435303  1  -0.127781  0.000592  3.749183  0.001  -0.146991  8.2e-05  3.997875  0.0  -0.151474  0.000129  4.019811  0.0  -0.097043  -0.144028  7.3e-05  3.982977  0.0
C  C45  1  0.95553380  0.36048290  0.54564940  1  -0.127929  0.000667  3.749074  0.001  -0.147123  8.2e-05  3.997782  0.0  -0.151607  0.00013  4.019721  0.0  -0.097092  -0.144164  7.3e-05  3.982876  0.0
C  C46  1  0.50299414  0.88483130  0.71283562  1  0.629602  -0.006461  3.921208  -0.007  0.595241  -0.001753  4.216994  -0.003  0.633054  -0.00199  4.207998  -0.002  0.197381  0.569525  -0.001318  4.22147  -0.003
C  C47  1  0.00297782  0.11518387  0.28716699  1  0.629527  -0.006483  3.921146  -0.007  0.595152  -0.001754  4.216986  -0.003  0.632957  -0.001991  4.208  -0.002  0.197332  0.569446  -0.001319  4.221467  -0.003
N  N48  1  0.54908876  0.59042510  0.23074023  1  -0.12288  0.004301  3.431712  0.006  -0.027764  0.003282  3.64383  0.005  -0.047381  0.002281  3.665281  0.003  -0.221618  -0.015143  0.00406  3.629495  0.005
N  N49  1  0.04908949  0.40957015  0.76925859  1  -0.123027  0.00431  3.431554  0.006  -0.027783  0.003283  3.643594  0.005  -0.0474  0.002282  3.665037  0.003  -0.221639  -0.015164  0.004061  3.629243  0.005
O  O50  1  0.42431747  0.94259838  0.02666074  1  -0.603496  0.069963  2.15688  0.1  -0.58778  0.044812  2.458047  0.07  -0.627294  0.032308  2.441457  0.055  -0.314518  -0.557697  0.054383  2.467292  0.081
O  O51  1  0.92432572  0.05738974  0.97333605  1  -0.603499  0.069969  2.157006  0.1  -0.587787  0.044815  2.458189  0.07  -0.627299  0.032309  2.441598  0.055  -0.314535  -0.557717  0.054383  2.467471  0.081
O  O52  1  0.15724331  0.76836019  0.94455489  1  -0.585188  0.08417  2.016962  0.116  -0.557283  0.05619  2.286059  0.085  -0.598664  0.041107  2.278316  0.067  -0.31117  -0.527843  0.066534  2.290712  0.095
O  O53  1  0.65728038  0.23163879  0.05545319  1  -0.585187  0.084172  2.016829  0.116  -0.557318  0.056184  2.285968  0.085  -0.598696  0.041106  2.278212  0.067  -0.311215  -0.527887  0.066522  2.29064  0.095
O  O54  1  0.65746470  0.83996384  0.19491888  1  -0.543586  0.059566  2.149037  0.084  -0.515731  0.042698  2.43168  0.065  -0.551699  0.0324  2.423031  0.054  -0.299863  -0.489802  0.049588  2.436932  0.071
O  O55  1  0.15750232  0.16004116  0.80509191  1  -0.543664  0.059567  2.149076  0.084  -0.515736  0.042699  2.431715  0.065  -0.551714  0.032401  2.423085  0.054  -0.299955  -0.489809  0.049592  2.436965  0.071
O  O56  1  0.65797329  0.97519502  0.76229473  1  -0.606338  -0.000501  1.932418  0.002  -0.589354  -0.001277  2.182652  0.001  -0.611311  -0.002235  2.169539  0.0  -0.32212  -0.572728  -0.000264  2.190481  0.002
O  O57  1  0.15795078  0.02484051  0.23769455  1  -0.606263  -0.000484  1.932074  0.002  -0.589296  -0.001279  2.182333  0.001  -0.61125  -0.002236  2.169222  0.0  -0.322042  -0.572675  -0.000266  2.190166  0.002
O  O58  1  0.28390024  0.83848695  0.74574377  1  -0.637379  0.092603  2.06321  0.128  -0.620015  0.05448  2.362982  0.083  -0.661698  0.039657  2.350282  0.065  -0.342911  -0.59006  0.064156  2.370938  0.092
O  O59  1  0.78386015  0.16152333  0.25426819  1  -0.637381  0.092633  2.063353  0.128  -0.619973  0.054492  2.363071  0.083  -0.661656  0.039667  2.350369  0.065  -0.342918  -0.59002  0.064167  2.371025  0.092
