# generated using pymatgen
data_Zn4H38C49Br2N16O5
_symmetry_space_group_name_H-M   'P 1'
_cell_length_a   14.57578308
_cell_length_b   15.20429704
_cell_length_c   15.33054568
_cell_angle_alpha   69.21788936
_cell_angle_beta   65.99837788
_cell_angle_gamma   105.34392616
_symmetry_Int_Tables_number   1
_chemical_formula_structural   Zn4H38C49Br2N16O5
_chemical_formula_sum   'Zn4 H38 C49 Br2 N16 O5'
_cell_volume   2547.53784830
_cell_formula_units_Z   1
loop_
 _symmetry_equiv_pos_site_id
 _symmetry_equiv_pos_as_xyz
  1  'x, y, z'
loop_
 _atom_site_type_symbol
 _atom_site_label
 _atom_site_symmetry_multiplicity
 _atom_site_fract_x
 _atom_site_fract_y
 _atom_site_fract_z
 _atom_site_occupancy
 _atom_site_pbe_bader_charge
 _atom_site_pbe_bader_spin_density
 _atom_site_pbe_cm5_charge
 _atom_site_pbe_ddec_charge
 _atom_site_pbe_ddec_spin_density
 _atom_site_pbe_ddec_sum_bond_order
 _atom_site_pbe_magmom
Zn  Zn0  1  0.08724322  0.50834608  0.85615579  1  1.177485  0  0.753231  0.61255  0  2.485058  0
Zn  Zn1  1  0.86305038  0.49210019  0.15020524  1  1.228208  0  0.729075  0.615386  0  2.508499  0
Zn  Zn2  1  0.03557447  0.37959610  0.13887004  1  1.204145  0  0.734951  0.602718  0  2.51886  0
Zn  Zn3  1  0.97857639  0.64334190  0.85706715  1  1.183975  0  0.75752  0.606365  0  2.472531  0
H  H4  1  0.08852638  0.31298602  0.81894505  1  0.104235  0  0.122296  0.112363  0  0.98894  0
H  H5  1  0.67582360  0.30490244  0.19212265  1  0.099831  0  0.124535  0.113835  0  0.983346  0
H  H6  1  0.93975856  0.54547179  0.39048067  1  0.082196  0  0.102331  0.08893  0  0.970939  0
H  H7  1  0.08140608  0.78814232  0.40110785  1  0.02157  0  0.093149  0.097971  0  0.977706  0
H  H8  1  0.04282914  0.74355867  0.28462214  1  0.039997  0  0.107062  0.090546  0  0.950668  0
H  H9  1  0.20172737  0.55566687  0.43927371  1  0.063501  0  0.096653  0.07797  0  0.981776  0
H  H10  1  0.24328376  0.57939737  0.26780556  1  0.061083  0  0.095728  0.112169  0  0.989224  0
H  H11  1  0.30698717  0.72043949  0.20046297  1  0.05739  0  0.097958  0.119525  0  0.974203  0
H  H12  1  0.22853814  0.83110474  0.31530482  1  0.071586  0  0.091179  0.103543  0  1.014402  0
H  H13  1  0.85913066  0.15772099  0.38546143  1  0.073847  0  0.115658  0.105978  0  0.994238  0
H  H14  1  0.37677301  0.22438137  0.12321482  1  0.051535  0  0.103395  0.095404  0  0.986512  0
H  H15  1  0.98066484  0.67336025  0.18395024  1  0.061349  0  0.108484  0.092212  0  1.028552  0
H  H16  1  0.67323847  0.35627619  0.86083971  1  0.033799  0  0.09089  0.083209  0  1.021123  0
H  H17  1  0.54250162  0.28315484  0.11102250  1  0.066407  0  0.094483  0.095164  0  1.012966  0
H  H18  1  0.51266506  0.16160565  0.60933386  1  0.030968  0  0.097161  0.096069  0  0.993574  0
H  H19  1  0.63293472  0.02701088  0.57386882  1  0.057084  0  0.102272  0.103668  0  0.987883  0
H  H20  1  0.34022953  0.99853107  0.74987943  1  0.024143  0  0.097152  0.090798  0  0.999961  0
H  H21  1  0.47807989  0.87591435  0.72135511  1  0.092588  0  0.101311  0.110023  0  1.021434  0
H  H22  1  0.77437343  0.82268658  0.20091925  1  0.051429  0  0.097544  0.088205  0  1.017091  0
H  H23  1  0.86862158  0.93352359  0.94952851  1  0.12526  0  0.112044  0.118565  0  1.000113  0
H  H24  1  0.80579221  0.00078386  0.16680255  1  0.062675  0  0.106197  0.103186  0  0.978881  0
H  H25  1  0.02544974  0.74856935  0.59076944  1  0.097596  0  0.119888  0.110818  0  0.992762  0
H  H26  1  0.14603486  0.20610671  0.21724589  1  0.072492  0  0.11154  0.096792  0  1.002084  0
H  H27  1  0.64713082  0.31266377  0.41425481  1  0.110102  0  0.119267  0.111431  0  1.000869  0
H  H28  1  0.18239841  0.54306136  0.60083898  1  0.099151  0  0.11823  0.110495  0  0.997953  0
H  H29  1  0.86539328  0.46186005  0.83046189  1  0.103531  0  0.117692  0.112075  0  1.01147  0
H  H30  1  0.91413239  0.15366203  0.18009667  1  0.084005  0  0.119548  0.104959  0  1.001674  0
H  H31  1  0.71279455  0.65114885  0.28215150  1  0.077415  0  0.116421  0.062365  0  0.959986  0
H  H32  1  0.21273498  0.83578580  0.08366674  1  0.072048  0  0.102583  0.036353  0  0.975637  0
H  H33  1  0.59390561  0.37136064  0.77238924  1  0.014756  0  0.081797  0.009665  0  0.984965  0
H  H34  1  0.13841425  0.15034610  0.89105810  1  0.087871  0  0.10378  0.04206  0  0.958196  0
H  H35  1  0.32186556  0.56925087  0.81300199  1  0.057069  0  0.096455  0.030122  0  0.999231  0
H  H36  1  0.90219587  0.82712054  0.85168408  1  0.128559  0  0.132373  0.125072  0  0.970217  0
H  H37  1  0.42814853  0.49588475  0.90019862  1  0.111917  0  0.120329  0.112668  0  0.994248  0
H  H38  1  0.16088289  0.84911696  0.83592396  1  0.098519  0  0.120437  0.111039  0  0.995472  0
H  H39  1  0.20783925  0.53461585  0.15088260  1  0.107926  0  0.11817  0.112837  0  1.011924  0
H  H40  1  0.94370002  0.59047021  0.52018586  1  0.024126  0  0.099207  0.110157  0  0.966685  0
H  H41  1  0.98889529  0.49470234  0.55772601  1  0.046456  0  0.090145  0.099839  0  1.010347  0
C  C42  1  0.05220682  0.29039504  0.90591373  1  0.358522  0  0.011154  -0.055157  0  3.98803  0
C  C43  1  0.34677874  0.43359912  0.97797916  1  0.535512  0  0.026085  -0.002279  0  3.966714  0
C  C44  1  0.18821869  0.78906800  0.83682027  1  0.41463  0  0.01456  -0.048431  0  3.9315  0
C  C45  1  0.73924975  0.35321922  0.10203039  1  0.418264  0  0.020892  -0.028122  0  3.91818  0
C  C46  1  0.14582274  0.56148430  0.15141855  1  0.407473  0  0.006395  -0.041404  0  3.970064  0
C  C47  1  0.29576283  0.79535845  0.80719053  1  0.003579  0  -0.015107  0.023768  0  4.026371  0
C  C48  1  0.11280320  0.62545798  0.19087307  1  -0.008349  0  -0.050605  -0.085744  0  4.037598  0
C  C49  1  0.31779091  0.32690894  0.05242208  1  -0.004398  0  -0.040422  -0.014395  0  4.121552  0
C  C50  1  0.82463698  0.76901498  0.03456784  1  0.038784  0  -0.012603  0.011  0  4.047198  0
C  C51  1  0.01073266  0.56854103  0.48714511  1  -0.006364  0  -0.163706  -0.242372  0  3.891912  0
C  C52  1  0.01494681  0.55192318  0.39340907  1  -0.025474  0  -0.063232  0.032538  0  3.671413  0
C  C53  1  0.72514053  0.35705304  0.01483117  1  0.02659  0  -0.031426  0.037909  0  4.094742  0
C  C54  1  0.14252794  0.76494035  0.35808580  1  -0.032639  0  -0.162474  -0.224523  0  3.854857  0
C  C55  1  0.22018675  0.63596533  0.38252497  1  -0.01009  0  -0.063529  0.037928  0  3.667061  0
C  C56  1  0.12626080  0.66084225  0.44370086  1  0.080924  0  -0.013214  0.109365  0  3.831146  0
C  C57  1  0.82099471  0.20985415  0.37416686  1  0.427567  0  0.002816  -0.069395  0  4.001058  0
C  C58  1  0.12455442  0.64383782  0.27700697  1  0.049027  0  -0.004821  0.093583  0  3.800942  0
C  C59  1  0.12581882  0.74973258  0.26995546  1  -0.042415  0  -0.081546  -0.099248  0  3.796049  0
C  C60  1  0.23144807  0.64535717  0.27494737  1  -0.02722  0  -0.166872  -0.241014  0  3.864162  0
C  C61  1  0.49815105  0.32265298  0.94650072  1  -0.038632  0  -0.045706  -0.041431  0  4.04884  0
C  C62  1  0.39516851  0.28539455  0.04436873  1  -0.029037  0  -0.053051  -0.059647  0  3.897493  0
C  C63  1  0.59938972  0.32599203  0.94414288  1  -0.052296  0  -0.100001  -0.117987  0  4.066928  0
C  C64  1  0.71382666  0.19441641  0.45008009  1  -0.029163  0  -0.040807  -0.001099  0  4.1553  0
C  C65  1  0.61600801  0.31351633  0.02786941  1  -0.047815  0  -0.116086  -0.158759  0  4.055483  0
C  C66  1  0.52103524  0.08885815  0.62741686  1  -0.03057  0  -0.105448  -0.106386  0  4.063548  0
C  C67  1  0.62223332  0.09859187  0.55614769  1  0.006996  0  -0.091596  -0.108719  0  4.017894  0
C  C68  1  0.41702893  0.98966052  0.71605107  1  0.039159  0  -0.097399  -0.081574  0  4.054047  0
C  C69  1  0.05972306  0.69454751  0.61041737  1  0.370913  0  0.005065  -0.055092  0  3.974184  0
C  C70  1  0.40376810  0.88882796  0.74974211  1  -0.062885  0  -0.097321  -0.132583  0  4.004926  0
C  C71  1  0.81876854  0.88837491  0.11421762  1  -0.00772  0  -0.098452  -0.101479  0  4.045354  0
C  C72  1  0.83457122  0.86677630  0.03183905  1  -0.031487  0  -0.077008  -0.084666  0  3.996701  0
C  C73  1  0.85763979  0.99432060  0.09619209  1  -0.027184  0  -0.067419  -0.072096  0  3.938281  0
C  C74  1  0.95719282  0.08669004  0.00635352  1  -0.047687  0  -0.020578  -0.025593  0  3.979936  0
C  C75  1  0.11591487  0.65600901  0.54715906  1  0.010018  0  -0.035304  -0.03828  0  3.999953  0
C  C76  1  0.71288618  0.28887219  0.38989945  1  0.416849  0  0.010632  -0.048688  0  3.952164  0
C  C77  1  0.13892202  0.58914385  0.61608351  1  0.408716  0  0.006148  -0.05424  0  4.00003  0
C  C78  1  0.83468831  0.43198971  0.91799139  1  0.340518  0  -0.000408  -0.063592  0  3.902157  0
C  C79  1  0.96107462  0.20928229  0.09025811  1  0.425429  0  0.015432  -0.040588  0  3.956648  0
C  C80  1  0.98626509  0.18801186  0.00330456  1  0.026944  0  -0.038074  -0.043917  0  4.126839  0
C  C81  1  0.74945286  0.61418794  0.23641527  1  0.855631  0  0.099618  0.24196  0  3.972354  0
C  C82  1  0.21426158  0.84664762  0.15139116  1  0.950481  0  0.106459  0.305083  0  3.887804  0
C  C83  1  0.51324067  0.36336800  0.83633714  1  0.928984  0  0.070326  0.247784  0  4.048877  0
C  C84  1  0.05429023  0.09020211  0.91720936  1  0.8817  0  0.091926  0.266809  0  3.97636  0
C  C85  1  0.35889546  0.65037438  0.80042655  1  0.981003  0  0.089202  0.250934  0  4.034142  0
C  C86  1  0.27904236  0.69274727  0.82348914  1  0.364252  0  0.082162  0.058311  0  3.970738  0
C  C87  1  0.03024825  0.63218907  0.16778035  1  0.397863  0  -0.005326  -0.067793  0  4.021702  0
C  C88  1  0.20368989  0.28543469  0.14159890  1  0.410233  0  0.009857  -0.046638  0  3.984757  0
C  C89  1  0.86931170  0.76569365  0.93623020  1  0.357779  0  0.027048  -0.045435  0  3.914891  0
C  C90  1  0.79902538  0.66772773  0.11696626  1  0.447537  0  0.078072  0.03261  0  4.020552  0
Br  Br91  1  0.00229880  0.40845166  0.42663135  1  -0.161419  0  -0.022754  -0.131557  0  1.308732  0
Br  Br92  1  0.37122328  0.73007886  0.34551381  1  -0.170723  0  -0.048918  -0.16273  0  1.240502  0
N  N93  1  0.06471194  0.36554768  0.93367341  1  -0.828804  0  -0.285162  -0.160164  0  3.629173  0
N  N94  1  0.87777695  0.30463423  0.27759825  1  -0.806158  0  -0.278498  -0.179186  0  3.605869  0
N  N95  1  0.05036117  0.65333532  0.70964393  1  -0.807078  0  -0.284735  -0.18855  0  3.591608  0
N  N96  1  0.81031450  0.35315264  0.28753503  1  -0.805876  0  -0.268008  -0.166131  0  3.57099  0
N  N97  1  0.09953598  0.58791526  0.71249396  1  -0.798155  0  -0.282945  -0.175013  0  3.59804  0
N  N98  1  0.90689157  0.47388925  0.94566519  1  -0.834903  0  -0.300662  -0.219772  0  3.602422  0
N  N99  1  0.00836119  0.31543931  0.04777318  1  -0.725795  0  -0.261576  -0.158047  0  3.530753  0
N  N100  1  0.16959596  0.63320922  0.85804705  1  -0.782924  0  -0.271326  -0.209817  0  3.60177  0
N  N101  1  0.01369730  0.57434763  0.12115835  1  -0.796403  0  -0.28832  -0.180717  0  3.608798  0
N  N102  1  0.17099596  0.36072340  0.11921370  1  -0.823081  0  -0.290676  -0.199001  0  3.608968  0
N  N103  1  0.87319206  0.67283571  0.95792326  1  -0.73512  0  -0.250355  -0.120413  0  3.592862  0
N  N104  1  0.83091507  0.61299716  0.06777155  1  -0.723468  0  -0.238311  -0.179317  0  3.454597  0
N  N105  1  0.26126611  0.45400415  0.01787783  1  -0.765339  0  -0.260979  -0.228069  0  3.269566  0
N  N106  1  0.11543608  0.69243452  0.86543557  1  -0.773132  0  -0.275753  -0.175149  0  3.64925  0
N  N107  1  0.08469595  0.52995937  0.11143014  1  -0.761977  0  -0.27412  -0.169034  0  3.539652  0
N  N108  1  0.84584965  0.42308313  0.06089340  1  -0.818242  0  -0.281303  -0.195163  0  3.566354  0
O  O109  1  0.74664217  0.52828811  0.28801231  1  -1.088079  0  -0.251775  -0.347647  0  2.205899  0
O  O110  1  0.28179404  0.93111912  0.12939836  1  -1.079618  0  -0.258833  -0.345072  0  2.109664  0
O  O111  1  0.44832131  0.38222031  0.80985809  1  -1.096203  0  -0.299995  -0.395217  0  2.13511  0
O  O112  1  0.05198826  0.03517654  0.87474045  1  -1.066859  0  -0.273105  -0.374135  0  2.154436  0
O  O113  1  0.45989063  0.69838490  0.76727854  1  -1.090923  0  -0.286321  -0.376418  0  2.092627  0
