# generated using pymatgen
data_ZnH2C6SO4
_symmetry_space_group_name_H-M   'P 1'
_cell_length_a   19.65682774
_cell_length_b   19.70611713
_cell_length_c   33.34763873
_cell_angle_alpha   79.08436222
_cell_angle_beta   79.22767448
_cell_angle_gamma   63.97701580
_symmetry_Int_Tables_number   1
_chemical_formula_structural   ZnH2C6SO4
_chemical_formula_sum   'Zn16 H32 C96 S16 O64'
_cell_volume   11318.72388231
_cell_formula_units_Z   16
loop_
 _symmetry_equiv_pos_site_id
 _symmetry_equiv_pos_as_xyz
  1  'x, y, z'
loop_
 _atom_site_type_symbol
 _atom_site_label
 _atom_site_symmetry_multiplicity
 _atom_site_fract_x
 _atom_site_fract_y
 _atom_site_fract_z
 _atom_site_occupancy
 _atom_site_pbe_bader_charge
 _atom_site_pbe_bader_spin_density
 _atom_site_pbe_cm5_charge
 _atom_site_pbe_ddec_charge
 _atom_site_pbe_ddec_spin_density
 _atom_site_pbe_ddec_sum_bond_order
 _atom_site_pbe_magmom
Zn  Zn0  1  0.05715915  0.39992432  0.47878410  1  1.325879  0  0.673991  0.974116  0  2.347221  0
Zn  Zn1  1  0.98386340  0.48273216  0.56070411  1  1.313899  0  0.677826  0.960365  0  2.387476  0
Zn  Zn2  1  0.05822164  0.56094117  0.48209137  1  1.31496  0  0.671736  0.957461  0  2.380729  0
Zn  Zn3  1  0.90076047  0.55540158  0.48006398  1  1.310696  0  0.671566  0.95722  0  2.382431  0
Zn  Zn4  1  0.69492662  0.35034896  0.27137892  1  1.322237  0  0.671563  0.968684  0  2.359484  0
Zn  Zn5  1  0.68976276  0.19054419  0.26706627  1  1.321898  0  0.672526  0.967  0  2.364286  0
Zn  Zn6  1  0.76970120  0.26648299  0.19066426  1  1.309785  0  0.670926  0.95698  0  2.374901  0
Zn  Zn7  1  0.84896250  0.19553922  0.27295850  1  1.319976  0  0.674698  0.96222  0  2.374422  0
Zn  Zn8  1  0.26636740  0.76637067  0.68928976  1  1.308286  0  0.672515  0.962813  0  2.375318  0
Zn  Zn9  1  0.34856210  0.69490634  0.77159015  1  1.317118  0  0.674626  0.963598  0  2.378248  0
Zn  Zn10  1  0.19257397  0.84665808  0.77133253  1  1.314384  0  0.668565  0.960949  0  2.370914  0
Zn  Zn11  1  0.19070992  0.68702774  0.76654391  1  1.316104  0  0.674523  0.965828  0  2.365666  0
Zn  Zn12  1  0.56067236  0.06009377  0.98349000  1  1.314067  0  0.671184  0.963927  0  2.369783  0
Zn  Zn13  1  0.40106835  0.05486331  0.97799400  1  1.313957  0  0.672259  0.963104  0  2.368701  0
Zn  Zn14  1  0.55401405  0.90187561  0.97790832  1  1.318712  0  0.670129  0.965572  0  2.368792  0
Zn  Zn15  1  0.48424764  0.98360033  0.06039469  1  1.313812  0  0.671522  0.965756  0  2.361906  0
H  H16  1  0.95363302  0.24906137  0.35136829  1  0.100234  0  0.105503  0.115529  0  1.00164  0
H  H17  1  0.74676455  0.45578599  0.35116110  1  0.140639  0  0.114888  0.139235  0  0.982674  0
H  H18  1  0.00103285  0.29781206  0.39950418  1  0.134477  0  0.109154  0.114295  0  0.988937  0
H  H19  1  0.09769158  0.59740923  0.70003129  1  0.104432  0  0.105934  0.115957  0  1.00178  0
H  H20  1  0.20141923  0.70125479  0.59662151  1  0.086415  0  0.114606  0.139103  0  0.982758  0
H  H21  1  0.04997249  0.55020552  0.65118311  1  0.069155  0  0.109735  0.115684  0  0.988614  0
H  H22  1  0.46255447  0.24073239  0.34124007  1  0.105748  0  0.122135  0.147635  0  0.967165  0
H  H23  1  0.47961796  0.70249155  0.60124901  1  0.120777  0  0.123537  0.149233  0  0.965252  0
H  H24  1  0.20243413  0.97960300  0.60169397  1  0.125381  0  0.12343  0.149026  0  0.965243  0
H  H25  1  0.94874482  0.96959323  0.34825719  1  0.111337  0  0.123622  0.149507  0  0.965497  0
H  H26  1  0.54986457  0.04998372  0.15273376  1  0.090559  0  0.105121  0.115116  0  1.0023  0
H  H27  1  0.65327191  0.15342392  0.04895958  1  0.089466  0  0.11494  0.139498  0  0.982622  0
H  H28  1  0.59859614  0.09847848  0.20029178  1  0.098265  0  0.108683  0.114057  0  0.989831  0
H  H29  1  0.54793869  0.76964589  0.14848582  1  0.101518  0  0.122908  0.148547  0  0.965996  0
H  H30  1  0.16264616  0.14125699  0.04071597  1  0.122686  0  0.123313  0.14921  0  0.96513  0
H  H31  1  0.50119339  0.79612442  0.89881182  1  0.097241  0  0.105008  0.114704  0  1.002818  0
H  H32  1  0.29458651  0.00316272  0.89877577  1  0.099418  0  0.115081  0.13949  0  0.981822  0
H  H33  1  0.45170719  0.74958460  0.85061823  1  0.06836  0  0.109237  0.11475  0  0.988848  0
H  H34  1  0.30098437  0.28022367  0.90193111  1  0.102523  0  0.123527  0.148883  0  0.965597  0
H  H35  1  0.78746658  0.00907454  0.90884459  1  0.10921  0  0.123334  0.148861  0  0.965356  0
H  H36  1  0.81049096  0.52725607  0.41898051  1  0.647743  0  0.308108  0.359306  0  0.961  0
H  H37  1  0.13571109  0.63597795  0.52653583  1  0.651387  0  0.307528  0.357986  0  0.96092  0
H  H38  1  0.72334045  0.22313654  0.11454640  1  0.653201  0  0.308451  0.359561  0  0.959381  0
H  H39  1  0.22198734  0.93995580  0.83113598  1  0.65156  0  0.307402  0.357936  0  0.961557  0
H  H40  1  0.32578256  0.54264485  0.39853927  1  0.593004  0  0.343051  0.369238  0  0.863243  0
H  H41  1  0.75650256  0.53972987  0.68446235  1  0.619199  0  0.341189  0.366464  0  0.868195  0
H  H42  1  0.04025673  0.25620820  0.68420320  1  0.589061  0  0.341182  0.366418  0  0.866968  0
H  H43  1  0.74293489  0.81525149  0.38796667  1  0.612447  0  0.343278  0.369086  0  0.865502  0
H  H44  1  0.71025381  0.49314839  0.06555114  1  0.619781  0  0.342786  0.368337  0  0.865562  0
H  H45  1  0.14857834  0.07574288  0.22083356  1  0.587592  0  0.342696  0.368649  0  0.865415  0
H  H46  1  0.50689423  0.43404981  0.86215546  1  0.598811  0  0.341676  0.367359  0  0.86718  0
H  H47  1  0.92414294  0.70693376  0.85182320  1  0.582987  0  0.342356  0.36769  0  0.866851  0
C  C48  1  0.06165393  0.31595605  0.56225753  1  1.566376  0  0.212837  0.623762  0  4.220301  0
C  C49  1  0.06944871  0.57023138  0.56939571  1  1.510443  0  0.226986  0.614777  0  4.154094  0
C  C50  1  0.18408707  0.44058627  0.43863112  1  1.580003  0  0.21249  0.622874  0  4.219434  0
C  C51  1  0.93602769  0.68439077  0.43872434  1  1.581882  0  0.211543  0.62126  0  4.221614  0
C  C52  1  0.93086678  0.42995297  0.43084527  1  1.514377  0  0.22748  0.617482  0  4.15092  0
C  C53  1  0.81637111  0.56081691  0.56257023  1  1.56284  0  0.212219  0.62184  0  4.221898  0
C  C54  1  0.56585110  0.31135964  0.31120937  1  1.543773  0  0.217553  0.609841  0  4.217236  0
C  C55  1  0.68088194  0.18008740  0.18070383  1  1.503555  0  0.227241  0.616555  0  4.148832  0
C  C56  1  0.68945931  0.43329212  0.18755801  1  1.56815  0  0.212527  0.623726  0  4.215187  0
C  C57  1  0.93573899  0.18714534  0.18986294  1  1.580863  0  0.213025  0.623446  0  4.217355  0
C  C58  1  0.81847326  0.32104681  0.31991514  1  1.56329  0  0.23128  0.607428  0  4.151518  0
C  C59  1  0.81134437  0.06627660  0.31166975  1  1.568058  0  0.219035  0.610042  0  4.218469  0
C  C60  1  0.43354280  0.68964371  0.68827522  1  1.565293  0  0.21716  0.607514  0  4.223104  0
C  C61  1  0.31906446  0.82001189  0.81935453  1  1.525933  0  0.227456  0.616838  0  4.149779  0
C  C62  1  0.18889007  0.93341812  0.68861867  1  1.626952  0  0.21761  0.608584  0  4.221926  0
C  C63  1  0.06563003  0.80900729  0.81129970  1  1.574782  0  0.212618  0.622323  0  4.216853  0
C  C64  1  0.18128032  0.68029074  0.67975652  1  1.533891  0  0.230862  0.608041  0  4.148952  0
C  C65  1  0.31371492  0.56534682  0.81139018  1  1.578613  0  0.212849  0.621997  0  4.222526  0
C  C66  1  0.43830532  0.18374698  0.93867945  1  1.544939  0  0.218188  0.608859  0  4.221153  0
C  C67  1  0.42952605  0.93106107  0.93024409  1  1.560967  0  0.231151  0.607737  0  4.149765  0
C  C68  1  0.68373966  0.93890952  0.93861474  1  1.575214  0  0.217865  0.609419  0  4.218193  0
C  C69  1  0.56121870  0.81643107  0.06142199  1  1.568479  0  0.217863  0.60811  0  4.219906  0
C  C70  1  0.57021269  0.07006255  0.06932774  1  1.548555  0  0.230806  0.607207  0  4.148583  0
C  C71  1  0.31625435  0.06150904  0.06121536  1  1.548678  0  0.217925  0.609208  0  4.221726  0
C  C72  1  0.90119470  0.40331066  0.40233279  1  -0.012419  0  -0.03523  -0.191185  0  3.976017  0
C  C73  1  0.84737421  0.34966727  0.34853201  1  -0.033826  0  -0.012756  -0.00602  0  3.99577  0
C  C74  1  0.82848382  0.44865247  0.38850853  1  0.518263  0  0.095753  0.319848  0  4.051816  0
C  C75  1  0.91950993  0.30447789  0.36202760  1  0.01268  0  -0.099304  -0.136089  0  4.008888  0
C  C76  1  0.80247882  0.42088426  0.36159648  1  -0.035793  0  -0.092186  -0.211704  0  3.910145  0
C  C77  1  0.94548266  0.33153933  0.38857725  1  -0.051647  0  -0.081739  -0.062325  0  4.00818  0
C  C78  1  0.09864419  0.59895740  0.59703062  1  -0.002045  0  -0.034517  -0.188017  0  3.978337  0
C  C79  1  0.15232915  0.65200497  0.65104024  1  -0.057567  0  -0.012618  -0.006985  0  3.995023  0
C  C80  1  0.14197074  0.64204096  0.58125991  1  0.529636  0  0.096041  0.3189  0  4.055936  0
C  C81  1  0.10946052  0.60931315  0.66688756  1  -0.079396  0  -0.099449  -0.135572  0  4.008527  0
C  C82  1  0.16832445  0.66820979  0.60876649  1  0.087728  0  -0.092533  -0.21178  0  3.909753  0
C  C83  1  0.08324279  0.58339850  0.63991044  1  0.022828  0  -0.082828  -0.06546  0  4.007856  0
C  C84  1  0.30446375  0.45597122  0.40103639  1  0.575901  0  0.084607  0.276646  0  4.099301  0
C  C85  1  0.44581546  0.29746431  0.34906458  1  0.087159  0  -0.08586  -0.128809  0  3.953454  0
C  C86  1  0.25852225  0.41644445  0.41393733  1  -0.086701  0  -0.039912  -0.240397  0  3.933913  0
C  C87  1  0.49113811  0.33677983  0.33629316  1  -0.165988  0  -0.022561  -0.110278  0  3.96971  0
C  C88  1  0.37776856  0.34061209  0.37266140  1  -0.153042  0  -0.021564  0.011183  0  4.098628  0
C  C89  1  0.37273883  0.41223107  0.37737690  1  -0.1909  0  -0.038539  -0.157735  0  4.113127  0
C  C90  1  0.72644018  0.57555353  0.63036590  1  0.594208  0  0.084123  0.274562  0  4.1043  0
C  C91  1  0.52428612  0.67360182  0.62135683  1  0.013179  0  -0.083974  -0.12674  0  3.951447  0
C  C92  1  0.74241029  0.58521842  0.58760905  1  -0.145066  0  -0.039663  -0.240883  0  3.939533  0
C  C93  1  0.50861392  0.66404851  0.66370585  1  -0.072511  0  -0.022741  -0.108634  0  3.971651  0
C  C94  1  0.60357217  0.64142009  0.60905990  1  -0.177997  0  -0.021566  0.010581  0  4.100111  0
C  C95  1  0.64671232  0.60790182  0.64250623  1  -0.137742  0  -0.039894  -0.158811  0  4.118732  0
C  C96  1  0.07583542  0.22604317  0.63019076  1  0.611477  0  0.084514  0.27601  0  4.100154  0
C  C97  1  0.17363107  0.02419919  0.62169062  1  0.017399  0  -0.084643  -0.127457  0  3.950157  0
C  C98  1  0.08565872  0.24197917  0.58740457  1  -0.14601  0  -0.039726  -0.241291  0  3.937188  0
C  C99  1  0.16387483  0.00852801  0.66405357  1  -0.144966  0  -0.023058  -0.109507  0  3.970546  0
C  C100  1  0.14166161  0.10333360  0.60921912  1  -0.15158  0  -0.021283  0.011877  0  4.09862  0
C  C101  1  0.10808327  0.14643857  0.64252838  1  -0.141838  0  -0.039388  -0.158408  0  4.116358  0
C  C102  1  0.84189217  0.80067924  0.39713813  1  0.540566  0  0.084814  0.2763  0  4.102597  0
C  C103  1  0.90420245  0.94941019  0.35264230  1  0.076499  0  -0.084325  -0.127585  0  3.94985  0
C  C104  1  0.91084090  0.75841509  0.41370443  1  -0.093607  0  -0.039909  -0.240978  0  3.937536  0
C  C105  1  0.83577691  0.99122795  0.33636525  1  -0.160409  0  -0.022524  -0.108589  0  3.969514  0
C  C106  1  0.90676028  0.87988463  0.37474539  1  -0.157447  0  -0.02161  0.01138  0  4.097693  0
C  C107  1  0.83986701  0.87026273  0.37482028  1  -0.161768  0  -0.039429  -0.158053  0  4.117013  0
C  C108  1  0.65289054  0.15271210  0.15169727  1  0.007187  0  -0.035601  -0.190444  0  3.975571  0
C  C109  1  0.59877869  0.09890919  0.09803804  1  -0.017219  0  -0.012469  -0.006299  0  3.992704  0
C  C110  1  0.66848875  0.16859354  0.10841766  1  0.534568  0  0.097235  0.321635  0  4.0515  0
C  C111  1  0.58296753  0.08308424  0.14087932  1  -0.026033  0  -0.099171  -0.135201  0  4.007209  0
C  C112  1  0.64100559  0.14118789  0.08204874  1  0.058575  0  -0.092231  -0.212014  0  3.908567  0
C  C113  1  0.60995174  0.10993048  0.16704439  1  -0.058586  0  -0.081622  -0.06339  0  4.007533  0
C  C114  1  0.67453996  0.52341412  0.11957321  1  0.581119  0  0.08413  0.274696  0  4.102596  0
C  C115  1  0.57674229  0.72523050  0.12837795  1  0.043548  0  -0.085045  -0.128582  0  3.951484  0
C  C116  1  0.66477852  0.50723404  0.16234513  1  -0.138762  0  -0.039286  -0.239946  0  3.933421  0
C  C117  1  0.58637561  0.74123939  0.08602838  1  -0.079721  0  -0.022464  -0.107889  0  3.96576  0
C  C118  1  0.60868550  0.64600964  0.14070908  1  -0.177672  0  -0.021282  0.011858  0  4.097433  0
C  C119  1  0.64223764  0.60308404  0.10732583  1  -0.131396  0  -0.038958  -0.157115  0  4.113702  0
C  C120  1  0.08251328  0.12315464  0.17869489  1  0.483699  0  0.084351  0.27515  0  4.102545  0
C  C121  1  0.17040625  0.12466521  0.07312086  1  0.086267  0  -0.084165  -0.127028  0  3.948439  0
C  C122  1  0.01035007  0.16214708  0.16534749  1  -0.090017  0  -0.039595  -0.240117  0  3.933667  0
C  C123  1  0.24176285  0.08603176  0.08649416  1  -0.185099  0  -0.02341  -0.110714  0  3.970153  0
C  C124  1  0.11216647  0.13834340  0.10658163  1  -0.121733  0  -0.021319  0.01147  0  4.094752  0
C  C125  1  0.14064333  0.10966089  0.14490082  1  -0.197816  0  -0.039477  -0.15742  0  4.115243  0
C  C126  1  0.34623733  0.84951729  0.84768875  1  0.057676  0  -0.035403  -0.190248  0  3.974823  0
C  C127  1  0.40069423  0.90248271  0.90154319  1  -0.033595  0  -0.012218  -0.005828  0  3.992196  0
C  C128  1  0.30116864  0.92200831  0.86143887  1  0.506551  0  0.097101  0.321921  0  4.05037  0
C  C129  1  0.44563606  0.83051592  0.88810291  1  0.004177  0  -0.099761  -0.136923  0  4.007758  0
C  C130  1  0.32932333  0.94762251  0.88835175  1  0.003386  0  -0.092439  -0.211684  0  3.907964  0
C  C131  1  0.41820952  0.80499017  0.86151039  1  -0.050367  0  -0.081142  -0.062121  0  4.005531  0
C  C132  1  0.40794940  0.44893157  0.85289225  1  0.529562  0  0.083708  0.275346  0  4.102158  0
C  C133  1  0.34555135  0.30036823  0.89752474  1  0.152016  0  -0.085011  -0.127469  0  3.951822  0
C  C134  1  0.33900297  0.49118238  0.83632445  1  -0.105404  0  -0.039361  -0.239338  0  3.935338  0
C  C135  1  0.41395229  0.25859520  0.91381666  1  -0.191441  0  -0.022567  -0.109022  0  3.971487  0
C  C136  1  0.34308638  0.36974828  0.87529042  1  -0.201805  0  -0.021469  0.010599  0  4.098107  0
C  C137  1  0.41000483  0.37934291  0.87518339  1  -0.115066  0  -0.039841  -0.158146  0  4.116043  0
C  C138  1  0.94529265  0.79372519  0.84905474  1  0.569156  0  0.08438  0.275935  0  4.101407  0
C  C139  1  0.80409637  0.95237603  0.90100694  1  0.094363  0  -0.084019  -0.126175  0  3.949044  0
C  C140  1  0.99129537  0.83315560  0.83610550  1  -0.078805  0  -0.039756  -0.240333  0  3.933712  0
C  C141  1  0.75860621  0.91323369  0.91371343  1  -0.199839  0  -0.022989  -0.110361  0  3.97043  0
C  C142  1  0.87214560  0.90908446  0.87744624  1  -0.184666  0  -0.020894  0.012325  0  4.096038  0
C  C143  1  0.87706988  0.83750582  0.87273534  1  -0.165626  0  -0.039596  -0.158317  0  4.114419  0
S  S144  1  0.29888500  0.32663820  0.39722534  1  0.280047  0  0.071893  0.117598  0  2.750023  0
S  S145  1  0.45159248  0.42646739  0.35280559  1  0.242261  0  0.069989  0.115199  0  2.768967  0
S  S146  1  0.66052103  0.63333122  0.56266401  1  0.284608  0  0.075875  0.123738  0  2.751305  0
S  S147  1  0.58983504  0.61585601  0.68902210  1  0.22069  0  0.066293  0.109579  0  2.773733  0
S  S148  1  0.13379392  0.16016735  0.56271287  1  0.264558  0  0.074213  0.120721  0  2.751021  0
S  S149  1  0.11576427  0.08965798  0.68914648  1  0.221096  0  0.067521  0.111333  0  2.770395  0
S  S150  1  0.97237021  0.80366328  0.40195833  1  0.281015  0  0.07468  0.121553  0  2.748485  0
S  S151  1  0.77395190  0.94658272  0.34770037  1  0.237723  0  0.066723  0.109962  0  2.773756  0
S  S152  1  0.61652573  0.58894473  0.18714993  1  0.270053  0  0.074523  0.120977  0  2.749974  0
S  S153  1  0.63438904  0.66022238  0.06079782  1  0.218945  0  0.066538  0.109492  0  2.769207  0
S  S154  1  0.01402549  0.18194301  0.11188209  1  0.308134  0  0.074472  0.120949  0  2.746493  0
S  S155  1  0.23886371  0.06588560  0.13978575  1  0.257604  0  0.067748  0.11132  0  2.773151  0
S  S156  1  0.27749878  0.44593420  0.84805224  1  0.277062  0  0.074382  0.120892  0  2.749648  0
S  S157  1  0.47591466  0.30308062  0.90233537  1  0.239444  0  0.067441  0.111098  0  2.772801  0
S  S158  1  0.95108175  0.92293222  0.85286937  1  0.283873  0  0.07298  0.119219  0  2.749603  0
S  S159  1  0.79805549  0.82349816  0.89724694  1  0.233528  0  0.067165  0.110785  0  2.771567  0
O  O160  1  0.00048374  0.49889800  0.50025001  1  -1.225771  0  -0.571409  -1.028259  0  2.537277  0
O  O161  1  0.07827832  0.31481812  0.52316586  1  -1.168185  0  -0.325397  -0.55715  0  2.325741  0
O  O162  1  0.03155611  0.53160938  0.58530800  1  -1.152805  0  -0.307129  -0.528646  0  2.343687  0
O  O163  1  0.15538688  0.50686560  0.45008738  1  -1.163977  0  -0.316263  -0.528157  0  2.334012  0
O  O164  1  0.02664811  0.37474414  0.58117388  1  -1.155065  0  -0.313507  -0.525614  0  2.340041  0
O  O165  1  0.15416026  0.39247106  0.44655864  1  -1.175825  0  -0.325126  -0.557026  0  2.328377  0
O  O166  1  0.08463926  0.58668053  0.53016911  1  -1.181792  0  -0.310253  -0.557066  0  2.367459  0
O  O167  1  0.00279693  0.65832763  0.45015663  1  -1.17174  0  -0.325683  -0.554535  0  2.333803  0
O  O168  1  0.88699467  0.49615983  0.44276600  1  -1.175815  0  -0.310801  -0.557147  0  2.371087  0
O  O169  1  0.89034605  0.65206661  0.44714110  1  -1.17351  0  -0.315202  -0.528713  0  2.334196  0
O  O170  1  0.99640694  0.38748917  0.44201309  1  -1.17553  0  -0.309256  -0.534249  0  2.331428  0
O  O171  1  0.87560492  0.52643033  0.58134897  1  -1.159658  0  -0.312762  -0.524658  0  2.337247  0
O  O172  1  0.81473543  0.57659615  0.52343525  1  -1.152249  0  -0.326386  -0.555696  0  2.333441  0
O  O173  1  0.75011382  0.25043520  0.25069967  1  -1.227648  0  -0.570377  -1.027816  0  2.528027  0
O  O174  1  0.59672663  0.35836528  0.30289297  1  -1.156156  0  -0.31866  -0.546317  0  2.332131  0
O  O175  1  0.66470374  0.16468647  0.21908123  1  -1.175765  0  -0.309491  -0.53411  0  2.333494  0
O  O176  1  0.72544977  0.37414784  0.16889998  1  -1.159574  0  -0.315914  -0.529251  0  2.330985  0
O  O177  1  0.59282428  0.24494242  0.30007872  1  -1.171133  0  -0.316997  -0.53974  0  2.310127  0
O  O178  1  0.67251796  0.43472689  0.22660031  1  -1.161132  0  -0.324806  -0.555487  0  2.32871  0
O  O179  1  0.72072009  0.21857322  0.16484012  1  -1.163985  0  -0.309427  -0.556773  0  2.36295  0
O  O180  1  0.87786578  0.22212439  0.16948199  1  -1.173343  0  -0.326197  -0.555396  0  2.331953  0
O  O181  1  0.86173298  0.25491129  0.30946616  1  -1.175061  0  -0.313597  -0.544123  0  2.343936  0
O  O182  1  0.93412018  0.17246347  0.22888656  1  -1.150953  0  -0.314218  -0.528401  0  2.331932  0
O  O183  1  0.75314912  0.36471609  0.30824952  1  -1.176855  0  -0.313828  -0.544757  0  2.337768  0
O  O184  1  0.74487693  0.09360253  0.29998259  1  -1.17722  0  -0.322171  -0.551001  0  2.33374  0
O  O185  1  0.85821613  0.09706489  0.30421591  1  -1.155922  0  -0.313565  -0.534127  0  2.312386  0
O  O186  1  0.24988997  0.74907294  0.74963252  1  -1.219002  0  -0.570629  -1.028427  0  2.533104  0
O  O187  1  0.37550472  0.72504668  0.66856071  1  -1.174369  0  -0.314741  -0.536323  0  2.313337  0
O  O188  1  0.36216763  0.75518679  0.80779667  1  -1.177861  0  -0.308183  -0.531334  0  2.339288  0
O  O189  1  0.17232953  0.93313312  0.72767139  1  -1.185697  0  -0.322591  -0.54927  0  2.334121  0
O  O190  1  0.43374994  0.67387678  0.72731353  1  -1.175706  0  -0.319702  -0.545752  0  2.339116  0
O  O191  1  0.22457380  0.87569323  0.66892808  1  -1.175968  0  -0.314832  -0.536934  0  2.314943  0
O  O192  1  0.25195426  0.86293720  0.80798770  1  -1.17433  0  -0.310194  -0.558496  0  2.360302  0
O  O193  1  0.09537403  0.85741712  0.80361713  1  -1.168715  0  -0.32824  -0.557555  0  2.32972  0
O  O194  1  0.16597634  0.66301134  0.71818625  1  -1.157272  0  -0.311879  -0.542664  0  2.340072  0
O  O195  1  0.09452451  0.74313423  0.79949357  1  -1.162992  0  -0.312806  -0.526491  0  2.330116  0
O  O196  1  0.21903888  0.71943052  0.66351202  1  -1.167951  0  -0.315657  -0.54702  0  2.341924  0
O  O197  1  0.35955818  0.59750225  0.80328500  1  -1.161666  0  -0.315427  -0.527961  0  2.335313  0
O  O198  1  0.24709282  0.59145217  0.79988127  1  -1.172574  0  -0.323757  -0.553152  0  2.332689  0
O  O199  1  0.49990567  0.00019037  0.99996526  1  -1.224753  0  -0.569927  -1.028128  0  2.522143  0
O  O200  1  0.50512164  0.15604593  0.94986838  1  -1.174949  0  -0.320499  -0.547512  0  2.336473  0
O  O201  1  0.38622779  0.99663390  0.94140749  1  -1.171976  0  -0.314015  -0.54611  0  2.339425  0
O  O202  1  0.65266072  0.89201080  0.94670727  1  -1.159531  0  -0.320143  -0.547336  0  2.333246  0
O  O203  1  0.39089615  0.15348061  0.94675316  1  -1.157479  0  -0.316041  -0.537615  0  2.3122  0
O  O204  1  0.65678968  0.00521071  0.94979032  1  -1.172812  0  -0.315341  -0.536795  0  2.311359  0
O  O205  1  0.49537261  0.88744901  0.94131621  1  -1.17406  0  -0.313612  -0.544257  0  2.336999  0
O  O206  1  0.57702628  0.81653079  0.02238301  1  -1.185224  0  -0.320136  -0.546469  0  2.334864  0
O  O207  1  0.53185840  0.03154644  0.08565505  1  -1.169068  0  -0.313653  -0.545352  0  2.336504  0
O  O208  1  0.52615016  0.87432297  0.08108063  1  -1.173354  0  -0.315721  -0.53782  0  2.310185  0
O  O209  1  0.58640707  0.08609651  0.03082413  1  -1.175587  0  -0.313486  -0.544552  0  2.338723  0
O  O210  1  0.31561236  0.07798366  0.02233765  1  -1.141931  0  -0.31556  -0.53717  0  2.314565  0
O  O211  1  0.37482544  0.02581311  0.08073563  1  -1.177737  0  -0.320404  -0.548262  0  2.334734  0
O  O212  1  0.78241776  0.51797515  0.40000483  1  -1.156727  0  -0.356863  -0.44579  0  2.241731  0
O  O213  1  0.15939198  0.65923256  0.54070182  1  -1.156136  0  -0.356394  -0.444099  0  2.241093  0
O  O214  1  0.70886436  0.20922790  0.09108525  1  -1.158312  0  -0.356829  -0.445468  0  2.240858  0
O  O215  1  0.23172552  0.96816720  0.84978025  1  -1.153348  0  -0.357365  -0.446095  0  2.241049  0
O  O216  1  0.28506813  0.52673131  0.41033341  1  -1.087199  0  -0.331062  -0.39754  0  2.271888  0
O  O217  1  0.78095257  0.53977367  0.65621323  1  -1.114789  0  -0.331907  -0.39672  0  2.272662  0
O  O218  1  0.04006337  0.28048018  0.65587970  1  -1.094951  0  -0.331141  -0.396321  0  2.272092  0
O  O219  1  0.78528019  0.77702903  0.40224326  1  -1.098079  0  -0.331434  -0.397176  0  2.272874  0
O  O220  1  0.71038493  0.46898491  0.09388454  1  -1.108848  0  -0.331624  -0.396945  0  2.273235  0
O  O221  1  0.09399239  0.10159861  0.21886844  1  -1.07241  0  -0.331847  -0.397551  0  2.271379  0
O  O222  1  0.46466207  0.47249468  0.84786729  1  -1.084308  0  -0.332341  -0.398656  0  2.272617  0
O  O223  1  0.96467176  0.72296583  0.83975463  1  -1.071043  0  -0.331017  -0.396699  0  2.273636  0
