# generated using pymatgen
data_NaCu2H19(CO)12
_symmetry_space_group_name_H-M   'P 1'
_cell_length_a   8.05250770
_cell_length_b   11.57558350
_cell_length_c   11.57545818
_cell_angle_alpha   101.83242878
_cell_angle_beta   104.95160428
_cell_angle_gamma   104.95202310
_symmetry_Int_Tables_number   1
_chemical_formula_structural   NaCu2H19(CO)12
_chemical_formula_sum   'Na2 Cu4 H38 C24 O24'
_cell_volume   963.56967272
_cell_formula_units_Z   2
loop_
 _symmetry_equiv_pos_site_id
 _symmetry_equiv_pos_as_xyz
  1  'x, y, z'
loop_
 _atom_site_type_symbol
 _atom_site_label
 _atom_site_symmetry_multiplicity
 _atom_site_fract_x
 _atom_site_fract_y
 _atom_site_fract_z
 _atom_site_occupancy
 _atom_site_hle17_ddec_charge
 _atom_site_hle17_ddec_spin_density
 _atom_site_hle17_ddec_sum_bond_order
 _atom_site_hle17_magmom
 _atom_site_hse06_10hf_ddec_charge
 _atom_site_hse06_10hf_ddec_spin_density
 _atom_site_hse06_10hf_ddec_sum_bond_order
 _atom_site_hse06_10hf_magmom
 _atom_site_hse06_ddec_charge
 _atom_site_hse06_ddec_spin_density
 _atom_site_hse06_ddec_sum_bond_order
 _atom_site_hse06_magmom
 _atom_site_pbe_cm5_charge
 _atom_site_pbe_ddec_charge
 _atom_site_pbe_ddec_spin_density
 _atom_site_pbe_ddec_sum_bond_order
 _atom_site_pbe_magmom
Na  Na0  1  0.25000143  0.60507149  0.39492951  1  0.910818  -0.000177  0.377664  0.0  0.867084  -0.000159  0.530006  0.0  0.87951  -6.1e-05  0.507336  0.0  0.694637  0.857893  -0.000237  0.54637  0.0
Na  Na1  1  0.74999665  0.39493105  0.60507006  1  0.910823  0.000177  0.377683  0.0  0.867093  0.000159  0.530002  0.0  0.879554  6.2e-05  0.507341  0.0  0.694675  0.857916  0.000237  0.546364  0.0
Cu  Cu2  1  0.95560327  0.48672145  0.09562880  1  0.889787  -0.671525  1.855583  -0.483  0.885448  -0.797414  2.259548  -0.63  0.985809  -0.884647  2.177569  -0.728  0.678896  0.819347  -0.702885  2.32066  -0.544
Cu  Cu3  1  0.54439674  0.90436678  0.51328150  1  0.88966  -0.671536  1.855548  -0.483  0.885366  -0.79743  2.259506  -0.63  0.985516  -0.884673  2.177859  -0.728  0.678853  0.819244  -0.702927  2.320626  -0.544
Cu  Cu4  1  0.04439900  0.51327353  0.90435361  1  0.889762  0.671597  1.855434  0.483  0.885437  0.797467  2.259376  0.63  0.985876  0.884719  2.177372  0.728  0.67884  0.81931  0.702961  2.32048  0.544
Cu  Cu5  1  0.45560440  0.09563953  0.48672629  1  0.889727  0.671553  1.855494  0.483  0.885359  0.797423  2.259431  0.63  0.986553  0.884662  2.177208  0.728  0.678847  0.819256  0.702914  2.320525  0.544
H  H6  1  0.60563770  0.23716191  0.26971663  1  0.151197  2.3e-05  0.958323  0.0  0.167107  2.6e-05  1.019452  0.0  0.171273  -2e-06  1.017176  0.0  0.098726  0.164183  5.2e-05  1.021058  0.0
H  H7  1  0.89435692  0.73028005  0.76284403  1  0.151141  2e-05  0.958332  0.0  0.167098  2.6e-05  1.019416  0.0  0.171242  -2e-06  1.01718  0.0  0.09874  0.164176  5.2e-05  1.021023  0.0
H  H8  1  0.39436422  0.76284066  0.73028796  1  0.151108  -2.5e-05  0.958336  0.0  0.167085  -2.6e-05  1.019395  0.0  0.171238  2e-06  1.017146  0.0  0.09874  0.16416  -5.2e-05  1.021001  0.0
H  H9  1  0.10564243  0.26972252  0.23716096  1  0.151207  -1.8e-05  0.958322  0.0  0.167137  -2.6e-05  1.019433  0.0  0.171294  2e-06  1.017177  0.0  0.098738  0.164209  -5.2e-05  1.021037  0.0
H  H10  1  0.70520328  0.25584334  0.14884966  1  0.143328  2.8e-05  0.95157  0.0  0.162877  9e-06  1.011896  0.0  0.166373  2.4e-05  1.010085  0.0  0.100627  0.160427  -9e-06  1.01317  0.0
H  H11  1  0.79479657  0.85115249  0.74416443  1  0.143318  2.9e-05  0.951636  0.0  0.162876  9e-06  1.011965  0.0  0.166378  2.4e-05  1.010145  0.0  0.100632  0.160426  -9e-06  1.013241  0.0
H  H12  1  0.29480036  0.74416017  0.85115803  1  0.143357  -2.9e-05  0.951568  0.0  0.162927  -9e-06  1.011882  0.0  0.166422  -2.4e-05  1.010073  0.0  0.100667  0.160476  8e-06  1.013157  0.0
H  H13  1  0.20519893  0.14885007  0.25583813  1  0.143301  -3e-05  0.951562  0.0  0.162874  -9e-06  1.011876  0.0  0.166366  -2.4e-05  1.010069  0.0  0.100637  0.160424  8e-06  1.01315  0.0
H  H14  1  0.56623047  0.34434025  0.18212147  1  0.146289  -3e-06  0.93038  0.0  0.169478  -1.2e-05  0.983724  0.0  0.17248  -1e-06  0.982689  0.0  0.105794  0.167345  -2.4e-05  0.98452  0.0
H  H15  1  0.93378012  0.81788293  0.65566894  1  0.146251  -4e-06  0.930396  0.0  0.16943  -1.2e-05  0.983768  0.0  0.172433  -0.0  0.98273  0.0  0.105757  0.167298  -2.4e-05  0.984563  0.0
H  H16  1  0.43377704  0.65566325  0.81788606  1  0.146228  9e-06  0.930352  0.0  0.169422  1.2e-05  0.983709  0.0  0.172426  1e-06  0.982673  0.0  0.105778  0.16729  2.4e-05  0.984505  0.0
H  H17  1  0.06622058  0.18212243  0.34433599  1  0.146221  6e-06  0.930421  0.0  0.16939  1.2e-05  0.983809  0.0  0.172405  0.0  0.982753  0.0  0.105747  0.167258  2.4e-05  0.984605  0.0
H  H18  1  0.14655614  0.14623958  0.93688656  1  0.136672  -0.000527  0.929474  0.0  0.156641  -0.000428  0.985884  0.0  0.158433  -0.000295  0.985836  0.0  0.103945  0.155305  -0.000503  0.985861  0.0
H  H19  1  0.35343953  0.06310907  0.85376051  1  0.136678  -0.000527  0.929414  0.0  0.156658  -0.000428  0.985808  0.0  0.158458  -0.000295  0.98574  0.0  0.103966  0.155324  -0.000503  0.985788  0.0
H  H20  1  0.85344206  0.85374705  0.06310467  1  0.136618  0.000527  0.929413  0.0  0.156597  0.000427  0.985829  0.0  0.15839  0.000295  0.985783  0.0  0.103919  0.15526  0.000502  0.985809  0.0
H  H21  1  0.64656014  0.93688884  0.14624533  1  0.136692  0.000529  0.929426  0.0  0.156649  0.000428  0.985847  0.0  0.15845  0.000295  0.985782  0.0  0.103952  0.15531  0.000503  0.985827  0.0
H  H22  1  0.94827287  0.08990537  0.97856221  1  0.133197  0.001226  0.943735  0.001  0.152182  0.000889  1.001187  0.001  0.153687  0.000627  1.001409  0.001  0.099212  0.150911  0.001018  1.001024  0.001
H  H23  1  0.55172447  0.02143889  0.91010375  1  0.13319  0.001225  0.943685  0.001  0.152168  0.000889  1.00115  0.001  0.153675  0.000627  1.001363  0.001  0.099194  0.150899  0.001018  1.000987  0.001
H  H24  1  0.05172485  0.91009901  0.02143161  1  0.13315  -0.001225  0.943713  -0.001  0.152114  -0.00089  1.001208  -0.001  0.153616  -0.000627  1.001434  -0.001  0.099186  0.150846  -0.00102  1.001045  -0.001
H  H25  1  0.44827605  0.97855806  0.08989947  1  0.133202  -0.001224  0.943758  -0.001  0.152188  -0.00089  1.001206  -0.001  0.153704  -0.000627  1.001401  -0.001  0.099212  0.150917  -0.001019  1.001045  -0.001
H  H26  1  0.92891099  0.08971298  0.82024908  1  0.150519  -0.000761  0.946236  -0.001  0.167604  -0.000533  1.005439  -0.001  0.169961  -0.000337  1.00522  0.0  0.103757  0.165816  -0.000641  1.005659  -0.001
H  H27  1  0.57108208  0.17974876  0.91028844  1  0.150505  -0.000759  0.946181  -0.001  0.167571  -0.000533  1.005411  -0.001  0.16993  -0.000337  1.005181  0.0  0.103744  0.16578  -0.000641  1.005627  -0.001
H  H28  1  0.07108799  0.91026990  0.17973981  1  0.150608  0.000758  0.946236  0.001  0.167733  0.000533  1.005393  0.001  0.170115  0.000337  1.005127  0.0  0.103791  0.16592  0.000641  1.005629  0.001
H  H29  1  0.42891546  0.82025009  0.08972066  1  0.150529  0.000755  0.946207  0.001  0.167629  0.000533  1.005394  0.001  0.169989  0.000337  1.005167  0.0  0.103771  0.165838  0.000641  1.005613  0.001
H  H30  1  0.59026343  0.70101684  0.24345671  1  0.157158  -0.000212  0.958271  0.0  0.174623  -0.000172  1.019419  0.0  0.177825  -0.000101  1.018481  0.0  0.106503  0.172277  -0.000228  1.020102  0.0
H  H31  1  0.90974856  0.75654609  0.29898878  1  0.157119  -0.000213  0.958153  0.0  0.174586  -0.000172  1.01933  0.0  0.177789  -0.000101  1.018384  0.0  0.10651  0.172238  -0.000228  1.020008  0.0
H  H32  1  0.40972860  0.29898386  0.75654657  1  0.157243  0.000215  0.958214  0.0  0.174683  0.000172  1.019383  0.0  0.177905  0.000101  1.018405  0.0  0.106555  0.172339  0.000228  1.020066  0.0
H  H33  1  0.09026148  0.24345459  0.70101432  1  0.157181  0.000211  0.958113  0.0  0.174622  0.000172  1.019317  0.0  0.177826  0.000101  1.018366  0.0  0.106522  0.172279  0.000228  1.020002  0.0
H  H34  1  0.55300951  0.55420410  0.27289595  1  0.143234  0.00131  0.939781  0.002  0.158851  0.000929  0.999892  0.001  0.160086  0.000632  1.000633  0.001  0.103779  0.157638  0.001084  0.999571  0.001
H  H35  1  0.94698407  0.72710042  0.44580191  1  0.14316  0.001309  0.939814  0.002  0.158816  0.000929  0.999883  0.001  0.160061  0.000631  1.000603  0.001  0.103742  0.157607  0.001085  0.999561  0.001
H  H36  1  0.44697352  0.44579659  0.72710483  1  0.143258  -0.00131  0.939747  -0.002  0.15889  -0.000929  0.999845  -0.001  0.160134  -0.000632  1.000565  -0.001  0.103792  0.157686  -0.001085  0.999524  -0.001
H  H37  1  0.05302115  0.27289559  0.55420111  1  0.143258  -0.001305  0.939757  -0.002  0.158902  -0.000929  0.99985  -0.001  0.160159  -0.000631  1.000542  -0.001  0.103789  0.157693  -0.001084  0.999529  -0.001
H  H38  1  0.61718105  0.57528741  0.13820289  1  0.155926  -0.001164  0.95441  -0.002  0.169121  -0.000753  1.018495  -0.001  0.171965  -0.000494  1.017514  -0.001  0.099135  0.166917  -0.000898  1.019283  -0.001
H  H39  1  0.88282306  0.86179559  0.42471589  1  0.155917  -0.001163  0.954376  -0.002  0.169123  -0.000752  1.018452  -0.001  0.17199  -0.000494  1.017425  -0.001  0.099135  0.166917  -0.000897  1.019242  -0.001
H  H40  1  0.38282903  0.42471610  0.86180683  1  0.155875  0.001159  0.954457  0.002  0.169053  0.000752  1.018567  0.001  0.171894  0.000494  1.017592  0.001  0.099128  0.16685  0.000896  1.019355  0.001
H  H41  1  0.11717356  0.13819855  0.57528346  1  0.155907  0.00116  0.954427  0.002  0.169088  0.000752  1.018531  0.001  0.171943  0.000494  1.017531  0.001  0.099146  0.166885  0.000896  1.019318  0.001
H  H42  1  0.99999841  0.50000242  0.50000117  1  0.379787  0.0  0.936102  0.0  0.345797  0.0  1.020359  0.0  0.360641  0.0  1.003213  0.0  0.29019  0.335519  0.0  1.030354  0.0
H  H43  1  0.49999710  0.50000129  0.50000289  1  0.379809  1e-06  0.93608  0.0  0.345818  -0.0  1.020339  0.0  0.360673  -1e-06  1.003165  0.0  0.290188  0.335542  -0.0  1.030333  0.0
C  C44  1  0.83136768  0.40702484  0.31662258  1  0.78238  0.000263  3.763154  0.0  0.751731  0.000262  4.046779  0.0  0.786481  0.000199  4.036951  0.0  0.234362  0.728199  0.000303  4.052537  0.0
C  C45  1  0.66863573  0.68337833  0.59298235  1  0.781996  0.000271  3.763322  0.0  0.751673  0.000261  4.046477  0.0  0.78642  0.0002  4.036651  0.0  0.234326  0.72814  0.000304  4.052245  0.0
C  C46  1  0.16865168  0.59298980  0.68337464  1  0.782093  -0.000267  3.76267  0.0  0.751495  -0.000262  4.046248  0.0  0.786249  -0.0002  4.036425  0.0  0.234223  0.727959  -0.000304  4.052024  0.0
C  C47  1  0.33136060  0.31662331  0.40702277  1  0.782398  -0.000271  3.762879  0.0  0.751678  -0.000262  4.046608  0.0  0.786572  -0.000201  4.036734  0.0  0.234318  0.728148  -0.000304  4.052371  0.0
C  C48  1  0.66634071  0.30327882  0.22476199  1  -0.472868  4.1e-05  3.639315  0.0  -0.549395  4.4e-05  3.861021  0.0  -0.557934  4e-05  3.86111  0.0  -0.244124  -0.543421  5e-05  3.860818  0.0
C  C49  1  0.83366052  0.77524046  0.69672393  1  -0.472592  4.5e-05  3.639496  0.0  -0.549247  4.5e-05  3.861079  0.0  -0.55779  3.7e-05  3.861202  0.0  -0.244051  -0.543266  5.1e-05  3.86088  0.0
C  C50  1  0.33366031  0.69672189  0.77524466  1  -0.472593  -4.3e-05  3.639314  0.0  -0.549234  -4.5e-05  3.861007  0.0  -0.557784  -3.8e-05  3.861125  0.0  -0.244065  -0.543249  -5e-05  3.860811  0.0
C  C51  1  0.16633846  0.22476395  0.30327618  1  -0.472753  -4.6e-05  3.639339  0.0  -0.549266  -4.4e-05  3.861046  0.0  -0.557809  -3.8e-05  3.861138  0.0  -0.244041  -0.54329  -5e-05  3.860841  0.0
C  C52  1  0.99518998  0.27189645  0.94820405  1  0.73375  0.000566  3.811122  0.001  0.707029  0.000435  4.104873  0.0  0.747769  0.000368  4.09773  0.0  0.218064  0.679316  0.00045  4.108878  0.0
C  C53  1  0.50481569  0.05178618  0.72810826  1  0.733632  0.000569  3.811119  0.001  0.706918  0.000436  4.104859  0.0  0.747743  0.00037  4.097792  0.0  0.218089  0.679212  0.000452  4.108865  0.0
C  C54  1  0.00482269  0.72810125  0.05176265  1  0.733579  -0.000572  3.811556  -0.001  0.707057  -0.000438  4.105004  0.0  0.747768  -0.000368  4.097903  0.0  0.218141  0.679355  -0.000454  4.108999  0.0
C  C55  1  0.49518372  0.94821919  0.27189730  1  0.73349  -0.000565  3.811256  -0.001  0.7068  -0.000437  4.104958  0.0  0.747627  -0.000366  4.097904  0.0  0.218005  0.679086  -0.000452  4.108951  0.0
C  C56  1  0.00322631  0.14029278  0.91919604  1  -0.439937  -0.000447  3.634715  -0.001  -0.51377  -0.000412  3.860303  -0.001  -0.522763  -0.000264  3.863985  0.0  -0.236661  -0.506437  -0.000484  3.85726  -0.001
C  C57  1  0.49677063  0.08080037  0.85970964  1  -0.439873  -0.000455  3.63454  -0.001  -0.513714  -0.000416  3.860146  -0.001  -0.522625  -0.000265  3.863758  0.0  -0.236649  -0.506387  -0.00049  3.857105  -0.001
C  C58  1  0.99677459  0.85969944  0.08079248  1  -0.439888  0.000465  3.634861  0.001  -0.513812  0.000419  3.860341  0.001  -0.522798  0.000266  3.864005  0.0  -0.23668  -0.506463  0.000496  3.857314  0.001
C  C59  1  0.50322648  0.91919753  0.14029574  1  -0.439914  0.000459  3.63479  0.001  -0.513758  0.000417  3.860298  0.001  -0.522669  0.000263  3.863901  0.0  -0.236652  -0.506424  0.000491  3.857255  0.001
C  C60  1  0.34189545  0.56579483  0.12337377  1  0.752983  -0.001537  3.789362  -0.002  0.725785  -0.000578  4.082618  -0.001  0.767351  -0.000619  4.073041  -0.001  0.218703  0.697538  -0.000498  4.088132  -0.001
C  C61  1  0.15811245  0.87661728  0.43421528  1  0.753114  -0.001536  3.788977  -0.002  0.725913  -0.000578  4.082237  -0.001  0.767585  -0.00062  4.07272  -0.001  0.218781  0.697662  -0.000498  4.087757  -0.001
C  C62  1  0.65810475  0.43420390  0.87661074  1  0.752951  0.001538  3.789152  0.002  0.725828  0.000577  4.082334  0.001  0.767395  0.000622  4.072751  0.001  0.218729  0.697581  0.000497  4.087856  0.001
C  C63  1  0.84189165  0.12338715  0.56579181  1  0.753012  0.001536  3.789079  0.002  0.725899  0.000578  4.082222  0.001  0.767582  0.000621  4.072665  0.001  0.218761  0.697653  0.000497  4.087745  0.001
C  C64  1  0.53909018  0.59963341  0.19838114  1  -0.46248  0.001012  3.614673  0.001  -0.537371  0.000383  3.844178  0.0  -0.547662  0.000294  3.846965  0.0  -0.243391  -0.528991  0.000334  3.841751  0.0
C  C65  1  0.96091355  0.80161768  0.40037296  1  -0.462388  0.001004  3.614478  0.001  -0.537331  0.000381  3.844003  0.0  -0.547525  0.000294  3.846668  0.0  -0.243358  -0.528943  0.00033  3.841564  0.0
C  C66  1  0.46090488  0.40036821  0.80162029  1  -0.462476  -0.000994  3.614692  -0.001  -0.537357  -0.000377  3.844202  0.0  -0.54765  -0.000293  3.846989  0.0  -0.2434  -0.528968  -0.000324  3.841773  0.0
C  C67  1  0.03909212  0.19837926  0.59962774  1  -0.462495  -0.001007  3.61456  -0.001  -0.537397  -0.000381  3.844064  0.0  -0.547604  -0.000294  3.846725  0.0  -0.243414  -0.52901  -0.000329  3.841637  0.0
O  O68  1  0.93718633  0.48130659  0.28098666  1  -0.671271  0.001265  1.998185  0.001  -0.628092  0.000853  2.249943  0.0  -0.655621  0.000884  2.233756  0.0  -0.369767  -0.609088  0.000798  2.261093  0.0
O  O69  1  0.56281416  0.71901967  0.51868492  1  -0.671214  0.001263  1.998097  0.001  -0.628134  0.000852  2.24969  0.0  -0.65562  0.000885  2.23353  0.0  -0.369753  -0.609098  0.000798  2.260793  0.0
O  O70  1  0.06279890  0.51867732  0.71901895  1  -0.671432  -0.001264  1.997356  -0.001  -0.628236  -0.000852  2.249101  0.0  -0.655783  -0.000887  2.232902  0.0  -0.369807  -0.60919  -0.000798  2.260213  0.0
O  O71  1  0.43718271  0.28098566  0.48131153  1  -0.671328  -0.001263  1.997997  -0.001  -0.628091  -0.000853  2.249755  0.0  -0.656093  -0.000886  2.233893  0.0  -0.369753  -0.60908  -0.000798  2.260905  0.0
O  O72  1  0.85962731  0.41648754  0.43439776  1  -0.646285  0.000181  2.05343  0.0  -0.593923  0.000155  2.278431  0.0  -0.6171  0.00011  2.26234  0.0  -0.370901  -0.57788  0.000196  2.288091  0.0
O  O73  1  0.64037047  0.56560393  0.58352126  1  -0.646187  0.000179  2.053463  0.0  -0.593937  0.000156  2.27833  0.0  -0.617117  0.000111  2.262261  0.0  -0.370905  -0.577896  0.000196  2.288  0.0
O  O74  1  0.14037127  0.58351876  0.56560610  1  -0.646002  -0.000182  2.053642  0.0  -0.593661  -0.000156  2.278625  0.0  -0.616849  -0.00011  2.262566  0.0  -0.370752  -0.577617  -0.000196  2.288292  0.0
O  O75  1  0.35962669  0.43439679  0.41648728  1  -0.646297  -0.00018  2.053397  0.0  -0.593922  -0.000156  2.278445  0.0  -0.617049  -0.000109  2.262287  0.0  -0.370906  -0.577866  -0.000196  2.288076  0.0
O  O76  1  0.95135897  0.30993011  0.04388111  1  -0.59642  -0.077048  2.07199  -0.102  -0.57221  -0.053251  2.341114  -0.077  -0.617149  -0.042353  2.334765  -0.065  -0.310661  -0.542555  -0.056094  2.345692  -0.078
O  O77  1  0.54863938  0.95611719  0.69007798  1  -0.596289  -0.077042  2.072051  -0.102  -0.572098  -0.053248  2.341226  -0.077  -0.616967  -0.04235  2.334941  -0.065  -0.310669  -0.542443  -0.056081  2.345795  -0.078
O  O78  1  0.04862623  0.69006671  0.95609165  1  -0.596255  0.077026  2.072559  0.102  -0.572129  0.053239  2.341629  0.077  -0.617052  0.04234  2.33528  0.065  -0.310662  -0.542489  0.056074  2.346212  0.078
O  O79  1  0.45136266  0.04389099  0.30992949  1  -0.596242  0.077034  2.07214  0.102  -0.572017  0.053246  2.34123  0.077  -0.61741  0.042348  2.335186  0.065  -0.310614  -0.542369  0.056088  2.345799  0.078
O  O80  1  0.03563053  0.33503167  0.87529926  1  -0.591948  0.074398  2.070105  0.098  -0.565013  0.051597  2.336663  0.074  -0.608315  0.041221  2.328847  0.063  -0.307789  -0.536469  0.054289  2.342203  0.075
O  O81  1  0.46438276  0.12469815  0.66496877  1  -0.591986  0.074407  2.070028  0.098  -0.565025  0.051603  2.336516  0.074  -0.608804  0.041227  2.329051  0.063  -0.307821  -0.536471  0.054291  2.342037  0.075
O  O82  1  0.96438146  0.66495676  0.12468275  1  -0.592023  -0.074422  2.069893  -0.098  -0.565129  -0.051609  2.336327  -0.074  -0.608445  -0.041234  2.328575  -0.063  -0.307849  -0.536565  -0.054305  2.341829  -0.075
O  O83  1  0.53561659  0.87530441  0.33503622  1  -0.591897  -0.074414  2.069949  -0.098  -0.564967  -0.051603  2.33646  -0.074  -0.608255  -0.04123  2.328812  -0.063  -0.3078  -0.53641  -0.054301  2.341964  -0.075
O  O84  1  0.30351427  0.56504353  0.00917541  1  -0.585836  0.085676  2.052855  0.112  -0.562354  0.056995  2.323034  0.082  -0.60732  0.044977  2.315447  0.069  -0.309778  -0.532927  0.060218  2.328496  0.083
O  O85  1  0.19649669  0.99082685  0.43497231  1  -0.585852  0.085701  2.052232  0.113  -0.562414  0.057011  2.322449  0.082  -0.607853  0.044992  2.315176  0.069  -0.309861  -0.532984  0.060236  2.327909  0.084
O  O86  1  0.69649298  0.43496741  0.99082665  1  -0.585854  -0.085703  2.05225  -0.113  -0.562421  -0.057012  2.322383  -0.082  -0.607377  -0.044996  2.314792  -0.069  -0.30984  -0.532982  -0.060236  2.327836  -0.084
O  O87  1  0.80350697  0.00917665  0.56503365  1  -0.58584  -0.085707  2.052293  -0.113  -0.562441  -0.057012  2.322477  -0.082  -0.607347  -0.044995  2.31495  -0.069  -0.309878  -0.533008  -0.060234  2.327939  -0.084
O  O88  1  0.22571979  0.54233460  0.18010078  1  -0.654627  -0.068303  2.088645  -0.09  -0.632767  -0.048148  2.370109  -0.069  -0.675582  -0.038496  2.35892  -0.059  -0.370833  -0.60417  -0.050922  2.377789  -0.071
O  O89  1  0.27427756  0.81989385  0.45767410  1  -0.654671  -0.068284  2.088915  -0.09  -0.632787  -0.04814  2.370363  -0.069  -0.675601  -0.038489  2.359317  -0.059  -0.370831  -0.604197  -0.05091  2.378052  -0.071
O  O90  1  0.77426975  0.45764734  0.81988621  1  -0.65465  0.068287  2.088978  0.09  -0.632804  0.048139  2.370405  0.069  -0.675618  0.038483  2.359206  0.059  -0.370886  -0.604217  0.050904  2.378102  0.071
O  O91  1  0.72572568  0.18011155  0.54233907  1  -0.654625  0.068282  2.088876  0.09  -0.632774  0.04814  2.370278  0.069  -0.676053  0.038488  2.359383  0.059  -0.370793  -0.604185  0.050906  2.377971  0.071
