# generated using pymatgen
data_AgH14C21SN2(OF)3
_symmetry_space_group_name_H-M   'P 1'
_cell_length_a   9.06456157
_cell_length_b   14.04986142
_cell_length_c   16.87279331
_cell_angle_alpha   90.00015270
_cell_angle_beta   96.07426551
_cell_angle_gamma   90.00017359
_symmetry_Int_Tables_number   1
_chemical_formula_structural   AgH14C21SN2(OF)3
_chemical_formula_sum   'Ag4 H56 C84 S4 N8 O12 F12'
_cell_volume   2136.78410602
_cell_formula_units_Z   4
loop_
 _symmetry_equiv_pos_site_id
 _symmetry_equiv_pos_as_xyz
  1  'x, y, z'
loop_
 _atom_site_type_symbol
 _atom_site_label
 _atom_site_symmetry_multiplicity
 _atom_site_fract_x
 _atom_site_fract_y
 _atom_site_fract_z
 _atom_site_occupancy
 _atom_site_pbe_bader_charge
 _atom_site_pbe_bader_spin_density
 _atom_site_pbe_cm5_charge
 _atom_site_pbe_ddec_charge
 _atom_site_pbe_ddec_spin_density
 _atom_site_pbe_ddec_sum_bond_order
 _atom_site_pbe_magmom
Ag  Ag0  1  0.21182843  0.64079772  0.71657464  1  0.583467  0  0.504626  0.379499  0  1.885709  0
Ag  Ag1  1  0.28816511  0.14079867  0.78342819  1  0.583464  0  0.504631  0.379519  0  1.885757  0
Ag  Ag2  1  0.78817567  0.35920335  0.28342452  1  0.583517  0  0.504653  0.379562  0  1.885793  0
Ag  Ag3  1  0.71182795  0.85920241  0.21657453  1  0.58348  0  0.504617  0.3795  0  1.885737  0
H  H4  1  0.99171775  0.56616443  0.79262924  1  0.090129  0  0.098496  0.098125  0  1.075785  0
H  H5  1  0.50827677  0.06616457  0.70737000  1  0.090128  0  0.098543  0.098261  0  1.075782  0
H  H6  1  0.00828413  0.43383950  0.20736980  1  0.090197  0  0.098514  0.098207  0  1.075712  0
H  H7  1  0.49173070  0.93383579  0.29263230  1  0.090248  0  0.098576  0.098257  0  1.075801  0
H  H8  1  0.80813240  0.47932223  0.86516430  1  0.086001  0  0.110414  0.108209  0  0.99142  0
H  H9  1  0.69185866  0.97932382  0.63483329  1  0.085713  0  0.110377  0.108134  0  0.991532  0
H  H10  1  0.19186615  0.52068383  0.13483456  1  0.085679  0  0.110432  0.108225  0  0.991428  0
H  H11  1  0.30814547  0.02067441  0.36516824  1  0.085694  0  0.110376  0.108128  0  0.99158  0
H  H12  1  0.83355493  0.30513125  0.88936572  1  0.129973  0  0.109617  0.122735  0  1.019019  0
H  H13  1  0.66643635  0.80513129  0.61063091  1  0.130011  0  0.109616  0.122783  0  1.018884  0
H  H14  1  0.16644032  0.69487481  0.11063416  1  0.129688  0  0.109648  0.122818  0  1.018968  0
H  H15  1  0.33355997  0.19486694  0.38936606  1  0.129997  0  0.10965  0.122822  0  1.019029  0
H  H16  1  0.04477632  0.21614944  0.84061472  1  0.088473  0  0.098007  0.094465  0  1.08264  0
H  H17  1  0.45521202  0.71615235  0.65938443  1  0.088507  0  0.098035  0.094516  0  1.082531  0
H  H18  1  0.95521672  0.78385377  0.15938622  1  0.088415  0  0.098019  0.094495  0  1.082545  0
H  H19  1  0.54478212  0.28385086  0.34061597  1  0.088485  0  0.098014  0.094467  0  1.082616  0
H  H20  1  0.63761580  0.45164470  0.73254487  1  0.080615  0  0.097516  0.097356  0  1.035223  0
H  H21  1  0.86238845  0.95164778  0.76745395  1  0.080849  0  0.097513  0.097349  0  1.035256  0
H  H22  1  0.36238278  0.54834997  0.26745577  1  0.080838  0  0.097512  0.097369  0  1.035203  0
H  H23  1  0.13761454  0.04835330  0.23254455  1  0.080643  0  0.09751  0.097368  0  1.035216  0
H  H24  1  0.79868052  0.54933182  0.65337988  1  0.12906  0  0.099677  0.108588  0  1.017108  0
H  H25  1  0.70132277  0.04933280  0.84661860  1  0.129055  0  0.099683  0.108586  0  1.017156  0
H  H26  1  0.20132363  0.45066428  0.34662284  1  0.129064  0  0.099684  0.108603  0  1.017108  0
H  H27  1  0.29867800  0.95066828  0.15337979  1  0.129067  0  0.099677  0.108608  0  1.017176  0
H  H28  1  0.68902926  0.64090182  0.53736399  1  0.088966  0  0.096919  0.095346  0  1.049815  0
H  H29  1  0.81097006  0.14090197  0.96263329  1  0.088944  0  0.096903  0.095308  0  1.049893  0
H  H30  1  0.31097487  0.35909499  0.46263635  1  0.088865  0  0.096925  0.095305  0  1.049819  0
H  H31  1  0.18903182  0.85909769  0.03736515  1  0.088937  0  0.096903  0.095317  0  1.049838  0
H  H32  1  0.41494159  0.63633560  0.49809104  1  0.088579  0  0.098991  0.101825  0  1.025566  0
H  H33  1  0.08505291  0.13633595  0.00191348  1  0.088515  0  0.098979  0.101818  0  1.025536  0
H  H34  1  0.58506254  0.36366191  0.50190989  1  0.088607  0  0.098975  0.101782  0  1.025595  0
H  H35  1  0.91494566  0.86366370  0.99808658  1  0.088533  0  0.098982  0.101848  0  1.025473  0
H  H36  1  0.25331485  0.54220653  0.57750659  1  0.092715  0  0.096007  0.110159  0  1.04263  0
H  H37  1  0.24668824  0.04220500  0.92250186  1  0.092669  0  0.095991  0.110151  0  1.042542  0
H  H38  1  0.74669039  0.45778885  0.42249441  1  0.092662  0  0.096005  0.110188  0  1.042572  0
H  H39  1  0.75331367  0.95779608  0.07749896  1  0.092716  0  0.096012  0.110147  0  1.042571  0
H  H40  1  0.61469148  0.28214275  0.79548528  1  0.114441  0  0.101722  0.107429  0  1.026899  0
H  H41  1  0.88530193  0.78214852  0.70451438  1  0.114407  0  0.101702  0.107351  0  1.027005  0
H  H42  1  0.38530041  0.71785263  0.20451264  1  0.114357  0  0.10173  0.107369  0  1.027  0
H  H43  1  0.11470881  0.21786039  0.29548395  1  0.114434  0  0.101699  0.10733  0  1.026988  0
H  H44  1  0.81218876  0.19351066  0.73552520  1  0.08297  0  0.096417  0.094799  0  1.032148  0
H  H45  1  0.68780643  0.69351480  0.76447553  1  0.082944  0  0.096431  0.094816  0  1.032092  0
H  H46  1  0.18780313  0.80648757  0.26447272  1  0.082893  0  0.096406  0.094815  0  1.032065  0
H  H47  1  0.31220316  0.30649054  0.23551917  1  0.08319  0  0.096453  0.094807  0  1.032139  0
H  H48  1  0.77369941  0.14334264  0.59283701  1  0.104754  0  0.103912  0.107578  0  0.995515  0
H  H49  1  0.72630108  0.64334518  0.90716449  1  0.104784  0  0.103949  0.107653  0  0.995477  0
H  H50  1  0.22629584  0.85665132  0.40716286  1  0.104603  0  0.103948  0.107675  0  0.995435  0
H  H51  1  0.27370073  0.35665589  0.09282921  1  0.104609  0  0.104021  0.107777  0  0.995374  0
H  H52  1  0.53248316  0.17414471  0.51338718  1  0.091695  0  0.10379  0.105354  0  1.006572  0
H  H53  1  0.96751745  0.67415083  0.98661143  1  0.091767  0  0.103781  0.105299  0  1.006651  0
H  H54  1  0.46751098  0.82584356  0.48661264  1  0.091967  0  0.103788  0.105322  0  1.006572  0
H  H55  1  0.03247776  0.32585167  0.01338607  1  0.091698  0  0.103788  0.105328  0  1.006579  0
H  H56  1  0.33407592  0.26260171  0.57270278  1  0.098509  0  0.099342  0.109519  0  1.034505  0
H  H57  1  0.16592262  0.76260705  0.92729584  1  0.09852  0  0.099373  0.10953  0  1.034553  0
H  H58  1  0.66591486  0.73738656  0.42729508  1  0.098178  0  0.099369  0.109572  0  1.034558  0
H  H59  1  0.83407709  0.23739474  0.07270664  1  0.098505  0  0.099369  0.109532  0  1.034541  0
C  C60  1  0.33388874  0.43843213  0.70831310  1  0.544197  0  0.140867  0.153493  0  3.909475  0
C  C61  1  0.16611186  0.93843419  0.79168898  1  0.54414  0  0.140863  0.153512  0  3.909619  0
C  C62  1  0.66611091  0.56156539  0.29168464  1  0.544213  0  0.140821  0.153398  0  3.90963  0
C  C63  1  0.83389226  0.06156974  0.20831136  1  0.54419  0  0.140889  0.153506  0  3.909527  0
C  C64  1  0.12212504  0.44027404  0.77581559  1  0.484784  0  0.116569  0.173108  0  3.97442  0
C  C65  1  0.37787223  0.94027559  0.72418573  1  0.484824  0  0.116538  0.172979  0  3.974651  0
C  C66  1  0.87787686  0.55972703  0.22418464  1  0.484876  0  0.11655  0.173083  0  3.974516  0
C  C67  1  0.62212970  0.05972691  0.27581687  1  0.484837  0  0.116545  0.17315  0  3.974699  0
C  C68  1  0.00214483  0.48974706  0.80360241  1  -0.037603  0  -0.083116  -0.150841  0  3.947036  0
C  C69  1  0.49784934  0.98974946  0.69639648  1  -0.037665  0  -0.083241  -0.151149  0  3.947365  0
C  C70  1  0.99785707  0.51025402  0.19639722  1  -0.037491  0  -0.083144  -0.150988  0  3.947086  0
C  C71  1  0.50215368  0.01025091  0.30360440  1  -0.037752  0  -0.083212  -0.151067  0  3.947268  0
C  C72  1  0.90054731  0.44104005  0.84357848  1  -0.025816  0  -0.070673  -0.044079  0  3.952764  0
C  C73  1  0.59944468  0.94104154  0.65641968  1  -0.025458  0  -0.070578  -0.043806  0  3.952847  0
C  C74  1  0.09945236  0.55896387  0.15642045  1  -0.025648  0  -0.070693  -0.044067  0  3.952836  0
C  C75  1  0.40055167  0.05895740  0.34358026  1  -0.025448  0  -0.070614  -0.043863  0  3.952771  0
C  C76  1  0.91520975  0.34190886  0.85737515  1  -0.048446  0  -0.072819  -0.057021  0  3.939381  0
C  C77  1  0.58478061  0.84190956  0.64262210  1  -0.047953  0  -0.072775  -0.057068  0  3.939287  0
C  C78  1  0.08478771  0.65809577  0.14262425  1  -0.048084  0  -0.072809  -0.057036  0  3.939389  0
C  C79  1  0.41521241  0.15809080  0.35737706  1  -0.047923  0  -0.072822  -0.057133  0  3.939334  0
C  C80  1  0.03124462  0.29237935  0.83028472  1  0.016041  0  -0.079876  -0.140341  0  3.950467  0
C  C81  1  0.46874633  0.79238231  0.66971474  1  0.015644  0  -0.079995  -0.140479  0  3.950412  0
C  C82  1  0.96875066  0.70762244  0.16971752  1  0.016027  0  -0.079938  -0.140456  0  3.950433  0
C  C83  1  0.53125002  0.20761876  0.33028519  1  0.015591  0  -0.079937  -0.140347  0  3.950469  0
C  C84  1  0.13623666  0.34024462  0.78904668  1  0.435668  0  0.115099  0.173374  0  3.979629  0
C  C85  1  0.36375787  0.84024681  0.71095368  1  0.435637  0  0.115145  0.173501  0  3.979579  0
C  C86  1  0.86376081  0.65975717  0.21095391  1  0.435663  0  0.115092  0.173432  0  3.979756  0
C  C87  1  0.63624407  0.15975569  0.28904952  1  0.435653  0  0.115131  0.173375  0  3.979885  0
C  C88  1  0.34681284  0.33770377  0.72095138  1  0.59143  0  0.146026  0.158259  0  3.897816  0
C  C89  1  0.15318723  0.83770647  0.77904927  1  0.591445  0  0.146031  0.158157  0  3.897905  0
C  C90  1  0.65318128  0.66229161  0.27904666  1  0.591486  0  0.14602  0.15824  0  3.897968  0
C  C91  1  0.84682024  0.16229674  0.22095244  1  0.591366  0  0.146062  0.158299  0  3.898002  0
C  C92  1  0.43468001  0.49165617  0.66111459  1  -0.071933  0  -0.021213  0.018125  0  4.037831  0
C  C93  1  0.06532202  0.99165675  0.83889065  1  -0.072523  0  -0.021306  0.018049  0  4.038064  0
C  C94  1  0.56532189  0.50833921  0.33888564  1  -0.071987  0  -0.021088  0.018227  0  4.037691  0
C  C95  1  0.93468102  0.00834575  0.16111142  1  -0.072535  0  -0.021273  0.018059  0  4.037796  0
C  C96  1  0.58890130  0.49244711  0.68146369  1  -0.089069  0  -0.089114  -0.1195  0  3.967687  0
C  C97  1  0.91110208  0.99244831  0.81853755  1  -0.08921  0  -0.089154  -0.119566  0  3.967771  0
C  C98  1  0.41110061  0.50754827  0.31853713  1  -0.08921  0  -0.08926  -0.119714  0  3.967666  0
C  C99  1  0.08890204  0.00755135  0.18146279  1  -0.089098  0  -0.089107  -0.119472  0  3.967732  0
C  C100  1  0.67916882  0.54698930  0.63725394  1  0.01249  0  -0.087732  -0.068037  0  3.973201  0
C  C101  1  0.82083116  0.04698986  0.86274613  1  0.012487  0  -0.087721  -0.068007  0  3.973189  0
C  C102  1  0.32083198  0.45300822  0.36274682  1  0.012323  0  -0.087688  -0.067922  0  3.973102  0
C  C103  1  0.17916964  0.95301051  0.13725463  1  0.012556  0  -0.087755  -0.068111  0  3.973312  0
C  C104  1  0.61691780  0.59893271  0.57137121  1  -0.003387  0  -0.083876  -0.063463  0  3.943747  0
C  C105  1  0.88308134  0.09893360  0.92862953  1  -0.003427  0  -0.083878  -0.063501  0  3.943773  0
C  C106  1  0.38308522  0.40106410  0.42863027  1  -0.003125  0  -0.083922  -0.063466  0  3.943795  0
C  C107  1  0.11692279  0.90106748  0.07137141  1  -0.003596  0  -0.083874  -0.063499  0  3.943754  0
C  C108  1  0.46398858  0.59715599  0.54999057  1  -0.097723  0  -0.087296  -0.062351  0  3.981834  0
C  C109  1  0.03601030  0.09715627  0.95001362  1  -0.097562  0  -0.087251  -0.062193  0  3.981526  0
C  C110  1  0.53601444  0.40284224  0.45001090  1  -0.097975  0  -0.087232  -0.062217  0  3.981582  0
C  C111  1  0.96399272  0.90284410  0.04998726  1  -0.097469  0  -0.087264  -0.062251  0  3.981509  0
C  C112  1  0.37245502  0.54476329  0.59510581  1  -0.060075  0  -0.099381  -0.146672  0  3.991154  0
C  C113  1  0.12754249  0.04476217  0.90489879  1  -0.059603  0  -0.099265  -0.146611  0  3.991064  0
C  C114  1  0.62754689  0.45523494  0.40489442  1  -0.059903  0  -0.099388  -0.146752  0  3.991058  0
C  C115  1  0.87245831  0.95523962  0.09510197  1  -0.05958  0  -0.099308  -0.14659  0  3.990951  0
C  C116  1  0.46374177  0.28077089  0.68719685  1  -0.023033  0  -0.022949  0.00836  0  4.058713  0
C  C117  1  0.03625467  0.78077418  0.81280348  1  -0.023122  0  -0.022939  0.008467  0  4.058637  0
C  C118  1  0.53625013  0.71922307  0.31280166  1  -0.023173  0  -0.022894  0.008448  0  4.058585  0
C  C119  1  0.96374948  0.21922975  0.18719924  1  -0.023146  0  -0.022967  0.008334  0  4.058789  0
C  C120  1  0.59742008  0.25932106  0.73341878  1  -0.073582  0  -0.092561  -0.132727  0  3.983187  0
C  C121  1  0.90257655  0.75932492  0.76658159  1  -0.073394  0  -0.09253  -0.13264  0  3.983023  0
C  C122  1  0.40257403  0.74067575  0.26657926  1  -0.073475  0  -0.092581  -0.132628  0  3.983116  0
C  C123  1  0.09742978  0.24068470  0.23341828  1  -0.073027  0  -0.092557  -0.132618  0  3.983465  0
C  C124  1  0.70807235  0.20912275  0.69960061  1  -0.101148  0  -0.091665  -0.074797  0  4.000485  0
C  C125  1  0.79192293  0.70912793  0.80040076  1  -0.10115  0  -0.091707  -0.074842  0  4.000292  0
C  C126  1  0.29192288  0.79087405  0.30039808  1  -0.100934  0  -0.091644  -0.074853  0  4.000318  0
C  C127  1  0.20807893  0.29088027  0.19959650  1  -0.101766  0  -0.091701  -0.074856  0  4.000621  0
C  C128  1  0.68581827  0.17979420  0.62016566  1  -0.00798  0  -0.086766  -0.081214  0  3.992451  0
C  C129  1  0.81418019  0.67979683  0.87983581  1  -0.008138  0  -0.086752  -0.081271  0  3.992325  0
C  C130  1  0.31417697  0.82020190  0.37983362  1  -0.008173  0  -0.086791  -0.081352  0  3.992339  0
C  C131  1  0.18582167  0.32020852  0.12016086  1  -0.008178  0  -0.08686  -0.081436  0  3.992381  0
C  C132  1  0.55066033  0.19816143  0.57504414  1  -0.098069  0  -0.083507  -0.059508  0  3.975915  0
C  C133  1  0.94934152  0.69816661  0.92495577  1  -0.097933  0  -0.083518  -0.05946  0  3.975978  0
C  C134  1  0.44933600  0.80182897  0.42495461  1  -0.098506  0  -0.083481  -0.059405  0  3.975834  0
C  C135  1  0.05066147  0.30183589  0.07504332  1  -0.09791  0  -0.083501  -0.059436  0  3.975903  0
C  C136  1  0.43953048  0.24862309  0.60813644  1  -0.040356  0  -0.08718  -0.125017  0  3.953951  0
C  C137  1  0.06046799  0.74862668  0.89186155  1  -0.040401  0  -0.087253  -0.125101  0  3.954058  0
C  C138  1  0.56046363  0.75136732  0.39186159  1  -0.039497  0  -0.087271  -0.12515  0  3.953992  0
C  C139  1  0.93953392  0.25137582  0.10813868  1  -0.040287  0  -0.087248  -0.125059  0  3.953978  0
C  C140  1  0.00605440  0.66709628  0.44762550  1  1.607961  0  0.285617  0.502374  0  4.044666  0
C  C141  1  0.49394242  0.16709048  0.05237506  1  1.607759  0  0.285551  0.50199  0  4.045315  0
C  C142  1  0.99394416  0.33290480  0.55237396  1  1.607723  0  0.285622  0.502209  0  4.045037  0
C  C143  1  0.50605950  0.83291131  0.94762635  1  1.607736  0  0.285544  0.502097  0  4.045251  0
S  S144  1  0.00860577  0.72564221  0.54714467  1  3.283796  0  0.472787  0.982235  0  6.417697  0
S  S145  1  0.49139707  0.22563913  0.95285765  1  3.283659  0  0.472798  0.982281  0  6.417602  0
S  S146  1  0.99139947  0.27435744  0.45285692  1  3.283748  0  0.472807  0.982253  0  6.417782  0
S  S147  1  0.50860484  0.77436124  0.04714317  1  3.283434  0  0.472757  0.982223  0  6.417772  0
N  N148  1  0.22428425  0.48738487  0.73636723  1  -1.168434  0  -0.318134  -0.233667  0  3.5312  0
N  N149  1  0.27571440  0.98738705  0.76363604  1  -1.168517  0  -0.318113  -0.23362  0  3.531402  0
N  N150  1  0.77571764  0.51261336  0.26363181  1  -1.168498  0  -0.318159  -0.233652  0  3.531369  0
N  N151  1  0.72428753  0.01261545  0.23636656  1  -1.168385  0  -0.318146  -0.233748  0  3.531279  0
N  N152  1  0.25020788  0.29129616  0.76073921  1  -1.168709  0  -0.3148  -0.225939  0  3.557923  0
N  N153  1  0.24978973  0.79129750  0.73926120  1  -1.168786  0  -0.314747  -0.225842  0  3.557966  0
N  N154  1  0.74978736  0.70870278  0.23926007  1  -1.16875  0  -0.314736  -0.225856  0  3.558003  0
N  N155  1  0.75021554  0.20870429  0.26074217  1  -1.168791  0  -0.314759  -0.225916  0  3.558178  0
O  O156  1  0.01631278  0.64271907  0.60094875  1  -1.315853  0  -0.354487  -0.571658  0  2.327437  0
O  O157  1  0.48368628  0.14271793  0.89905141  1  -1.315891  0  -0.354508  -0.571652  0  2.327393  0
O  O158  1  0.98368911  0.35727774  0.39905089  1  -1.315783  0  -0.354479  -0.571691  0  2.327572  0
O  O159  1  0.51631121  0.85728101  0.10095036  1  -1.315758  0  -0.354507  -0.571657  0  2.327419  0
O  O160  1  0.86708780  0.77595600  0.54159814  1  -1.327055  0  -0.344882  -0.561747  0  2.212924  0
O  O161  1  0.63290564  0.27595507  0.95840565  1  -1.327062  0  -0.344832  -0.561713  0  2.213059  0
O  O162  1  0.13291524  0.22404579  0.45840392  1  -1.327154  0  -0.344902  -0.561758  0  2.213037  0
O  O163  1  0.36709625  0.72404458  0.04159339  1  -1.327011  0  -0.344827  -0.561723  0  2.21312  0
O  O164  1  0.14123625  0.78435966  0.55291074  1  -1.317204  0  -0.345639  -0.550045  0  2.194354  0
O  O165  1  0.35875688  0.28435700  0.94708882  1  -1.316948  0  -0.345662  -0.550055  0  2.194141  0
O  O166  1  0.85876788  0.21563715  0.44708960  1  -1.317091  0  -0.345625  -0.549996  0  2.194198  0
O  O167  1  0.64124501  0.71564550  0.05291022  1  -1.316922  0  -0.345636  -0.550029  0  2.194286  0
F  F168  1  0.98986832  0.73217252  0.38749967  1  -0.613788  0  -0.098154  -0.190134  0  1.377718  0
F  F169  1  0.51011030  0.23216739  0.11250193  1  -0.613687  0  -0.09823  -0.190075  0  1.377833  0
F  F170  1  0.01011584  0.26782926  0.61250021  1  -0.613723  0  -0.098186  -0.190081  0  1.377758  0
F  F171  1  0.48988828  0.76783725  0.88749872  1  -0.61362  0  -0.09816  -0.19003  0  1.377865  0
F  F172  1  0.88980181  0.60508584  0.43543411  1  -0.620355  0  -0.091928  -0.18475  0  1.398714  0
F  F173  1  0.61020280  0.10509000  0.06456977  1  -0.620389  0  -0.091915  -0.184698  0  1.398925  0
F  F174  1  0.11020014  0.39490883  0.56456908  1  -0.620331  0  -0.091914  -0.184747  0  1.398963  0
F  F175  1  0.38980025  0.89491393  0.93543348  1  -0.620415  0  -0.091921  -0.184754  0  1.398865  0
F  F176  1  0.13217330  0.61724252  0.44081858  1  -0.617137  0  -0.084688  -0.16685  0  1.382377  0
F  F177  1  0.36782986  0.11722653  0.05917806  1  -0.617055  0  -0.08457  -0.166648  0  1.38267  0
F  F178  1  0.86782854  0.38276425  0.55917750  1  -0.616969  0  -0.084673  -0.166755  0  1.382404  0
F  F179  1  0.63217319  0.88277313  0.94082519  1  -0.617045  0  -0.084614  -0.166704  0  1.382642  0
