# generated using pymatgen
data_CuH20C26(N3O7)2
_symmetry_space_group_name_H-M   'P 1'
_cell_length_a   7.66448735
_cell_length_b   8.21811434
_cell_length_c   12.34416934
_cell_angle_alpha   87.25064635
_cell_angle_beta   71.65658391
_cell_angle_gamma   65.93983444
_symmetry_Int_Tables_number   1
_chemical_formula_structural   CuH20C26(N3O7)2
_chemical_formula_sum   'Cu1 H20 C26 N6 O14'
_cell_volume   670.99930056
_cell_formula_units_Z   1
loop_
 _symmetry_equiv_pos_site_id
 _symmetry_equiv_pos_as_xyz
  1  'x, y, z'
loop_
 _atom_site_type_symbol
 _atom_site_label
 _atom_site_symmetry_multiplicity
 _atom_site_fract_x
 _atom_site_fract_y
 _atom_site_fract_z
 _atom_site_occupancy
 _atom_site_hle17_ddec_charge
 _atom_site_hle17_ddec_spin_density
 _atom_site_hle17_ddec_sum_bond_order
 _atom_site_hle17_magmom
 _atom_site_hse06_10hf_ddec_charge
 _atom_site_hse06_10hf_ddec_spin_density
 _atom_site_hse06_10hf_ddec_sum_bond_order
 _atom_site_hse06_10hf_magmom
 _atom_site_hse06_ddec_charge
 _atom_site_hse06_ddec_spin_density
 _atom_site_hse06_ddec_sum_bond_order
 _atom_site_hse06_magmom
 _atom_site_pbe_cm5_charge
 _atom_site_pbe_ddec_charge
 _atom_site_pbe_ddec_spin_density
 _atom_site_pbe_ddec_sum_bond_order
 _atom_site_pbe_magmom
Cu  Cu0  1  0.99999704  0.99999885  0.00000059  1  0.867084  -0.709247  1.78747  -0.521  0.83716  -0.783042  2.171709  -0.632  0.92773  -0.846678  2.105218  -0.714  0.743399  0.780781  -0.738486  2.217861  -0.578
H  H1  1  0.59757755  0.45181458  0.76707097  1  0.118011  -0.00046  0.955392  0.0  0.1275  -0.000476  1.014028  -0.001  0.130556  -0.000332  1.013116  0.0  0.109912  0.125324  -0.000594  1.014826  -0.001
H  H2  1  0.40241599  0.54818563  0.23293142  1  0.118043  -0.000462  0.955359  0.0  0.127525  -0.000476  1.014005  -0.001  0.130581  -0.000332  1.013093  0.0  0.109919  0.125352  -0.000594  1.014803  -0.001
H  H3  1  0.67991739  0.82778481  0.09506106  1  0.05361  0.000137  0.970916  0.0  0.058056  7.4e-05  1.051392  0.0  0.05987  8.4e-05  1.049177  0.0  0.091288  0.056706  6e-05  1.053089  0.0
H  H4  1  0.32007262  0.17222607  0.90493438  1  0.053591  0.000154  0.970967  0.0  0.058051  7.4e-05  1.051426  0.0  0.059862  8.4e-05  1.049216  0.0  0.091303  0.056702  6e-05  1.053124  0.0
H  H5  1  0.35952212  0.92814905  0.07271933  1  0.083778  -0.001138  0.963304  -0.002  0.086119  -0.000873  1.039674  -0.001  0.088643  -0.000582  1.036895  -0.001  0.115934  0.084074  -0.001104  1.04199  -0.002
H  H6  1  0.64047908  0.07185246  0.92727911  1  0.083774  -0.001145  0.963298  -0.002  0.086113  -0.000873  1.039667  -0.001  0.088638  -0.000582  1.036885  -0.001  0.115921  0.084069  -0.001104  1.041987  -0.002
H  H7  1  0.83741723  0.45331468  0.86780040  1  0.107005  -0.000437  0.940221  -0.001  0.120813  -5.3e-05  0.996182  0.0  0.123096  1.5e-05  0.994605  0.0  0.111551  0.11907  -0.000128  0.997409  0.0
H  H8  1  0.16257894  0.54668284  0.13219913  1  0.106976  -0.000438  0.940244  -0.001  0.120794  -5.3e-05  0.996189  0.0  0.123078  1.5e-05  0.99461  0.0  0.111551  0.11905  -0.000127  0.997414  0.0
H  H9  1  0.18366807  0.87112280  0.52982422  1  0.132533  -1.4e-05  0.964478  0.0  0.12907  1e-05  1.04495  0.0  0.134468  9e-06  1.039551  0.0  0.114458  0.125158  1e-05  1.048826  0.0
H  H10  1  0.81633834  0.12887335  0.47017581  1  0.13251  -2.6e-05  0.964517  0.0  0.129052  1e-05  1.044979  0.0  0.134451  9e-06  1.039579  0.0  0.114453  0.125137  1e-05  1.048858  0.0
H  H11  1  0.25253200  0.69687144  0.82238099  1  0.092713  -0.00113  0.976471  -0.002  0.098571  -0.000794  1.043011  -0.001  0.100409  -0.000535  1.040937  -0.001  0.119864  0.097013  -0.001001  1.044729  -0.002
H  H12  1  0.74746430  0.30312875  0.17761925  1  0.092735  -0.001126  0.976445  -0.002  0.098615  -0.000794  1.042965  -0.001  0.100454  -0.000535  1.04089  -0.001  0.119874  0.097056  -0.001001  1.044688  -0.002
H  H13  1  0.81783081  0.59040205  0.07381535  1  0.075847  -0.000339  0.92664  0.0  0.091758  -0.000131  0.986287  0.0  0.092159  -0.000119  0.985503  0.0  0.103891  0.091348  -0.000145  0.986974  0.0
H  H14  1  0.18215791  0.40961153  0.92618754  1  0.07581  -0.000334  0.926684  0.0  0.091727  -0.000131  0.986316  0.0  0.092123  -0.000119  0.985539  0.0  0.103869  0.091314  -0.000145  0.987004  0.0
H  H15  1  0.12602550  0.30528636  0.74091374  1  0.132071  -0.000345  0.946623  0.0  0.135601  -0.000226  1.015834  0.0  0.140205  -0.000151  1.011307  0.0  0.122705  0.1322  -0.000297  1.019117  0.0
H  H16  1  0.87397430  0.69471516  0.25908658  1  0.132101  -0.000339  0.94661  0.0  0.135634  -0.000226  1.015819  0.0  0.140237  -0.00015  1.011292  0.0  0.122721  0.132235  -0.000297  1.019101  0.0
H  H17  1  0.36164060  0.28564955  0.37266627  1  0.141864  -9.2e-05  0.948301  0.0  0.142247  0.0  1.019962  0.0  0.146825  -6e-06  1.016177  0.0  0.124177  0.138911  5e-06  1.022733  0.0
H  H18  1  0.63835783  0.71435198  0.62733514  1  0.14184  -8.8e-05  0.948277  0.0  0.142215  0.0  1.019954  0.0  0.146791  -6e-06  1.016172  0.0  0.124159  0.13888  5e-06  1.022727  0.0
H  H19  1  0.90796714  0.78601963  0.88162841  1  0.356134  6.4e-05  0.917621  0.0  0.331042  6.2e-05  0.998789  0.0  0.342194  8.9e-05  0.985117  0.0  0.288372  0.323152  2.3e-05  1.008504  0.0
H  H20  1  0.09204202  0.21397651  0.11837109  1  0.356101  6.5e-05  0.917646  0.0  0.331014  6.2e-05  0.998803  0.0  0.342166  8.9e-05  0.985132  0.0  0.288368  0.323123  2.3e-05  1.008517  0.0
C  C21  1  0.61966262  0.69713487  0.97369450  1  0.007508  -0.011896  3.74123  -0.013  0.034049  -0.003812  3.974453  -0.005  0.027163  -0.003468  3.999696  -0.004  -0.008521  0.038388  -0.004135  3.957319  -0.005
C  C22  1  0.38033935  0.30286796  0.02630212  1  0.007435  -0.011907  3.741217  -0.013  0.034008  -0.003811  3.974393  -0.005  0.027124  -0.003469  3.999629  -0.004  -0.008554  0.038355  -0.004135  3.957249  -0.005
C  C23  1  0.35873895  0.69246527  0.86475120  1  0.127629  0.014795  3.663916  0.01  0.09511  0.002907  3.920993  0.002  0.104512  0.004637  3.939328  0.003  0.046524  0.089172  0.001597  3.908768  0.001
C  C24  1  0.64125474  0.30753760  0.13524945  1  0.127615  0.014775  3.663843  0.01  0.095067  0.002907  3.920964  0.002  0.104473  0.004636  3.939309  0.003  0.046499  0.089132  0.001596  3.908735  0.001
C  C25  1  0.13427256  0.08551657  0.64728987  1  -0.019654  -0.009943  3.679459  -0.011  0.005318  -0.005186  3.912141  -0.006  -0.003585  -0.003835  3.93254  -0.005  -0.001533  0.010751  -0.006241  3.898552  -0.007
C  C26  1  0.86573659  0.91447957  0.35271126  1  -0.019572  -0.00995  3.679242  -0.011  0.005404  -0.005184  3.911975  -0.006  -0.003499  -0.003836  3.932373  -0.005  -0.001496  0.010836  -0.006241  3.898384  -0.007
C  C27  1  0.19539943  0.99721839  0.53887677  1  -0.072156  0.002272  3.628247  0.001  -0.111565  -3e-06  3.88852  0.0  -0.108019  0.00026  3.904057  0.0  -0.057061  -0.11329  -0.000163  3.87727  -0.001
C  C28  1  0.80460573  0.00278044  0.46112504  1  -0.072122  0.002324  3.628147  0.001  -0.11152  -4e-06  3.888408  0.0  -0.107975  0.000261  3.903943  0.0  -0.057062  -0.113238  -0.000163  3.877151  -0.001
C  C29  1  0.16276071  0.24102763  0.65695879  1  -0.068362  0.00288  3.645884  0.002  -0.111329  0.000379  3.902344  0.0  -0.106494  0.000563  3.917365  0.0  -0.059313  -0.114274  0.000231  3.893109  0.0
C  C30  1  0.83723909  0.75897389  0.34304235  1  -0.068492  0.002839  3.645777  0.002  -0.111492  0.000376  3.902276  0.0  -0.106656  0.000566  3.917296  0.0  -0.059401  -0.114441  0.000231  3.893045  0.0
C  C31  1  0.04523658  0.01223463  0.75545666  1  0.631953  0.005055  3.906829  0.006  0.587849  -8.1e-05  4.207374  0.001  0.625047  0.000428  4.201252  0.001  0.206954  0.562703  -0.000647  4.21056  0.001
C  C32  1  0.95476568  0.98776154  0.24454579  1  0.632038  0.005068  3.906807  0.006  0.587849  -8.1e-05  4.20748  0.001  0.625047  0.000428  4.201357  0.001  0.206933  0.562701  -0.000646  4.210663  0.001
C  C33  1  0.41962779  0.82332520  0.00319682  1  0.079669  0.013618  3.662108  0.009  0.045216  0.002478  3.915958  0.001  0.052812  0.004154  3.936512  0.003  0.047609  0.040074  0.001217  3.903204  0.0
C  C34  1  0.58037341  0.17667630  0.99680081  1  0.079702  0.013658  3.66209  0.009  0.045283  0.002477  3.915896  0.001  0.052877  0.004156  3.936471  0.003  0.047666  0.040129  0.001218  3.903152  0.0
C  C35  1  0.68530492  0.55917804  0.88853066  1  -0.03036  0.016809  3.667399  0.011  -0.057815  0.004855  3.909497  0.003  -0.053594  0.005491  3.927465  0.003  -0.061868  -0.060378  0.004369  3.897358  0.002
C  C36  1  0.31469492  0.44082347  0.11146642  1  -0.030368  0.016823  3.667477  0.011  -0.057844  0.004855  3.909575  0.003  -0.053622  0.005492  3.927541  0.003  -0.061887  -0.060409  0.004369  3.897431  0.002
C  C37  1  0.27847344  0.07061397  0.44257084  1  0.087695  -0.0016  3.686539  -0.002  0.072236  -0.000398  3.941028  -0.001  0.072472  -0.000358  3.966743  0.0  0.080515  0.07496  -0.000464  3.925695  -0.001
C  C38  1  0.72153495  0.92938084  0.55743128  1  0.087688  -0.001594  3.686499  -0.002  0.072201  -0.000398  3.940993  -0.001  0.072448  -0.000359  3.966719  0.0  0.080519  0.074917  -0.000464  3.925671  -0.001
C  C39  1  0.55367263  0.55712259  0.83321319  1  -0.119156  -0.01223  3.732863  -0.013  -0.12813  -0.003846  3.982562  -0.005  -0.135836  -0.003488  4.003503  -0.004  -0.083518  -0.123127  -0.004154  3.968353  -0.005
C  C40  1  0.44632568  0.44287625  0.16678589  1  -0.119179  -0.012227  3.732915  -0.013  -0.128142  -0.003846  3.982622  -0.005  -0.13585  -0.003488  4.003561  -0.004  -0.083518  -0.123144  -0.004153  3.968417  -0.005
C  C41  1  0.24046486  0.31183782  0.55846386  1  0.083993  -0.001067  3.716426  -0.001  0.07549  -6.1e-05  3.973399  0.0  0.07088  -0.000131  3.996099  0.0  0.07919  0.073967  -2.5e-05  3.955981  0.0
C  C42  1  0.75953419  0.68816236  0.44153666  1  0.084019  -0.001033  3.716443  -0.001  0.07548  -5.9e-05  3.973343  0.0  0.070869  -0.000134  3.996043  0.0  0.079205  0.073991  -2.5e-05  3.955937  0.0
C  C43  1  0.29866445  0.23036202  0.44917221  1  -0.110408  0.003045  3.66748  0.002  -0.148362  0.000753  3.92865  0.0  -0.144226  0.000806  3.942743  0.0  -0.062132  -0.150671  0.000745  3.919259  0.0
C  C44  1  0.70133873  0.76963815  0.55082751  1  -0.110373  0.002988  3.667551  0.002  -0.148321  0.000751  3.928736  0.0  -0.144186  0.000809  3.942828  0.0  -0.062121  -0.15063  0.000745  3.919341  0.0
C  C45  1  0.76033897  0.71173782  0.03047081  1  0.093798  -0.000529  3.662439  0.0  0.03295  -0.000502  3.92833  -0.001  0.040873  -0.000305  3.93401  0.0  -0.077999  0.027807  -0.000693  3.924226  -0.001
C  C46  1  0.23965561  0.28826906  0.96952954  1  0.09385  -0.000568  3.6625  0.0  0.033007  -0.000502  3.928336  -0.001  0.040935  -0.000306  3.934013  0.0  -0.077997  0.027863  -0.000693  3.924224  -0.001
N  N47  1  0.29195821  0.82096223  0.94997586  1  -0.287278  -0.083043  3.340555  -0.106  -0.236177  -0.053507  3.630984  -0.074  -0.267238  -0.043389  3.655104  -0.064  -0.345318  -0.217215  -0.059373  3.616257  -0.078
N  N48  1  0.70803795  0.17903529  0.05002530  1  -0.287246  -0.083043  3.340487  -0.106  -0.236181  -0.053508  3.630981  -0.074  -0.267263  -0.043389  3.655118  -0.064  -0.345305  -0.217209  -0.059372  3.616253  -0.078
N  N49  1  0.35403669  0.97423704  0.32826821  1  0.465237  -5.3e-05  3.958018  0.0  0.527843  -0.000138  4.209677  0.0  0.530779  -8.1e-05  4.247264  0.0  0.058523  0.513607  -0.000219  4.204021  0.0
N  N50  1  0.64596710  0.02576179  0.67173224  1  0.465284  -4.8e-05  3.958007  0.0  0.527977  -0.000137  4.209532  0.0  0.530872  -8.1e-05  4.247213  0.0  0.058603  0.513739  -0.000219  4.203888  0.0
N  N51  1  0.26767894  0.47629956  0.57119285  1  0.466109  0.00015  3.947422  0.0  0.509162  2.5e-05  4.227955  0.0  0.528984  3.1e-05  4.238513  0.0  0.058663  0.510664  2.3e-05  4.197069  0.0
N  N52  1  0.73231612  0.52370331  0.42880754  1  0.466027  0.000129  3.947566  0.0  0.509353  2.5e-05  4.227738  0.0  0.529178  3.2e-05  4.23829  0.0  0.058745  0.510737  2.3e-05  4.197025  0.0
O  O53  1  0.03918203  0.08704259  0.84665033  1  -0.597705  -0.079786  2.11477  -0.109  -0.571256  -0.050992  2.406044  -0.077  -0.614337  -0.038637  2.399674  -0.063  -0.324677  -0.541898  -0.059521  2.409973  -0.085
O  O54  1  0.96081672  0.91295226  0.15335285  1  -0.597759  -0.079787  2.114741  -0.109  -0.571255  -0.050994  2.405994  -0.077  -0.614336  -0.038638  2.399628  -0.063  -0.324685  -0.541892  -0.059526  2.409915  -0.085
O  O55  1  0.42623120  0.04397218  0.24498840  1  -0.330973  -0.00043  1.824414  -0.001  -0.326341  -0.000251  2.028952  0.0  -0.333904  -0.000137  2.037752  0.0  -0.110746  -0.317095  -0.000399  2.029166  -0.001
O  O56  1  0.57376737  0.95603202  0.75501208  1  -0.331023  -0.000441  1.824511  -0.001  -0.326415  -0.000252  2.029025  0.0  -0.333964  -0.000136  2.037849  0.0  -0.110764  -0.317167  -0.0004  2.029246  -0.001
O  O57  1  0.98879823  0.89088427  0.74900172  1  -0.593776  0.00038  1.972297  -0.001  -0.557356  0.000359  2.207298  -0.001  -0.582385  0.001049  2.199231  0.0  -0.311605  -0.53969  -0.000251  2.212004  -0.001
O  O58  1  0.01120621  0.10911322  0.25099541  1  -0.593805  0.000368  1.972307  -0.001  -0.557368  0.000359  2.207365  -0.001  -0.582398  0.001049  2.1993  0.0  -0.311566  -0.5397  -0.000251  2.212069  -0.001
O  O59  1  0.34352232  0.82873038  0.32259117  1  -0.327738  -6.9e-05  1.796731  0.0  -0.324855  -2.9e-05  1.997511  0.0  -0.331443  -2.6e-05  2.004588  0.0  -0.113598  -0.316323  -4.3e-05  1.999035  0.0
O  O60  1  0.65648486  0.17126709  0.67740705  1  -0.327708  -5.9e-05  1.796649  0.0  -0.324904  -2.7e-05  1.997442  0.0  -0.331476  -2.9e-05  2.004539  0.0  -0.113632  -0.31637  -4.3e-05  1.99897  0.0
O  O61  1  0.28050155  0.51255219  0.66358360  1  -0.307892  -0.000133  1.788843  0.0  -0.299088  -3.8e-05  1.994653  0.0  -0.310602  -6e-05  1.991978  0.0  -0.103577  -0.296421  -3.3e-05  1.989219  0.0
O  O62  1  0.71949675  0.48744666  0.33641630  1  -0.307867  -0.000157  1.788892  0.0  -0.299217  -4.3e-05  1.994627  0.0  -0.31073  -5.4e-05  1.991949  0.0  -0.10364  -0.29651  -3.3e-05  1.989251  0.0
O  O63  1  0.27671419  0.56728012  0.48793524  1  -0.338778  -0.000123  1.776077  0.0  -0.330387  -1.2e-05  1.984538  0.0  -0.343691  -5e-06  1.982496  0.0  -0.121639  -0.32651  -4e-06  1.978698  0.0
O  O64  1  0.72327799  0.43272009  0.51206498  1  -0.338763  -9.4e-05  1.776121  0.0  -0.33043  -7e-06  1.984449  0.0  -0.343733  -1.3e-05  1.982404  0.0  -0.121659  -0.326501  -5e-06  1.97864  0.0
O  O65  1  0.93598177  0.72248995  0.94869851  1  -0.566454  0.000287  2.10454  -0.001  -0.521908  0.001031  2.349475  0.0  -0.540435  0.001369  2.33534  0.0  -0.408721  -0.508544  0.000598  2.359109  -0.001
O  O66  1  0.06401753  0.27751558  0.05130421  1  -0.566417  0.00029  2.10458  -0.001  -0.521874  0.001031  2.349518  0.0  -0.540402  0.001368  2.335382  0.0  -0.408722  -0.508508  0.000598  2.359147  -0.001
