# generated using pymatgen
data_LaH8C10N2Cl3
_symmetry_space_group_name_H-M   'P 1'
_cell_length_a   7.08763311
_cell_length_b   7.42685941
_cell_length_c   23.86177379
_cell_angle_alpha   90.00002378
_cell_angle_beta   90.00001276
_cell_angle_gamma   90.00001199
_symmetry_Int_Tables_number   1
_chemical_formula_structural   LaH8C10N2Cl3
_chemical_formula_sum   'La4 H32 C40 N8 Cl12'
_cell_volume   1256.05644317
_cell_formula_units_Z   4
loop_
 _symmetry_equiv_pos_site_id
 _symmetry_equiv_pos_as_xyz
  1  'x, y, z'
loop_
 _atom_site_type_symbol
 _atom_site_label
 _atom_site_symmetry_multiplicity
 _atom_site_fract_x
 _atom_site_fract_y
 _atom_site_fract_z
 _atom_site_occupancy
 _atom_site_hle17_bader_spin_density
 _atom_site_hle17_ddec_charge
 _atom_site_hle17_ddec_spin_density
 _atom_site_hle17_ddec_sum_bond_order
 _atom_site_hle17_magmom
 _atom_site_hse06_10hf_bader_spin_density
 _atom_site_hse06_10hf_ddec_charge
 _atom_site_hse06_10hf_ddec_spin_density
 _atom_site_hse06_10hf_ddec_sum_bond_order
 _atom_site_hse06_10hf_magmom
 _atom_site_hse06_bader_spin_density
 _atom_site_hse06_ddec_charge
 _atom_site_hse06_ddec_spin_density
 _atom_site_hse06_ddec_sum_bond_order
 _atom_site_hse06_magmom
 _atom_site_pbe_bader_spin_density
 _atom_site_pbe_cm5_charge
 _atom_site_pbe_ddec_charge
 _atom_site_pbe_ddec_spin_density
 _atom_site_pbe_ddec_sum_bond_order
 _atom_site_pbe_magmom
La  La0  1  0.74999954  0.29818432  0.50000017  1  0  1.742548  0  2.082921  0  0  1.647319  0  2.611856  0  0  1.740364  0  2.531787  0  0  0.925131  1.579629  0  2.663852  0
La  La1  1  0.75000081  0.70181624  0.00000007  1  0  1.742576  0  2.082928  0  0  1.647344  0  2.61186  0  0  1.740382  0  2.531804  0  0  0.925132  1.579639  0  2.663881  0
La  La2  1  0.25000051  0.70181518  0.50000018  1  0  1.742555  0  2.082939  0  0  1.647334  0  2.61186  0  0  1.740375  0  2.531801  0  0  0.925127  1.579642  0  2.663863  0
La  La3  1  0.25000028  0.29818394  0.00000003  1  0  1.742594  0  2.082887  0  0  1.647366  0  2.611812  0  0  1.740414  0  2.53174  0  0  0.925152  1.579682  0  2.663798  0
H  H4  1  0.76311812  0.42447717  0.35495439  1  0  0.076242  0  0.96404  0  0  0.083916  0  1.02924  0  0  0.087281  0  1.025175  0  0  0.102758  0.081345  0  1.032363  0
H  H5  1  0.76311665  0.57552069  0.14504586  1  0  0.076234  0  0.964072  0  0  0.083922  0  1.029252  0  0  0.087288  0  1.025185  0  0  0.102751  0.081352  0  1.032374  0
H  H6  1  0.73688248  0.57552116  0.85495327  1  0  0.07624  0  0.964056  0  0  0.083939  0  1.029226  0  0  0.087305  0  1.025159  0  0  0.102776  0.081367  0  1.032349  0
H  H7  1  0.73688239  0.42448006  0.64504598  1  0  0.076245  0  0.964106  0  0  0.083932  0  1.029283  0  0  0.087298  0  1.025216  0  0  0.102753  0.081363  0  1.032405  0
H  H8  1  0.23688192  0.57552097  0.64504639  1  0  0.076233  0  0.964072  0  0  0.083918  0  1.029257  0  0  0.087284  0  1.02519  0  0  0.102753  0.081348  0  1.032379  0
H  H9  1  0.23688198  0.42448015  0.85495450  1  0  0.076217  0  0.964075  0  0  0.083902  0  1.029262  0  0  0.087268  0  1.025195  0  0  0.10274  0.081331  0  1.032385  0
H  H10  1  0.26311897  0.42447699  0.14504583  1  0  0.076265  0  0.964062  0  0  0.083954  0  1.029236  0  0  0.08732  0  1.025169  0  0  0.102755  0.081384  0  1.03236  0
H  H11  1  0.26311907  0.57551809  0.35495312  1  0  0.076221  0  0.964036  0  0  0.083912  0  1.029214  0  0  0.087277  0  1.025148  0  0  0.102761  0.081342  0  1.032335  0
H  H12  1  0.77062269  0.31859655  0.25675506  1  0  0.094368  0  0.965266  0  0  0.10765  0  1.022051  0  0  0.110781  0  1.021033  0  0  0.101791  0.105434  0  1.022857  0
H  H13  1  0.77061991  0.68140266  0.24324519  1  0  0.094405  0  0.96523  0  0  0.107643  0  1.022057  0  0  0.110773  0  1.021043  0  0  0.101803  0.10543  0  1.022862  0
H  H14  1  0.72937643  0.68140434  0.75675437  1  0  0.094309  0  0.965204  0  0  0.10759  0  1.021996  0  0  0.110719  0  1.020981  0  0  0.101768  0.105377  0  1.022801  0
H  H15  1  0.72937638  0.31859957  0.74324529  1  0  0.094376  0  0.965239  0  0  0.107615  0  1.022072  0  0  0.110744  0  1.021057  0  0  0.101784  0.105401  0  1.022877  0
H  H16  1  0.22937594  0.68140429  0.74324572  1  0  0.094282  0  0.965229  0  0  0.107563  0  1.022023  0  0  0.110692  0  1.021008  0  0  0.101753  0.10535  0  1.022827  0
H  H17  1  0.22937590  0.31859953  0.75675475  1  0  0.094338  0  0.965276  0  0  0.107601  0  1.022081  0  0  0.110732  0  1.021065  0  0  0.101781  0.105388  0  1.022886  0
H  H18  1  0.27062362  0.31859650  0.24324515  1  0  0.094341  0  0.965294  0  0  0.107599  0  1.022104  0  0  0.110729  0  1.021088  0  0  0.101771  0.105385  0  1.022909  0
H  H19  1  0.27062366  0.68140262  0.25675381  1  0  0.094312  0  0.965279  0  0  0.107592  0  1.022067  0  0  0.110722  0  1.021052  0  0  0.101768  0.105379  0  1.022871  0
H  H20  1  0.71996416  0.90404466  0.41574872  1  0  0.086034  0  0.978074  0  0  0.090878  0  1.047372  0  0  0.094185  0  1.043476  0  0  0.107233  0.08826  0  1.050516  0
H  H21  1  0.71996395  0.09595455  0.08425068  1  0  0.086054  0  0.978066  0  0  0.090907  0  1.047356  0  0  0.094216  0  1.043458  0  0  0.107239  0.088289  0  1.0505  0
H  H22  1  0.78003649  0.09595376  0.91574922  1  0  0.086019  0  0.97808  0  0  0.090873  0  1.047385  0  0  0.094179  0  1.04349  0  0  0.107228  0.088254  0  1.050528  0
H  H23  1  0.78003787  0.90404612  0.58425087  1  0  0.085996  0  0.978074  0  0  0.090847  0  1.047389  0  0  0.094154  0  1.043493  0  0  0.107197  0.088228  0  1.050534  0
H  H24  1  0.28003729  0.09595349  0.58425122  1  0  0.085958  0  0.978033  0  0  0.090811  0  1.047368  0  0  0.094119  0  1.04347  0  0  0.107186  0.088193  0  1.050514  0
H  H25  1  0.28003751  0.90404629  0.91574926  1  0  0.085993  0  0.97807  0  0  0.090842  0  1.047386  0  0  0.09415  0  1.04349  0  0  0.107193  0.088224  0  1.05053  0
H  H26  1  0.21996355  0.90404439  0.08425114  1  0  0.086076  0  0.978049  0  0  0.090924  0  1.047337  0  0  0.094232  0  1.04344  0  0  0.107259  0.088306  0  1.05048  0
H  H27  1  0.21996358  0.09595203  0.41574907  1  0  0.085983  0  0.978092  0  0  0.090852  0  1.047397  0  0  0.094159  0  1.043501  0  0  0.107216  0.088233  0  1.050542  0
H  H28  1  0.71877613  0.77569020  0.32149797  1  0  0.100398  0  0.95752  0  0  0.112012  0  1.017338  0  0  0.115212  0  1.015949  0  0  0.103489  0.10971  0  1.018467  0
H  H29  1  0.71877601  0.22430765  0.17850186  1  0  0.100427  0  0.957508  0  0  0.112036  0  1.017329  0  0  0.115238  0  1.015939  0  0  0.103504  0.109739  0  1.018447  0
H  H30  1  0.78122304  0.22430943  0.82149848  1  0  0.100375  0  0.957535  0  0  0.111986  0  1.017353  0  0  0.115187  0  1.015964  0  0  0.103489  0.109685  0  1.018479  0
H  H31  1  0.78122447  0.77569314  0.67850202  1  0  0.10042  0  0.95752  0  0  0.112026  0  1.017341  0  0  0.115228  0  1.01595  0  0  0.103497  0.109726  0  1.018466  0
H  H32  1  0.28122533  0.22430929  0.67850197  1  0  0.100402  0  0.957525  0  0  0.11201  0  1.017349  0  0  0.115211  0  1.01596  0  0  0.103485  0.109711  0  1.018472  0
H  H33  1  0.28122403  0.77569319  0.82149808  1  0  0.100424  0  0.957515  0  0  0.112028  0  1.017337  0  0  0.11523  0  1.015946  0  0  0.103498  0.109728  0  1.018462  0
H  H34  1  0.21877559  0.77569006  0.17850188  1  0  0.100401  0  0.957518  0  0  0.11201  0  1.01734  0  0  0.115211  0  1.015951  0  0  0.103488  0.109711  0  1.018461  0
H  H35  1  0.21877699  0.22430635  0.32149833  1  0  0.100425  0  0.957502  0  0  0.112043  0  1.017314  0  0  0.115244  0  1.015924  0  0  0.103513  0.109744  0  1.018438  0
C  C36  1  0.75398670  0.28119049  0.34540605  1  0  0.131096  0  3.743535  0  0  0.106563  0  3.994489  0  0  0.114271  0  4.012328  0  0  0.041567  0.10148  0  3.982391  0
C  C37  1  0.75398668  0.71880737  0.15459420  1  0  0.131114  0  3.743589  0  0  0.106576  0  3.994524  0  0  0.114286  0  4.012359  0  0  0.041599  0.101493  0  3.982427  0
C  C38  1  0.74601249  0.71880918  0.84540537  1  0  0.131176  0  3.743522  0  0  0.106623  0  3.994471  0  0  0.114332  0  4.012306  0  0  0.041611  0.101542  0  3.982373  0
C  C39  1  0.74601377  0.28119473  0.65459430  1  0  0.131084  0  3.743622  0  0  0.106545  0  3.994557  0  0  0.114254  0  4.012392  0  0  0.041611  0.101464  0  3.982462  0
C  C40  1  0.24601334  0.71880766  0.65459473  1  0  0.13117  0  3.743566  0  0  0.106628  0  3.994519  0  0  0.114337  0  4.012354  0  0  0.041632  0.101547  0  3.982423  0
C  C41  1  0.24601336  0.28119347  0.84540616  1  0  0.131126  0  3.743584  0  0  0.106582  0  3.994531  0  0  0.114291  0  4.012367  0  0  0.041613  0.101501  0  3.982434  0
C  C42  1  0.25398756  0.28119166  0.15459415  1  0  0.13104  0  3.743583  0  0  0.106499  0  3.994526  0  0  0.114209  0  4.012362  0  0  0.041582  0.101417  0  3.98243  0
C  C43  1  0.25398768  0.71880476  0.34540480  1  0  0.131189  0  3.743457  0  0  0.106646  0  3.994413  0  0  0.114356  0  4.01225  0  0  0.041623  0.101563  0  3.982316  0
C  C44  1  0.75699332  0.22037067  0.29037828  1  0  -0.171882  0  3.731303  0  0  -0.189924  0  3.977507  0  0  -0.197932  0  3.998734  0  0  -0.091081  -0.18462  0  3.963104  0
C  C45  1  0.75699195  0.77962719  0.20962154  1  0  -0.171967  0  3.73138  0  0  -0.189967  0  3.977596  0  0  -0.197975  0  3.998822  0  0  -0.091111  -0.184665  0  3.963195  0
C  C46  1  0.74300865  0.77963027  0.79037803  1  0  -0.171859  0  3.731259  0  0  -0.189893  0  3.977481  0  0  -0.197901  0  3.998707  0  0  -0.091062  -0.184591  0  3.963081  0
C  C47  1  0.74300996  0.22037498  0.70962164  1  0  -0.17193  0  3.73135  0  0  -0.189937  0  3.977564  0  0  -0.197942  0  3.99879  0  0  -0.091107  -0.184634  0  3.963163  0
C  C48  1  0.24300954  0.77962883  0.70962249  1  0  -0.171841  0  3.731321  0  0  -0.189905  0  3.977521  0  0  -0.197912  0  3.998746  0  0  -0.091069  -0.184601  0  3.963119  0
C  C49  1  0.24300951  0.22037364  0.79037840  1  0  -0.171859  0  3.731316  0  0  -0.18988  0  3.977527  0  0  -0.197888  0  3.998755  0  0  -0.091063  -0.184578  0  3.963127  0
C  C50  1  0.25698998  0.22037191  0.20962191  1  0  -0.171882  0  3.731344  0  0  -0.189907  0  3.977566  0  0  -0.197915  0  3.998794  0  0  -0.091089  -0.184605  0  3.963166  0
C  C51  1  0.25699149  0.77962720  0.29037789  1  0  -0.171911  0  3.731389  0  0  -0.189979  0  3.977593  0  0  -0.197989  0  3.998816  0  0  -0.091116  -0.184678  0  3.963193  0
C  C52  1  0.74461258  0.03505545  0.27899479  1  0  0.089858  0  3.76446  0  0  0.10119  0  3.997597  0  0  0.105252  0  4.019184  0  0  0.007812  0.098637  0  3.98292  0
C  C53  1  0.74461266  0.96494376  0.22100545  1  0  0.089939  0  3.764443  0  0  0.10125  0  3.997586  0  0  0.105313  0  4.019173  0  0  0.007817  0.098696  0  3.982909  0
C  C54  1  0.75538515  0.96494547  0.77899457  1  0  0.089878  0  3.764467  0  0  0.101186  0  3.997621  0  0  0.105251  0  4.019206  0  0  0.007812  0.098632  0  3.982944  0
C  C55  1  0.75538643  0.03505844  0.72100510  1  0  0.089911  0  3.764471  0  0  0.101231  0  3.997624  0  0  0.105287  0  4.019219  0  0  0.007817  0.09868  0  3.982946  0
C  C56  1  0.25538606  0.96494539  0.72100557  1  0  0.089862  0  3.764629  0  0  0.101258  0  3.997684  0  0  0.105324  0  4.01927  0  0  0.007824  0.098706  0  3.983008  0
C  C57  1  0.25538597  0.03505708  0.77899491  1  0  0.089929  0  3.764519  0  0  0.101224  0  3.997657  0  0  0.10528  0  4.019252  0  0  0.00782  0.09867  0  3.982981  0
C  C58  1  0.24461348  0.03505536  0.22100537  1  0  0.089896  0  3.764496  0  0  0.1012  0  3.997607  0  0  0.10526  0  4.019195  0  0  0.00782  0.098648  0  3.98293  0
C  C59  1  0.24461502  0.96494375  0.27899442  1  0  0.08987  0  3.764609  0  0  0.101278  0  3.997646  0  0  0.105348  0  4.019219  0  0  0.00783  0.098724  0  3.98297  0
C  C60  1  0.73062921  0.99264063  0.37952007  1  0  0.14759  0  3.694116  0  0  0.120382  0  3.948564  0  0  0.128656  0  3.965812  0  0  0.053431  0.114902  0  3.93702  0
C  C61  1  0.73063041  0.00735858  0.12048017  1  0  0.147565  0  3.694141  0  0  0.120347  0  3.948596  0  0  0.12862  0  3.965845  0  0  0.053436  0.114869  0  3.93705  0
C  C62  1  0.76937000  0.00736043  0.87951930  1  0  0.147589  0  3.694216  0  0  0.12033  0  3.948728  0  0  0.128604  0  3.965974  0  0  0.053383  0.114854  0  3.937179  0
C  C63  1  0.76937143  0.99264079  0.62048079  1  0  0.147556  0  3.694178  0  0  0.120311  0  3.948676  0  0  0.128586  0  3.965923  0  0  0.053384  0.114834  0  3.937132  0
C  C64  1  0.26936942  0.00735752  0.62048071  1  0  0.147652  0  3.694122  0  0  0.120389  0  3.948645  0  0  0.128664  0  3.965892  0  0  0.053412  0.114911  0  3.937102  0
C  C65  1  0.26937104  0.99264092  0.87951935  1  0  0.147569  0  3.694161  0  0  0.120326  0  3.948657  0  0  0.128601  0  3.965903  0  0  0.053388  0.11485  0  3.937109  0
C  C66  1  0.23062863  0.99264175  0.12047980  1  0  0.147477  0  3.694166  0  0  0.120253  0  3.948633  0  0  0.128526  0  3.965883  0  0  0.053376  0.114774  0  3.937087  0
C  C67  1  0.23063002  0.00735870  0.37951915  1  0  0.147687  0  3.69419  0  0  0.120405  0  3.94872  0  0  0.12868  0  3.965968  0  0  0.053413  0.114926  0  3.937177  0
C  C68  1  0.73146726  0.92103159  0.32566364  1  0  -0.147465  0  3.682998  0  0  -0.168351  0  3.93292  0  0  -0.175938  0  3.953807  0  0  -0.082701  -0.163437  0  3.919023  0
C  C69  1  0.73146852  0.07896761  0.17433619  1  0  -0.147486  0  3.682984  0  0  -0.168362  0  3.932904  0  0  -0.175948  0  3.95379  0  0  -0.082693  -0.163448  0  3.919013  0
C  C70  1  0.76852909  0.07896940  0.82566371  1  0  -0.147383  0  3.683087  0  0  -0.168228  0  3.932987  0  0  -0.175815  0  3.953873  0  0  -0.082653  -0.163317  0  3.9191  0
C  C71  1  0.76853195  0.92103317  0.67433679  1  0  -0.147412  0  3.683065  0  0  -0.168267  0  3.932971  0  0  -0.175852  0  3.95386  0  0  -0.082612  -0.163356  0  3.919086  0
C  C72  1  0.26853137  0.07896790  0.67433672  1  0  -0.147418  0  3.683137  0  0  -0.168292  0  3.933018  0  0  -0.175878  0  3.953905  0  0  -0.082612  -0.16338  0  3.919131  0
C  C73  1  0.26853152  0.92103322  0.82566333  1  0  -0.147415  0  3.683062  0  0  -0.16827  0  3.932972  0  0  -0.175854  0  3.953859  0  0  -0.082611  -0.163358  0  3.919085  0
C  C74  1  0.23146813  0.92103144  0.17433623  1  0  -0.147411  0  3.682938  0  0  -0.168287  0  3.932859  0  0  -0.175874  0  3.953747  0  0  -0.082668  -0.163372  0  3.918964  0
C  C75  1  0.23146950  0.07896498  0.32566356  1  0  -0.14745  0  3.683156  0  0  -0.168353  0  3.933089  0  0  -0.175943  0  3.953977  0  0  -0.082695  -0.163438  0  3.919191  0
N  N76  1  0.74009208  0.17050174  0.38990609  1  0  -0.358153  0  3.194691  0  0  -0.302594  0  3.457923  0  0  -0.324585  0  3.480518  0  0  -0.356267  -0.28745  0  3.442115  0
N  N77  1  0.74009206  0.82949612  0.11009374  1  0  -0.358166  0  3.194674  0  0  -0.302618  0  3.457934  0  0  -0.324609  0  3.480531  0  0  -0.356313  -0.287472  0  3.442125  0
N  N78  1  0.75990714  0.82949664  0.88990542  1  0  -0.358243  0  3.194667  0  0  -0.302676  0  3.457933  0  0  -0.324665  0  3.480525  0  0  -0.356294  -0.287527  0  3.442121  0
N  N79  1  0.75990837  0.17050458  0.61009425  1  0  -0.358166  0  3.194654  0  0  -0.302604  0  3.457918  0  0  -0.324594  0  3.480513  0  0  -0.356321  -0.287458  0  3.442111  0
N  N80  1  0.25990796  0.82949506  0.61009427  1  0  -0.358251  0  3.194701  0  0  -0.302684  0  3.457968  0  0  -0.324674  0  3.480562  0  0  -0.356342  -0.287539  0  3.442162  0
N  N81  1  0.25990799  0.17050472  0.88990578  1  0  -0.358203  0  3.194677  0  0  -0.302642  0  3.457939  0  0  -0.324632  0  3.480533  0  0  -0.356335  -0.287495  0  3.442129  0
N  N82  1  0.24009149  0.17050285  0.11009410  1  0  -0.358076  0  3.194719  0  0  -0.302516  0  3.457956  0  0  -0.324506  0  3.480552  0  0  -0.35625  -0.287371  0  3.442146  0
N  N83  1  0.24009167  0.82949357  0.38990528  1  0  -0.35824  0  3.194547  0  0  -0.302663  0  3.457817  0  0  -0.324655  0  3.480413  0  0  -0.35628  -0.287519  0  3.44201  0
Cl  Cl84  1  0.00000018  0.00000033  0.50000013  1  0  -0.599858  0  1.029622  0  0  -0.576735  0  1.329662  0  0  -0.605193  0  1.309415  0  0  -0.296191  -0.555393  0  1.343145  0
Cl  Cl85  1  0.00000000  0.00000000  0.00000000  1  0  -0.599886  0  1.029641  0  0  -0.576767  0  1.329684  0  0  -0.605222  0  1.309437  0  0  -0.296196  -0.555423  0  1.34317  0
Cl  Cl86  1  0.50000049  0.00000005  0.00000002  1  0  -0.599882  0  1.029633  0  0  -0.576758  0  1.329676  0  0  -0.605213  0  1.309428  0  0  -0.296194  -0.555412  0  1.343158  0
Cl  Cl87  1  0.49999926  0.00000038  0.50000015  1  0  -0.599873  0  1.02964  0  0  -0.576757  0  1.329697  0  0  -0.605212  0  1.309448  0  0  -0.296197  -0.5554  0  1.343158  0
Cl  Cl88  1  0.92798990  0.57019976  0.56413248  1  0  -0.619438  0  0.981089  0  0  -0.597017  0  1.265438  0  0  -0.624776  0  1.245747  0  0  -0.302501  -0.576389  0  1.278084  0
Cl  Cl89  1  0.92798861  0.42980149  0.93586762  1  0  -0.61945  0  0.981089  0  0  -0.597019  0  1.265418  0  0  -0.624774  0  1.245724  0  0  -0.302505  -0.576391  0  1.278065  0
Cl  Cl90  1  0.57201049  0.42980223  0.06413233  1  0  -0.619453  0  0.981104  0  0  -0.597029  0  1.265444  0  0  -0.624793  0  1.245761  0  0  -0.302514  -0.576402  0  1.278091  0
Cl  Cl91  1  0.57201065  0.57019829  0.43586749  1  0  -0.61944  0  0.981108  0  0  -0.597004  0  1.265428  0  0  -0.624759  0  1.245727  0  0  -0.302492  -0.57638  0  1.278075  0
Cl  Cl92  1  0.07201015  0.42980108  0.43586746  1  0  -0.619432  0  0.981092  0  0  -0.597  0  1.26542  0  0  -0.624754  0  1.245717  0  0  -0.302494  -0.576376  0  1.278068  0
Cl  Cl93  1  0.07201003  0.57019800  0.06413274  1  0  -0.619443  0  0.981091  0  0  -0.59701  0  1.265411  0  0  -0.624767  0  1.245715  0  0  -0.302497  -0.576384  0  1.278058  0
Cl  Cl94  1  0.42798955  0.57019861  0.93586761  1  0  -0.619445  0  0.981092  0  0  -0.597017  0  1.265431  0  0  -0.624781  0  1.245751  0  0  -0.302506  -0.576391  0  1.278076  0
Cl  Cl95  1  0.42798940  0.42980120  0.56413245  1  0  -0.619438  0  0.981097  0  0  -0.597007  0  1.265431  0  0  -0.62477  0  1.245743  0  0  -0.302502  -0.576381  0  1.278078  0
