# generated using pymatgen
data_CdH35C43(N3O2)2
_symmetry_space_group_name_H-M   'P 1'
_cell_length_a   10.21679747
_cell_length_b   13.87438277
_cell_length_c   13.83676416
_cell_angle_alpha   87.63889097
_cell_angle_beta   69.34373087
_cell_angle_gamma   74.99584638
_symmetry_Int_Tables_number   1
_chemical_formula_structural   CdH35C43(N3O2)2
_chemical_formula_sum   'Cd2 H70 C86 N12 O8'
_cell_volume   1769.99581285
_cell_formula_units_Z   2
loop_
 _symmetry_equiv_pos_site_id
 _symmetry_equiv_pos_as_xyz
  1  'x, y, z'
loop_
 _atom_site_type_symbol
 _atom_site_label
 _atom_site_symmetry_multiplicity
 _atom_site_fract_x
 _atom_site_fract_y
 _atom_site_fract_z
 _atom_site_occupancy
 _atom_site_pbe_bader_charge
 _atom_site_pbe_bader_spin_density
 _atom_site_pbe_cm5_charge
 _atom_site_pbe_ddec_charge
 _atom_site_pbe_ddec_spin_density
 _atom_site_pbe_ddec_sum_bond_order
 _atom_site_pbe_magmom
Cd  Cd0  1  0.56133030  0.44663013  0.36354085  1  1.253981  0  0.773311  0.887645  0  2.175003  0
Cd  Cd1  1  0.43867588  0.55337140  0.63645604  1  1.253915  0  0.773333  0.887724  0  2.17489  0
H  H2  1  0.13251467  0.46206815  0.49186239  1  0.048553  0  0.101736  0.123576  0  0.994304  0
H  H3  1  0.86749086  0.53792964  0.50813407  1  0.048543  0  0.10175  0.123547  0  0.994368  0
H  H4  1  0.26756732  0.34816889  0.46460830  1  0.063006  0  0.10375  0.124864  0  1.000149  0
H  H5  1  0.73244163  0.65182815  0.53538875  1  0.063023  0  0.10377  0.124904  0  1.000207  0
H  H6  1  0.21825237  0.20035837  0.55277512  1  0.06808  0  0.0964  0.098615  0  1.016736  0
H  H7  1  0.78174423  0.79964091  0.44722071  1  0.06804  0  0.096377  0.098634  0  1.016828  0
H  H8  1  0.04331256  0.11771013  0.67753240  1  0.062529  0  0.097307  0.094871  0  1.016938  0
H  H9  1  0.95667651  0.88229512  0.32246445  1  0.062433  0  0.097271  0.094788  0  1.016955  0
H  H10  1  0.80756670  0.22046693  0.79819588  1  0.067946  0  0.095968  0.099407  0  1.025517  0
H  H11  1  0.19242493  0.77953980  0.20180315  1  0.067994  0  0.095958  0.099442  0  1.025541  0
H  H12  1  0.92202651  0.48776353  0.66891661  1  0.070354  0  0.097471  0.105299  0  1.011357  0
H  H13  1  0.07798413  0.51223725  0.33108276  1  0.070416  0  0.097495  0.10533  0  1.011296  0
H  H14  1  0.64793677  0.37755368  0.86780804  1  0.073595  0  0.096146  0.111507  0  1.025986  0
H  H15  1  0.35206836  0.62244781  0.13219418  1  0.073527  0  0.096173  0.111495  0  1.026005  0
H  H16  1  0.72444108  0.48012382  0.85858368  1  0.048512  0  0.092118  0.104613  0  1.034973  0
H  H17  1  0.27556441  0.51988217  0.14141829  1  0.048355  0  0.09215  0.104705  0  1.034968  0
H  H18  1  0.61454827  0.32888816  0.57062205  1  0.198693  0  0.140383  0.12562  0  1.025693  0
H  H19  1  0.38545193  0.67111258  0.42937858  1  0.198686  0  0.140382  0.125596  0  1.025749  0
H  H20  1  0.48860526  0.24543985  0.27032251  1  0.099931  0  0.103335  0.123451  0  1.021958  0
H  H21  1  0.51139656  0.75455940  0.72967775  1  0.099813  0  0.103311  0.123426  0  1.021984  0
H  H22  1  0.53252871  0.06352271  0.21966784  1  0.06132  0  0.095328  0.093432  0  1.03448  0
H  H23  1  0.46746266  0.93647652  0.78033440  1  0.061321  0  0.095326  0.093449  0  1.034504  0
H  H24  1  0.62878893  0.93040860  0.31496806  1  0.113436  0  0.09497  0.094839  0  1.058384  0
H  H25  1  0.37120463  0.06958765  0.68503372  1  0.113426  0  0.095012  0.094872  0  1.05841  0
H  H26  1  0.69014688  0.96818148  0.46838979  1  0.074013  0  0.104354  0.11349  0  1.01729  0
H  H27  1  0.30984971  0.03181777  0.53161038  1  0.073984  0  0.104358  0.113509  0  1.017369  0
H  H28  1  0.63766109  0.08245950  0.65418359  1  0.105283  0  0.11283  0.10147  0  1.004256  0
H  H29  1  0.36234793  0.91754276  0.34581542  1  0.105158  0  0.112782  0.101449  0  1.004156  0
H  H30  1  0.70972794  0.18543563  0.65342014  1  0.087259  0  0.120057  0.112525  0  0.971098  0
H  H31  1  0.29027186  0.81456886  0.34657902  1  0.087201  0  0.120051  0.112542  0  0.971129  0
H  H32  1  0.91864626  0.16199718  0.42815844  1  0.1034  0  0.096691  0.095976  0  1.040129  0
H  H33  1  0.08135942  0.83801107  0.57184051  1  0.103574  0  0.096705  0.095985  0  1.04003  0
H  H34  1  0.83407942  0.94439093  0.65799030  1  0.057583  0  0.096368  0.095723  0  1.029986  0
H  H35  1  0.16592940  0.05561732  0.34200928  1  0.057391  0  0.096359  0.095719  0  1.029998  0
H  H36  1  0.70118369  0.34006884  0.11776123  1  0.160908  0  0.138675  0.111754  0  0.998147  0
H  H37  1  0.29882053  0.65992147  0.88223510  1  0.160887  0  0.138666  0.111812  0  0.998088  0
H  H38  1  0.89341609  0.36683427  0.39977663  1  0.080735  0  0.106856  0.1246  0  1.013479  0
H  H39  1  0.10658087  0.63316948  0.60022112  1  0.081052  0  0.106843  0.124614  0  1.013537  0
H  H40  1  0.15406538  0.28536681  0.37025239  1  0.065558  0  0.097844  0.096868  0  1.028129  0
H  H41  1  0.84592938  0.71463993  0.62974654  1  0.065504  0  0.097859  0.096912  0  1.028124  0
H  H42  1  0.31677952  0.19124890  0.20581801  1  0.077805  0  0.096815  0.094149  0  1.037097  0
H  H43  1  0.68321934  0.80875259  0.79418439  1  0.077745  0  0.096787  0.094135  0  1.037098  0
H  H44  1  0.22572298  0.17095023  0.06483737  1  0.052242  0  0.106356  0.12004  0  1.010342  0
H  H45  1  0.77428132  0.82904529  0.93516310  1  0.05224  0  0.10637  0.12006  0  1.010391  0
H  H46  1  0.07558384  0.22971094  0.94242464  1  0.089691  0  0.114852  0.10034  0  0.987205  0
H  H47  1  0.92441571  0.77028609  0.05757195  1  0.089684  0  0.114848  0.100321  0  0.987172  0
H  H48  1  0.89247079  0.24910936  0.95549347  1  0.110375  0  0.117669  0.104973  0  0.980854  0
H  H49  1  0.10752818  0.75088915  0.04450611  1  0.110384  0  0.117651  0.104895  0  0.980899  0
H  H50  1  0.85313239  0.10829376  0.15984374  1  0.058236  0  0.100354  0.101586  0  1.025188  0
H  H51  1  0.14686594  0.89170108  0.84014529  1  0.058691  0  0.100314  0.101563  0  1.025115  0
H  H52  1  0.12717503  0.07201248  0.83754818  1  0.107036  0  0.101334  0.104191  0  1.023677  0
H  H53  1  0.87282586  0.92798384  0.16244448  1  0.10717  0  0.101296  0.104178  0  1.023694  0
H  H54  1  0.71420979  0.71481133  0.23645893  1  0.185055  0  0.133017  0.112051  0  1.011693  0
H  H55  1  0.28579476  0.28519166  0.76354411  1  0.185189  0  0.132967  0.111949  0  1.011733  0
H  H56  1  0.38672114  0.00197190  0.13381709  1  0.051472  0  0.10034  0.108637  0  1.017048  0
H  H57  1  0.61327120  0.99802210  0.86618509  1  0.051332  0  0.100327  0.108633  0  1.017021  0
H  H58  1  0.28415470  0.97167349  0.00172246  1  0.074695  0  0.092947  0.094647  0  1.036483  0
H  H59  1  0.71584210  0.02831977  0.99827858  1  0.074689  0  0.092909  0.094588  0  1.036529  0
H  H60  1  0.35609722  0.80626205  0.91281748  1  0.048243  0  0.092371  0.085281  0  1.054055  0
H  H61  1  0.64390718  0.19373048  0.08718162  1  0.048242  0  0.092348  0.085196  0  1.054158  0
H  H62  1  0.52568262  0.66142789  0.95391830  1  0.087816  0  0.098027  0.109462  0  1.034457  0
H  H63  1  0.47432167  0.33856761  0.04608507  1  0.087901  0  0.098033  0.10945  0  1.034411  0
H  H64  1  0.63126313  0.55566580  0.05931058  1  0.043345  0  0.112727  0.095842  0  0.978454  0
H  H65  1  0.36873451  0.44433341  0.94069583  1  0.043311  0  0.112731  0.095867  0  0.978425  0
H  H66  1  0.65690312  0.55081068  0.17981428  1  0.093936  0  0.110749  0.093769  0  1.045961  0
H  H67  1  0.34309404  0.44918703  0.82019230  1  0.094098  0  0.110757  0.093798  0  1.046008  0
H  H68  1  0.89363218  0.52919594  0.19132925  1  0.141874  0  0.100112  0.113726  0  1.056657  0
H  H69  1  0.10636459  0.47080552  0.80867585  1  0.141965  0  0.10014  0.11376  0  1.056666  0
H  H70  1  0.84273751  0.54646396  0.89488121  1  0.052818  0  0.098507  0.100519  0  1.029414  0
H  H71  1  0.15725887  0.45354124  0.10512531  1  0.052783  0  0.098532  0.100645  0  1.029317  0
C  C72  1  0.27378840  0.44323697  0.57739664  1  1.569304  0  0.19905  0.624052  0  4.172367  0
C  C73  1  0.72621198  0.55676602  0.42260459  1  1.569418  0  0.198973  0.623877  0  4.172293  0
C  C74  1  0.18688866  0.40044567  0.52836403  1  -0.044078  0  -0.162506  -0.355294  0  3.94643  0
C  C75  1  0.81311351  0.59955807  0.47163815  1  -0.044059  0  -0.162506  -0.355231  0  3.946543  0
C  C76  1  0.08134178  0.34948807  0.60203497  1  0.034783  0  -0.01299  0.147386  0  4.000583  0
C  C77  1  0.91865679  0.65051416  0.39796747  1  0.034891  0  -0.01299  0.14739  0  4.000628  0
C  C78  1  0.11470823  0.24517574  0.60571903  1  -0.12894  0  -0.099586  -0.154418  0  3.977404  0
C  C79  1  0.88528390  0.75482426  0.39428010  1  -0.129071  0  -0.099624  -0.154512  0  3.977468  0
C  C80  1  0.01689646  0.19898414  0.67590968  1  -0.065996  0  -0.09698  -0.073805  0  4.044606  0
C  C81  1  0.98309271  0.80101808  0.32409231  1  -0.06592  0  -0.096912  -0.073632  0  4.044413  0
C  C82  1  0.88439045  0.25667797  0.74348744  1  -0.029733  0  -0.101543  -0.163016  0  3.982423  0
C  C83  1  0.11560413  0.74332652  0.25651235  1  -0.029667  0  -0.101476  -0.163125  0  3.98234  0
C  C84  1  0.84908416  0.36113213  0.74131460  1  0.005184  0  -0.011458  0.151676  0  3.979305  0
C  C85  1  0.15091982  0.63887237  0.25868492  1  0.005115  0  -0.011541  0.151665  0  3.97934  0
C  C86  1  0.94850757  0.40623773  0.67039032  1  -0.10404  0  -0.095678  -0.196277  0  3.905641  0
C  C87  1  0.05149432  0.59376675  0.32961191  1  -0.104143  0  -0.095645  -0.196277  0  3.905584  0
C  C88  1  0.70674241  0.42511150  0.81318682  1  -0.060306  0  -0.164825  -0.340082  0  3.941053  0
C  C89  1  0.29326024  0.57489375  0.18681157  1  -0.05997  0  -0.164879  -0.34011  0  3.941076  0
C  C90  1  0.60742539  0.48157282  0.75748419  1  1.564487  0  0.191532  0.618056  0  4.184113  0
C  C91  1  0.39257488  0.51843315  0.24251913  1  1.564514  0  0.191442  0.617925  0  4.184048  0
C  C92  1  0.60519518  0.27525201  0.51974018  1  0.987223  0  0.162681  0.136476  0  3.875987  0
C  C93  1  0.39480606  0.72474876  0.48025657  1  0.987244  0  0.16267  0.136441  0  3.875984  0
C  C94  1  0.56640834  0.20625214  0.39738742  1  0.343415  0  0.080155  0.137905  0  4.071663  0
C  C95  1  0.43359853  0.79374491  0.60260873  1  0.343737  0  0.080162  0.137847  0  4.071589  0
C  C96  1  0.53143809  0.18500615  0.31281391  1  -0.042373  0  -0.102577  -0.18179  0  3.995928  0
C  C97  1  0.46856582  0.81499312  0.68718581  1  -0.04236  0  -0.10252  -0.181736  0  3.99585  0
C  C98  1  0.55568115  0.08446293  0.28584907  1  -0.021315  0  -0.102325  -0.096952  0  4.036804  0
C  C99  1  0.44431116  0.91553931  0.71415139  1  -0.020951  0  -0.102377  -0.097036  0  4.037041  0
C  C100  1  0.61294296  0.00716099  0.34065943  1  -0.049085  0  -0.103111  -0.099161  0  4.033536  0
C  C101  1  0.38704783  0.99283972  0.65934508  1  -0.04917  0  -0.103101  -0.099118  0  4.033756  0
C  C102  1  0.64695697  0.02752841  0.42533030  1  0.003152  0  -0.09487  -0.157404  0  4.014021  0
C  C103  1  0.35303790  0.97247531  0.57467306  1  0.002851  0  -0.094923  -0.157528  0  4.014082  0
C  C104  1  0.62156273  0.12806429  0.45296994  1  0.297624  0  0.090671  0.086016  0  3.999506  0
C  C105  1  0.37843956  0.87193650  0.54702581  1  0.297691  0  0.09064  0.086056  0  3.999307  0
C  C106  1  0.70837877  0.12593114  0.60387896  1  0.296668  0  -0.044195  -0.10809  0  3.899402  0
C  C107  1  0.29163036  0.87406814  0.39612013  1  0.296837  0  -0.044144  -0.108083  0  3.899272  0
C  C108  1  0.95351325  0.09085693  0.46001597  1  -0.006182  0  -0.094516  -0.129299  0  3.993918  0
C  C109  1  0.04649406  0.90914985  0.53997900  1  -0.006635  0  -0.094508  -0.129255  0  3.993608  0
C  C110  1  0.85925232  0.06080750  0.54942524  1  -0.094875  0  -0.015114  0.077907  0  3.99568  0
C  C111  1  0.14074709  0.93920074  0.45057316  1  -0.095178  0  -0.014996  0.077963  0  3.995435  0
C  C112  1  0.90681337  0.96933483  0.58882882  1  -0.05506  0  -0.092361  -0.128316  0  3.991284  0
C  C113  1  0.09319192  0.03067718  0.41116649  1  -0.055127  0  -0.092397  -0.128377  0  3.991436  0
C  C114  1  0.78958504  0.32295287  0.14725546  1  1.011802  0  0.160442  0.124612  0  3.941306  0
C  C115  1  0.21041612  0.67704264  0.85274438  1  1.012072  0  0.160443  0.124369  0  3.941314  0
C  C116  1  0.91422997  0.31614202  0.24726573  1  0.389309  0  0.087603  0.146443  0  4.04327  0
C  C117  1  0.08577282  0.68385202  0.75273229  1  0.389318  0  0.087679  0.146657  0  4.043424  0
C  C118  1  0.96543109  0.32574397  0.32698160  1  0.002896  0  -0.092205  -0.156226  0  3.957323  0
C  C119  1  0.03456674  0.67425755  0.67301600  1  0.002575  0  -0.092204  -0.156334  0  3.95755  0
C  C120  1  0.11086495  0.27978729  0.30969106  1  -0.102753  0  -0.096579  -0.090889  0  4.020851  0
C  C121  1  0.88913496  0.72021422  0.69030745  1  -0.102915  0  -0.096542  -0.090836  0  4.020816  0
C  C122  1  0.20349676  0.22499442  0.21634140  1  0.005518  0  -0.095447  -0.087093  0  4.029151  0
C  C123  1  0.79650448  0.77500633  0.78365968  1  0.005843  0  -0.095478  -0.087144  0  4.029027  0
C  C124  1  0.15394494  0.21346119  0.13683659  1  0.034684  0  -0.095279  -0.164009  0  3.995136  0
C  C125  1  0.84605698  0.78653506  0.86316592  1  0.034634  0  -0.095248  -0.163951  0  3.99505  0
C  C126  1  0.00861178  0.26035002  0.15403183  1  0.276054  0  0.093329  0.08821  0  4.010698  0
C  C127  1  0.99138769  0.73964176  0.84596713  1  0.277535  0  0.093233  0.087948  0  4.010858  0
C  C128  1  0.97239740  0.21499297  0.99168818  1  0.283391  0  -0.039023  -0.098619  0  3.904837  0
C  C129  1  0.02760539  0.78500108  0.00830696  1  0.283439  0  -0.038941  -0.098438  0  3.904847  0
C  C130  1  0.91835697  0.06145736  0.08923583  1  -0.014425  0  -0.093008  -0.132434  0  3.990619  0
C  C131  1  0.08164298  0.93853596  0.91075645  1  -0.014726  0  -0.092947  -0.132353  0  3.990553  0
C  C132  1  0.98805026  0.10350017  0.99804385  1  -0.051471  0  -0.014655  0.077986  0  3.977167  0
C  C133  1  0.01195339  0.89649168  0.00194608  1  -0.051934  0  -0.014746  0.077883  0  3.977402  0
C  C134  1  0.07026837  0.04091288  0.90899469  1  -0.088098  0  -0.089477  -0.126089  0  3.9736  0
C  C135  1  0.92973233  0.95908119  0.09099737  1  -0.088044  0  -0.089408  -0.125996  0  3.973767  0
C  C136  1  0.65269422  0.74776994  0.18758190  1  0.956758  0  0.148493  0.121211  0  3.932743  0
C  C137  1  0.34730493  0.25223079  0.81242190  1  0.956804  0  0.148644  0.121454  0  3.932584  0
C  C138  1  0.51128389  0.84735533  0.12109075  1  0.395982  0  0.076196  0.125434  0  4.096371  0
C  C139  1  0.48871450  0.15264466  0.87891182  1  0.395785  0  0.076154  0.125357  0  4.096635  0
C  C140  1  0.41535944  0.92797060  0.09653525  1  -0.014014  0  -0.094618  -0.152609  0  3.991043  0
C  C141  1  0.58463459  0.07202713  0.90346780  1  -0.013479  0  -0.094573  -0.15255  0  3.990988  0
C  C142  1  0.35905436  0.91062647  0.02269229  1  -0.030437  0  -0.107685  -0.10624  0  4.045991  0
C  C143  1  0.64094150  0.08936377  0.97731272  1  -0.030619  0  -0.107593  -0.10614  0  4.045948  0
C  C144  1  0.39880245  0.81541984  0.97272727  1  -0.045213  0  -0.107629  -0.102406  0  4.051226  0
C  C145  1  0.60119597  0.18457191  0.02727630  1  -0.045165  0  -0.107616  -0.102289  0  4.05162  0
C  C146  1  0.49327847  0.73358124  0.99609645  1  -0.035033  0  -0.105903  -0.183888  0  4.042144  0
C  C147  1  0.50672384  0.26641127  0.00390753  1  -0.03543  0  -0.105971  -0.183991  0  4.042463  0
C  C148  1  0.54634575  0.75095598  0.07230521  1  0.276014  0  0.086153  0.07555  0  4.033324  0
C  C149  1  0.45365332  0.24903951  0.92769878  1  0.276076  0  0.086209  0.075589  0  4.033756  0
C  C150  1  0.68935932  0.58034038  0.10278041  1  0.375434  0  -0.051326  -0.102949  0  3.906494  0
C  C151  1  0.31064544  0.41965661  0.89722350  1  0.375394  0  -0.051345  -0.103081  0  3.90658  0
C  C152  1  0.94061440  0.51655433  0.10744809  1  -0.147324  0  -0.096687  -0.130943  0  3.975529  0
C  C153  1  0.05938295  0.48344564  0.89255620  1  -0.147499  0  -0.096716  -0.131047  0  3.975406  0
C  C154  1  0.85051651  0.54130174  0.04891616  1  0.01229  0  -0.021706  0.074203  0  3.996593  0
C  C155  1  0.14947979  0.45869819  0.95109490  1  0.012105  0  -0.021702  0.074348  0  3.9964  0
C  C156  1  0.91135721  0.52505094  0.94138108  1  -0.062637  0  -0.097406  -0.135874  0  4.002467  0
C  C157  1  0.08864489  0.47494754  0.05862347  1  -0.062312  0  -0.097478  -0.136171  0  4.00265  0
N  N158  1  0.55799341  0.29710360  0.44128810  1  -1.22553  0  -0.361546  -0.361  0  3.480396  0
N  N159  1  0.44200869  0.70289493  0.55870922  1  -1.225706  0  -0.361545  -0.360979  0  3.480334  0
N  N160  1  0.64313047  0.17509334  0.53070356  1  -1.22224  0  -0.2382  -0.008031  0  3.731435  0
N  N161  1  0.35687211  0.82490669  0.46929287  1  -1.222335  0  -0.238177  -0.007909  0  3.731534  0
N  N162  1  0.77805236  0.35408496  0.23987621  1  -1.196167  0  -0.34948  -0.355274  0  3.473512  0
N  N163  1  0.22194405  0.64591205  0.76012336  1  -1.196478  0  -0.3495  -0.355256  0  3.473508  0
N  N164  1  0.92559535  0.26672185  0.09213073  1  -1.243687  0  -0.242215  -0.022599  0  3.752802  0
N  N165  1  0.07440516  0.73326994  0.90786724  1  -1.245058  0  -0.242187  -0.02242  0  3.752852  0
N  N166  1  0.58143765  0.84283571  0.19150140  1  -1.202134  0  -0.343328  -0.375429  0  3.281213  0
N  N167  1  0.41856046  0.15716503  0.80850049  1  -1.202174  0  -0.343377  -0.375534  0  3.281172  0
N  N168  1  0.63664988  0.68913320  0.11696006  1  -1.247889  0  -0.245986  -0.022867  0  3.709223  0
N  N169  1  0.36334937  0.31086451  0.88304670  1  -1.247921  0  -0.24603  -0.022818  0  3.709417  0
O  O170  1  0.55078729  0.57463085  0.77662102  1  -1.202997  0  -0.344042  -0.588179  0  2.111476  0
O  O171  1  0.44920984  0.42537510  0.22338456  1  -1.202962  0  -0.344026  -0.588133  0  2.111362  0
O  O172  1  0.34031241  0.50632921  0.52385391  1  -1.180246  0  -0.349356  -0.599554  0  2.327037  0
O  O173  1  0.65967749  0.49368199  0.47614830  1  -1.180409  0  -0.349299  -0.599374  0  2.327083  0
O  O174  1  0.27909467  0.41812981  0.66423561  1  -1.187044  0  -0.312829  -0.550682  0  2.207608  0
O  O175  1  0.72091057  0.58186872  0.33576162  1  -1.187044  0  -0.312849  -0.550728  0  2.207512  0
O  O176  1  0.58269485  0.42970648  0.69439319  1  -1.159466  0  -0.334173  -0.554769  0  2.248703  0
O  O177  1  0.41731083  0.57030177  0.30560504  1  -1.159588  0  -0.334113  -0.554693  0  2.248712  0
