# generated using pymatgen
data_H18PbC24N6O7
_symmetry_space_group_name_H-M   'P 1'
_cell_length_a   14.55243428
_cell_length_b   14.55239075
_cell_length_c   15.88631937
_cell_angle_alpha   112.20683934
_cell_angle_beta   112.20658845
_cell_angle_gamma   91.76936180
_symmetry_Int_Tables_number   1
_chemical_formula_structural   H18PbC24N6O7
_chemical_formula_sum   'H72 Pb4 C96 N24 O28'
_cell_volume   2823.86766855
_cell_formula_units_Z   4
loop_
 _symmetry_equiv_pos_site_id
 _symmetry_equiv_pos_as_xyz
  1  'x, y, z'
loop_
 _atom_site_type_symbol
 _atom_site_label
 _atom_site_symmetry_multiplicity
 _atom_site_fract_x
 _atom_site_fract_y
 _atom_site_fract_z
 _atom_site_occupancy
 _atom_site_pbe_bader_charge
 _atom_site_pbe_bader_spin_density
 _atom_site_pbe_cm5_charge
 _atom_site_pbe_ddec_charge
 _atom_site_pbe_ddec_spin_density
 _atom_site_pbe_ddec_sum_bond_order
 _atom_site_pbe_magmom
H  H0  1  0.85282437  0.90849149  0.52073569  1  0.136215  0  0.106932  0.123687  0  1.038992  0
H  H1  1  0.59149419  0.64717535  0.97927425  1  0.136709  0  0.106883  0.123602  0  1.039178  0
H  H2  1  0.14719805  0.09150271  0.47928339  1  0.136528  0  0.106807  0.123478  0  1.039065  0
H  H3  1  0.40850539  0.35283190  0.02073828  1  0.136807  0  0.10687  0.123531  0  1.039158  0
H  H4  1  0.83312900  0.90552462  0.35680338  1  0.076953  0  0.108312  0.122961  0  0.985516  0
H  H5  1  0.59446977  0.66685129  0.14321020  1  0.076977  0  0.108337  0.122964  0  0.985524  0
H  H6  1  0.16687596  0.09447189  0.64320100  1  0.077177  0  0.108326  0.12293  0  0.985571  0
H  H7  1  0.40552848  0.33312301  0.85680051  1  0.077013  0  0.108315  0.122895  0  0.985573  0
H  H8  1  0.93637760  0.22904685  0.49585832  1  0.089659  0  0.11037  0.127054  0  0.994054  0
H  H9  1  0.27094662  0.56361074  0.00416623  1  0.089552  0  0.110495  0.127305  0  0.993936  0
H  H10  1  0.06360075  0.77095298  0.50416127  1  0.089489  0  0.110493  0.127268  0  0.994172  0
H  H11  1  0.72904969  0.43643741  0.99584236  1  0.089359  0  0.110521  0.127282  0  0.994045  0
H  H12  1  0.95404972  0.23299167  0.66004113  1  0.064361  0  0.104226  0.108423  0  0.999803  0
H  H13  1  0.26700978  0.54596305  0.83998480  1  0.064195  0  0.104179  0.108504  0  0.999684  0
H  H14  1  0.04593779  0.76700192  0.33996877  1  0.064036  0  0.104238  0.108433  0  0.999704  0
H  H15  1  0.73299540  0.45412258  0.16003610  1  0.06431  0  0.104172  0.108311  0  0.999832  0
H  H16  1  0.04846918  0.17853282  0.77786074  1  0.086515  0  0.115927  0.079563  0  0.981812  0
H  H17  1  0.32144690  0.45153577  0.72215420  1  0.086153  0  0.115946  0.079533  0  0.981624  0
H  H18  1  0.95154344  0.82145043  0.22215302  1  0.086144  0  0.115934  0.079551  0  0.981812  0
H  H19  1  0.67855092  0.54850822  0.27787298  1  0.085987  0  0.115929  0.079611  0  0.981827  0
H  H20  1  0.14086554  0.24513252  0.95637923  1  0.113262  0  0.107218  0.117734  0  1.033359  0
H  H21  1  0.25484084  0.35913777  0.54363354  1  0.112674  0  0.107204  0.117724  0  1.033423  0
H  H22  1  0.85913372  0.75480043  0.04362064  1  0.112058  0  0.107283  0.117884  0  1.032897  0
H  H23  1  0.74520336  0.64089661  0.45639444  1  0.112213  0  0.107263  0.117782  0  1.03302  0
H  H24  1  0.15795615  0.25162497  0.12059361  1  0.108481  0  0.114115  0.113194  0  0.979445  0
H  H25  1  0.24837914  0.34203526  0.37942105  1  0.108715  0  0.114093  0.113167  0  0.97933  0
H  H26  1  0.84206354  0.74831669  0.87941825  1  0.109587  0  0.114037  0.112911  0  0.979617  0
H  H27  1  0.75169508  0.65793116  0.62059313  1  0.109208  0  0.113999  0.112893  0  0.979785  0
H  H28  1  0.02100369  0.14717294  0.12568586  1  0.146939  0  0.107498  0.125982  0  1.043397  0
H  H29  1  0.35287669  0.47897601  0.37435191  1  0.147486  0  0.107521  0.126149  0  1.043289  0
H  H30  1  0.97898564  0.85277055  0.87431548  1  0.147169  0  0.107594  0.126258  0  1.04325  0
H  H31  1  0.64723611  0.52100811  0.62568621  1  0.147005  0  0.107551  0.12618  0  1.043309  0
H  H32  1  0.87066608  0.04014801  0.96277045  1  0.123901  0  0.112371  0.082531  0  1.03799  0
H  H33  1  0.45990332  0.62931812  0.53727845  1  0.123729  0  0.112344  0.082469  0  1.037898  0
H  H34  1  0.12931920  0.95983919  0.03722953  1  0.124459  0  0.112411  0.082572  0  1.037834  0
H  H35  1  0.54017599  0.37068052  0.46276378  1  0.124581  0  0.112409  0.082529  0  1.03788  0
H  H36  1  0.28694870  0.69804125  0.63182556  1  0.086708  0  0.116985  0.088461  0  0.999004  0
H  H37  1  0.80197874  0.21308480  0.86816002  1  0.086584  0  0.117034  0.088311  0  0.999034  0
H  H38  1  0.71307647  0.30200626  0.36817267  1  0.087213  0  0.11704  0.088428  0  0.999101  0
H  H39  1  0.19805559  0.78695945  0.13181256  1  0.086271  0  0.116898  0.088341  0  0.99929  0
H  H40  1  0.11053317  0.69325263  0.62431003  1  0.112427  0  0.110889  0.121077  0  1.001999  0
H  H41  1  0.80673059  0.38946522  0.87563197  1  0.112979  0  0.110834  0.121053  0  1.002033  0
H  H42  1  0.88947564  0.30674025  0.37566799  1  0.112444  0  0.1109  0.121049  0  1.002028  0
H  H43  1  0.19324552  0.61054610  0.12430459  1  0.112273  0  0.110859  0.121024  0  1.00214  0
H  H44  1  0.08994794  0.76740366  0.78328884  1  0.104647  0  0.10799  0.106712  0  1.015759  0
H  H45  1  0.73252947  0.41003604  0.71665294  1  0.104674  0  0.107896  0.106566  0  1.015591  0
H  H46  1  0.91003853  0.23251476  0.21668392  1  0.104844  0  0.107902  0.106611  0  1.015707  0
H  H47  1  0.26739955  0.58997509  0.28328925  1  0.102873  0  0.108029  0.106637  0  1.015771  0
H  H48  1  0.24825600  0.84384208  0.94760337  1  0.076875  0  0.106287  0.11858  0  1.019267  0
H  H49  1  0.65608634  0.25172189  0.55234841  1  0.075627  0  0.106347  0.118874  0  1.019062  0
H  H50  1  0.75173871  0.15609365  0.05237826  1  0.075666  0  0.106258  0.118616  0  1.019179  0
H  H51  1  0.34383670  0.74827612  0.44758401  1  0.077157  0  0.106286  0.118554  0  1.019352  0
H  H52  1  0.42381171  0.90008063  0.03291569  1  0.138695  0  0.113566  0.08223  0  1.056843  0
H  H53  1  0.59982156  0.07613929  0.46706260  1  0.137277  0  0.113582  0.082147  0  1.056969  0
H  H54  1  0.57616551  0.09985587  0.96708783  1  0.138087  0  0.113703  0.082256  0  1.05694  0
H  H55  1  0.40008411  0.92383798  0.53289877  1  0.1388  0  0.113514  0.082261  0  1.056869  0
H  H56  1  0.53537144  0.94806259  0.16361289  1  0.084567  0  0.106869  0.117211  0  1.034611  0
H  H57  1  0.55194678  0.96459722  0.33638971  1  0.085455  0  0.106882  0.117213  0  1.034617  0
H  H58  1  0.46463623  0.05198941  0.83639971  1  0.084665  0  0.106838  0.117224  0  1.034437  0
H  H59  1  0.44804461  0.03538682  0.66358927  1  0.085123  0  0.106931  0.117219  0  1.034743  0
H  H60  1  0.68806024  0.04128378  0.31749652  1  0.106142  0  0.106086  0.12054  0  1.016282  0
H  H61  1  0.45873567  0.81191155  0.18250621  1  0.106833  0  0.106108  0.120608  0  1.016385  0
H  H62  1  0.31193924  0.95873979  0.68251094  1  0.106352  0  0.106084  0.12058  0  1.016166  0
H  H63  1  0.54125794  0.18807887  0.81749087  1  0.106693  0  0.106118  0.120624  0  1.016352  0
H  H64  1  0.87010634  0.98119674  0.15073025  1  0.096088  0  0.104784  0.125353  0  1.011093  0
H  H65  1  0.51875987  0.62988384  0.34928755  1  0.096364  0  0.104726  0.125042  0  1.011223  0
H  H66  1  0.12991088  0.01877707  0.84929128  1  0.09637  0  0.104692  0.125193  0  1.011235  0
H  H67  1  0.48123744  0.37012220  0.65072062  1  0.096304  0  0.104724  0.125038  0  1.011266  0
H  H68  1  0.71569150  0.88075266  0.99322194  1  0.13188  0  0.10362  0.108412  0  1.043924  0
H  H69  1  0.61920512  0.78428674  0.50678926  1  0.131291  0  0.103589  0.108466  0  1.043771  0
H  H70  1  0.28432030  0.11924006  0.00679608  1  0.131405  0  0.103586  0.108473  0  1.043766  0
H  H71  1  0.38079673  0.21572396  0.49321140  1  0.131069  0  0.103589  0.108476  0  1.043819  0
Pb  Pb72  1  0.76498203  0.96306358  0.70556989  1  1.39286  0  0.603193  0.893955  0  1.933007  0
Pb  Pb73  1  0.53694178  0.73501044  0.79444580  1  1.392879  0  0.603231  0.894174  0  1.932932  0
Pb  Pb74  1  0.23501599  0.03695524  0.29442408  1  1.39291  0  0.603179  0.89396  0  1.932984  0
Pb  Pb75  1  0.46306395  0.26498772  0.20554934  1  1.392816  0  0.603256  0.894148  0  1.932824  0
C  C76  1  0.87131378  0.97841029  0.51498598  1  -0.032452  0  -0.084029  -0.127341  0  3.950415  0
C  C77  1  0.52158237  0.62867459  0.98503321  1  -0.032055  0  -0.084011  -0.12702  0  3.95077  0
C  C78  1  0.12868818  0.02157889  0.48502489  1  -0.032872  0  -0.083862  -0.126937  0  3.950179  0
C  C79  1  0.47842099  0.37133495  0.01497450  1  -0.038834  0  -0.083871  -0.126882  0  3.950375  0
C  C80  1  0.86058885  0.97677623  0.42387298  1  -0.014395  0  -0.096761  -0.184758  0  4.00689  0
C  C81  1  0.52322169  0.63940358  0.07614734  1  -0.014236  0  -0.096685  -0.184463  0  4.006639  0
C  C82  1  0.13941311  0.02321445  0.57613399  1  -0.013999  0  -0.096836  -0.184975  0  4.007012  0
C  C83  1  0.47678551  0.36059858  0.92386418  1  -0.014423  0  -0.096814  -0.184782  0  4.007088  0
C  C84  1  0.88430727  0.06736245  0.41781439  1  0.397975  0  0.085414  0.25351  0  4.040733  0
C  C85  1  0.43263319  0.61567436  0.08220025  1  0.397149  0  0.085203  0.252972  0  4.040994  0
C  C86  1  0.11570529  0.93262968  0.58220432  1  0.396937  0  0.085436  0.253759  0  4.040716  0
C  C87  1  0.56736875  0.38432077  0.91779693  1  0.397186  0  0.085408  0.2534  0  4.041097  0
C  C88  1  0.91960428  0.15949076  0.50284029  1  0.047513  0  -0.097441  -0.178095  0  3.99279  0
C  C89  1  0.34050493  0.58040087  0.99718787  1  0.048215  0  -0.09761  -0.178348  0  3.993077  0
C  C90  1  0.08039380  0.84050874  0.49718540  1  0.048768  0  -0.097714  -0.178708  0  3.993132  0
C  C91  1  0.65948904  0.41965570  0.00282031  1  0.0487  0  -0.097852  -0.178768  0  3.992989  0
C  C92  1  0.93111186  0.16079424  0.59439525  1  -0.050149  0  -0.092487  -0.155449  0  4.000472  0
C  C93  1  0.33920670  0.56888747  0.90563207  1  -0.050457  0  -0.092425  -0.155245  0  4.000752  0
C  C94  1  0.06888701  0.83920321  0.40561993  1  -0.050538  0  -0.092405  -0.155256  0  4.000053  0
C  C95  1  0.66079346  0.43114811  0.09438043  1  -0.050127  0  -0.092412  -0.155085  0  3.999647  0
C  C96  1  0.90747061  0.07032718  0.60160908  1  0.338759  0  0.081922  0.182007  0  4.065965  0
C  C97  1  0.42966648  0.59253594  0.89841498  1  0.337929  0  0.081967  0.181157  0  4.067113  0
C  C98  1  0.09252605  0.92966017  0.39839302  1  0.338778  0  0.081888  0.181942  0  4.065885  0
C  C99  1  0.57033359  0.40751447  0.10160829  1  0.344239  0  0.082037  0.18179  0  4.065606  0
C  C100  1  0.98743888  0.13008921  0.77593770  1  0.647147  0  0.084833  0.05683  0  3.924437  0
C  C101  1  0.36989321  0.51256867  0.72408089  1  0.647866  0  0.08483  0.056999  0  3.923806  0
C  C102  1  0.01256538  0.86989600  0.22407510  1  0.648053  0  0.084757  0.056846  0  3.924559  0
C  C103  1  0.63011149  0.48747232  0.27593190  1  0.648222  0  0.084614  0.056466  0  3.924805  0
C  C104  1  0.99637715  0.13831433  0.87337102  1  0.475323  0  0.111347  0.170432  0  4.059847  0
C  C105  1  0.36168040  0.50361905  0.62664602  1  0.473584  0  0.111432  0.170731  0  4.059662  0
C  C106  1  0.00364775  0.86164549  0.12664517  1  0.474546  0  0.111509  0.170769  0  4.059092  0
C  C107  1  0.63833119  0.49641150  0.37336177  1  0.474226  0  0.111441  0.170587  0  4.05948  0
C  C108  1  0.08167363  0.20128347  0.96023367  1  -0.009363  0  -0.072574  -0.149206  0  3.919304  0
C  C109  1  0.29871214  0.41832296  0.53978891  1  -0.007681  0  -0.072667  -0.149571  0  3.919567  0
C  C110  1  0.91833070  0.79868765  0.03978119  1  -0.008137  0  -0.072745  -0.149935  0  3.918355  0
C  C111  1  0.70132381  0.58169262  0.46023850  1  -0.008373  0  -0.072649  -0.149591  0  3.918676  0
C  C112  1  0.09127544  0.20506898  0.05227221  1  -0.048892  0  -0.060376  -0.003257  0  3.929134  0
C  C113  1  0.29494732  0.40871571  0.44775103  1  -0.050047  0  -0.060228  -0.002862  0  3.928648  0
C  C114  1  0.90873439  0.79487434  0.94772925  1  -0.050882  0  -0.060244  -0.002269  0  3.928659  0
C  C115  1  0.70511381  0.59127840  0.55228019  1  -0.050652  0  -0.060345  -0.002513  0  3.929059  0
C  C116  1  0.01552863  0.14720177  0.05527846  1  -0.062026  0  -0.078618  -0.121528  0  3.920834  0
C  C117  1  0.35283587  0.48446105  0.44475736  1  -0.060537  0  -0.07861  -0.121875  0  3.921182  0
C  C118  1  0.98445364  0.85278033  0.94473004  1  -0.061137  0  -0.078729  -0.122314  0  3.921078  0
C  C119  1  0.64722896  0.51554794  0.55527841  1  -0.061072  0  -0.078683  -0.122117  0  3.921219  0
C  C120  1  0.93213133  0.08738351  0.96520448  1  0.494437  0  0.051434  0.09569  0  3.959268  0
C  C121  1  0.41266659  0.56784652  0.53483486  1  0.493297  0  0.051638  0.096019  0  3.959203  0
C  C122  1  0.06786314  0.91258778  0.03480325  1  0.493707  0  0.051706  0.096244  0  3.958887  0
C  C123  1  0.58741884  0.43214599  0.46519352  1  0.494262  0  0.051654  0.096131  0  3.959058  0
C  C124  1  0.27443953  0.72776916  0.69989305  1  0.498753  0  0.050422  0.092131  0  3.963176  0
C  C125  1  0.77223349  0.22556431  0.80007692  1  0.498365  0  0.050444  0.092435  0  3.962878  0
C  C126  1  0.72557358  0.27226470  0.30010004  1  0.500428  0  0.05019  0.092006  0  3.963167  0
C  C127  1  0.22775707  0.77443889  0.19987317  1  0.500516  0  0.050493  0.092335  0  3.963393  0
C  C128  1  0.17686747  0.72514561  0.69588735  1  -0.076115  0  -0.079506  -0.122884  0  3.955859  0
C  C129  1  0.77486077  0.32313350  0.80406479  1  -0.075704  0  -0.079669  -0.123067  0  3.955972  0
C  C130  1  0.82314140  0.27483539  0.30409664  1  -0.07642  0  -0.079419  -0.122737  0  3.95589  0
C  C131  1  0.22513206  0.67687315  0.19587469  1  -0.076786  0  -0.079635  -0.123107  0  3.95627  0
C  C132  1  0.16566800  0.76656132  0.78542036  1  0.004019  0  -0.064176  -0.014382  0  3.950042  0
C  C133  1  0.73341919  0.33432897  0.71453911  1  0.006228  0  -0.064056  -0.014132  0  3.949789  0
C  C134  1  0.83433340  0.23339807  0.21456676  1  0.005264  0  -0.064221  -0.014449  0  3.950069  0
C  C135  1  0.26654705  0.66568029  0.28540401  1  0.006265  0  -0.064179  -0.014039  0  3.950554  0
C  C136  1  0.34805585  0.80819598  0.87333958  1  0.50901  0  0.117448  0.193915  0  4.019471  0
C  C137  1  0.69177957  0.15194249  0.62663419  1  0.509543  0  0.117296  0.193649  0  4.019329  0
C  C138  1  0.65194980  0.19181627  0.12665161  1  0.509047  0  0.117597  0.194053  0  4.018857  0
C  C139  1  0.30819503  0.84806256  0.37332233  1  0.508071  0  0.117485  0.194037  0  4.019318  0
C  C140  1  0.25239893  0.80938025  0.87535407  1  0.02681  0  -0.075329  -0.153222  0  3.908684  0
C  C141  1  0.69056595  0.24759489  0.62460746  1  0.025218  0  -0.075307  -0.153495  0  3.908473  0
C  C142  1  0.74760638  0.19055917  0.12463377  1  0.025556  0  -0.07528  -0.153163  0  3.908414  0
C  C143  1  0.30937530  0.75240395  0.37533282  1  0.027598  0  -0.075283  -0.15327  0  3.90914  0
C  C144  1  0.43848774  0.85591244  0.96774729  1  0.599864  0  0.077916  0.053823  0  3.885372  0
C  C145  1  0.64401972  0.06148593  0.53223807  1  0.600828  0  0.078077  0.054055  0  3.8854  0
C  C146  1  0.56150292  0.14406177  0.03225572  1  0.600693  0  0.077809  0.053643  0  3.885878  0
C  C147  1  0.35592830  0.93851727  0.46772873  1  0.599925  0  0.077998  0.053564  0  3.88527  0
C  C148  1  0.61410696  0.90437445  0.06617810  1  0.327414  0  0.081321  0.184076  0  4.03532  0
C  C149  1  0.59560661  0.88587037  0.43382823  1  0.327406  0  0.081358  0.184316  0  4.03555  0
C  C150  1  0.38589333  0.09564038  0.93383039  1  0.326859  0  0.081314  0.184297  0  4.034981  0
C  C151  1  0.40439227  0.11413007  0.56616218  1  0.325685  0  0.081373  0.18422  0  4.035445  0
C  C152  1  0.60801853  0.95076446  0.15902523  1  -0.002186  0  -0.084319  -0.124651  0  3.938797  0
C  C153  1  0.54923932  0.89194837  0.34098353  1  -0.002715  0  -0.084322  -0.124775  0  3.939304  0
C  C154  1  0.39198548  0.04926302  0.84098830  1  -0.001773  0  -0.084405  -0.124981  0  3.938945  0
C  C155  1  0.45074217  0.10804176  0.65900356  1  -0.002046  0  -0.08444  -0.124864  0  3.939113  0
C  C156  1  0.69423347  0.00441686  0.24665187  1  -0.011223  0  -0.102201  -0.193341  0  4.01226  0
C  C157  1  0.49556114  0.80574728  0.25335716  1  -0.011369  0  -0.102328  -0.193437  0  4.012696  0
C  C158  1  0.30577214  0.99559536  0.75336385  1  -0.011434  0  -0.10213  -0.193156  0  4.012284  0
C  C159  1  0.50443171  0.19424596  0.74663496  1  -0.01138  0  -0.10226  -0.193421  0  4.012216  0
C  C160  1  0.78872607  0.01303114  0.24323632  1  0.368642  0  0.084302  0.252633  0  4.050191  0
C  C161  1  0.48693729  0.71125909  0.25677709  1  0.369957  0  0.084383  0.252587  0  4.049837  0
C  C162  1  0.21127666  0.98695747  0.75676958  1  0.368928  0  0.084307  0.252516  0  4.050052  0
C  C163  1  0.51304711  0.28874649  0.74322708  1  0.370512  0  0.084352  0.252639  0  4.049625  0
C  C164  1  0.79634485  0.97012905  0.15189518  1  -0.031577  0  -0.105901  -0.198439  0  4.00263  0
C  C165  1  0.52983499  0.70363837  0.34811532  1  -0.032056  0  -0.105919  -0.198058  0  4.00203  0
C  C166  1  0.20366247  0.02985235  0.84811610  1  -0.030925  0  -0.105794  -0.198184  0  4.002236  0
C  C167  1  0.47016843  0.29636301  0.65188392  1  -0.032084  0  -0.10589  -0.198042  0  4.001971  0
C  C168  1  0.70966589  0.91495119  0.06437787  1  -0.000283  0  -0.085189  -0.12398  0  3.951714  0
C  C169  1  0.58502298  0.79030881  0.43563574  1  -0.001415  0  -0.085109  -0.124052  0  3.951442  0
C  C170  1  0.29033831  0.08504217  0.93563837  1  -0.000703  0  -0.085052  -0.124048  0  3.951259  0
C  C171  1  0.41497742  0.20969194  0.56435971  1  -0.001295  0  -0.085114  -0.124116  0  3.951607  0
N  N172  1  0.91505867  0.06891027  0.69202962  1  -1.205613  0  -0.279044  -0.243838  0  3.427178  0
N  N173  1  0.43107660  0.58495619  0.80798866  1  -1.205187  0  -0.27903  -0.243672  0  3.426902  0
N  N174  1  0.08494027  0.93107829  0.30797369  1  -1.205348  0  -0.279011  -0.24387  0  3.427016  0
N  N175  1  0.56893025  0.41510380  0.19203650  1  -1.205364  0  -0.278923  -0.243518  0  3.427236  0
N  N176  1  0.92235435  0.08293672  0.87656238  1  -1.225675  0  -0.29271  -0.268314  0  3.424775  0
N  N177  1  0.41708968  0.57763019  0.62346918  1  -1.225  0  -0.293028  -0.268794  0  3.424708  0
N  N178  1  0.07765357  0.91706855  0.12346495  1  -1.225356  0  -0.292993  -0.268804  0  3.424371  0
N  N179  1  0.58294717  0.42236480  0.37654007  1  -1.225253  0  -0.292896  -0.268683  0  3.424443  0
N  N180  1  0.35810070  0.76705426  0.78614047  1  -1.236879  0  -0.289573  -0.260295  0  3.415351  0
N  N181  1  0.73292422  0.14189442  0.71383692  1  -1.236837  0  -0.289447  -0.260114  0  3.414765  0
N  N182  1  0.64190033  0.23296741  0.21385428  1  -1.238286  0  -0.28944  -0.260185  0  3.414715  0
N  N183  1  0.26705957  0.85809771  0.28611956  1  -1.238011  0  -0.28949  -0.260298  0  3.415167  0
N  N184  1  0.52918056  0.85080488  0.97412447  1  -1.19869  0  -0.28356  -0.247426  0  3.413844  0
N  N185  1  0.64917978  0.97080541  0.52587440  1  -1.19874  0  -0.283726  -0.247754  0  3.414105  0
N  N186  1  0.47082044  0.14922049  0.02587910  1  -1.198553  0  -0.283699  -0.247494  0  3.413981  0
N  N187  1  0.35081523  0.02920908  0.47410821  1  -1.197251  0  -0.283619  -0.247297  0  3.413599  0
N  N188  1  0.89715192  0.79849009  0.64236289  1  0.791488  0  0.10102  0.716559  0  4.424491  0
N  N189  1  0.70152693  0.60283288  0.85768527  1  0.788576  0  0.101114  0.716672  0  4.424605  0
N  N190  1  0.10284221  0.20153083  0.35769152  1  0.789231  0  0.100918  0.716362  0  4.424742  0
N  N191  1  0.29845972  0.39717985  0.14231901  1  0.788711  0  0.101259  0.717033  0  4.423828  0
N  N192  1  0.66773320  0.97530973  0.86202922  1  0.80335  0  0.093435  0.700571  0  4.437846  0
N  N193  1  0.52467079  0.83226046  0.63795954  1  0.803064  0  0.093446  0.700303  0  4.437809  0
N  N194  1  0.33226190  0.02468845  0.13795595  1  0.804342  0  0.093398  0.700271  0  4.439025  0
N  N195  1  0.47530688  0.16774153  0.36198125  1  0.802028  0  0.093154  0.700424  0  4.437808  0
O  O196  1  0.87645202  0.06803726  0.32840088  1  -1.091227  0  -0.14825  -0.207384  0  2.559111  0
O  O197  1  0.43196525  0.62352229  0.17161866  1  -1.091576  0  -0.148144  -0.207058  0  2.558986  0
O  O198  1  0.12354754  0.93197147  0.67161594  1  -1.091577  0  -0.148223  -0.207329  0  2.559258  0
O  O199  1  0.56802149  0.37647411  0.82838502  1  -1.092101  0  -0.148185  -0.207109  0  2.559481  0
O  O200  1  0.92972803  0.86140065  0.73413355  1  -0.555453  0  -0.191683  -0.471783  0  1.981508  0
O  O201  1  0.63861151  0.57025083  0.76592161  1  -0.554963  0  -0.191862  -0.471991  0  1.981851  0
O  O202  1  0.07022600  0.13859481  0.26592896  1  -0.554619  0  -0.1918  -0.472  0  1.981917  0
O  O203  1  0.36138794  0.42977868  0.23408035  1  -0.554911  0  -0.191888  -0.47215  0  1.981738  0
O  O204  1  0.81718694  0.80942102  0.57808942  1  -0.588298  0  -0.190494  -0.475274  0  2.017381  0
O  O205  1  0.69055960  0.68280222  0.92191690  1  -0.588245  0  -0.190332  -0.475142  0  2.01762  0
O  O206  1  0.18282332  0.19057583  0.42192824  1  -0.588539  0  -0.190323  -0.474908  0  2.017353  0
O  O207  1  0.30941799  0.31720343  0.07807612  1  -0.587882  0  -0.190537  -0.475335  0  2.017128  0
O  O208  1  0.94005050  0.72732461  0.61474559  1  -0.500553  0  -0.188547  -0.434947  0  1.913513  0
O  O209  1  0.77268977  0.55993403  0.88533603  1  -0.498237  0  -0.188642  -0.435081  0  1.913036  0
O  O210  1  0.05996027  0.27270050  0.38534374  1  -0.498761  0  -0.188501  -0.434918  0  1.913223  0
O  O211  1  0.22728404  0.44006337  0.11468240  1  -0.498764  0  -0.188648  -0.435213  0  1.912884  0
O  O212  1  0.72843510  0.91416843  0.85631847  1  -0.553522  0  -0.188364  -0.481151  0  1.981808  0
O  O213  1  0.58581955  0.77156266  0.64370372  1  -0.553823  0  -0.188387  -0.481056  0  1.981553  0
O  O214  1  0.27153887  0.08580824  0.14367142  1  -0.55369  0  -0.188381  -0.480987  0  1.982048  0
O  O215  1  0.41418301  0.22845935  0.35628034  1  -0.553673  0  -0.188211  -0.48095  0  1.982293  0
O  O216  1  0.69150902  0.06327557  0.86891609  1  -0.557937  0  -0.189557  -0.460925  0  1.95434  0
O  O217  1  0.43669697  0.80847885  0.63104408  1  -0.557692  0  -0.189572  -0.460893  0  1.954344  0
O  O218  1  0.30847711  0.93670815  0.13102507  1  -0.558464  0  -0.189577  -0.460907  0  1.954952  0
O  O219  1  0.56327759  0.19153660  0.36889653  1  -0.557505  0  -0.189551  -0.461052  0  1.954324  0
O  O220  1  0.58332258  0.94758231  0.86015971  1  -0.555177  0  -0.167342  -0.433952  0  2.0503  0
O  O221  1  0.55237608  0.91668041  0.63982783  1  -0.554974  0  -0.167317  -0.433775  0  2.050301  0
O  O222  1  0.41666566  0.05242261  0.13981032  1  -0.555349  0  -0.167251  -0.433803  0  2.050714  0
O  O223  1  0.44758404  0.08333350  0.36012485  1  -0.554429  0  -0.167225  -0.433876  0  2.049989  0
