# generated using pymatgen
data_CuH10C6S2(NO2)4
_symmetry_space_group_name_H-M   'P 1'
_cell_length_a   7.12821120
_cell_length_b   7.33014771
_cell_length_c   13.31382573
_cell_angle_alpha   90.00349008
_cell_angle_beta   90.00204975
_cell_angle_gamma   115.03438288
_symmetry_Int_Tables_number   1
_chemical_formula_structural   CuH10C6S2(NO2)4
_chemical_formula_sum   'Cu2 H20 C12 S4 N8 O16'
_cell_volume   630.30425568
_cell_formula_units_Z   2
loop_
 _symmetry_equiv_pos_site_id
 _symmetry_equiv_pos_as_xyz
  1  'x, y, z'
loop_
 _atom_site_type_symbol
 _atom_site_label
 _atom_site_symmetry_multiplicity
 _atom_site_fract_x
 _atom_site_fract_y
 _atom_site_fract_z
 _atom_site_occupancy
 _atom_site_hle17_ddec_charge
 _atom_site_hle17_ddec_spin_density
 _atom_site_hle17_ddec_sum_bond_order
 _atom_site_hle17_magmom
 _atom_site_hse06_10hf_bader_charge
 _atom_site_hse06_10hf_bader_spin_density
 _atom_site_hse06_10hf_ddec_charge
 _atom_site_hse06_10hf_ddec_spin_density
 _atom_site_hse06_10hf_ddec_sum_bond_order
 _atom_site_hse06_10hf_magmom
 _atom_site_hse06_ddec_charge
 _atom_site_hse06_ddec_spin_density
 _atom_site_hse06_ddec_sum_bond_order
 _atom_site_hse06_magmom
 _atom_site_pbe_cm5_charge
 _atom_site_pbe_ddec_charge
 _atom_site_pbe_ddec_spin_density
 _atom_site_pbe_ddec_sum_bond_order
 _atom_site_pbe_magmom
Cu  Cu0  1  0.00000240  0.49998963  0.49999556  1  0.963568  0.742516  1.769501  0.585  1.201531  0.696664  0.945042  0.820703  2.152162  0.693  1.014055  0.871272  2.104836  0.765  0.780182  0.893007  0.782007  2.194201  0.642
Cu  Cu1  1  0.50000258  0.49999716  0.99999555  1  0.963541  0.742485  1.769309  0.584  1.201667  0.696653  0.945052  0.820693  2.151995  0.693  1.014103  0.871263  2.104685  0.765  0.780087  0.893071  0.782001  2.193969  0.642
H  H2  1  0.47843302  0.25876243  0.81793987  1  0.310522  -0.000555  0.866153  0.0  0.538693  -0.000109  0.294378  -0.000222  0.918119  0.0  0.301793  -0.000196  0.91242  0.0  0.34563  0.288971  -0.000218  0.922392  0.0
H  H3  1  0.02156752  0.74125423  0.31796431  1  0.310539  -0.000556  0.866267  0.0  0.538529  -0.000109  0.29424  -0.000222  0.918344  0.0  0.301668  -0.000196  0.912646  0.0  0.345616  0.288818  -0.000218  0.922623  0.0
H  H4  1  0.52156226  0.74123197  0.18205691  1  0.310659  -0.000556  0.866155  0.0  0.538672  -0.000109  0.294436  -0.000222  0.918235  0.0  0.30185  -0.000196  0.912538  0.0  0.345687  0.289027  -0.000218  0.922506  0.0
H  H5  1  0.97843214  0.25873725  0.68204599  1  0.310567  -0.000556  0.86608  0.0  0.538601  -0.000109  0.294307  -0.000222  0.918089  0.0  0.301733  -0.000196  0.912394  0.0  0.34563  0.288886  -0.000218  0.922368  0.0
H  H6  1  0.48511971  0.34717481  0.62935027  1  0.147591  0.00055  0.942624  0.001  0.206682  0.000697  0.156823  0.000354  1.001527  0.001  0.160218  0.000264  0.997754  0.0  0.134866  0.154115  0.000425  1.004467  0.001
H  H7  1  0.01489589  0.65287248  0.12937006  1  0.147692  0.000552  0.942602  0.001  0.206638  0.000697  0.156852  0.000354  1.001588  0.001  0.160242  0.000264  0.997808  0.0  0.134907  0.154146  0.000424  1.004533  0.001
H  H8  1  0.51487251  0.65283898  0.37064200  1  0.147667  0.000551  0.942677  0.001  0.206453  0.000697  0.15682  0.000355  1.001662  0.001  0.160208  0.000264  0.997889  0.0  0.134931  0.154112  0.000425  1.0046  0.001
H  H9  1  0.98510587  0.34713399  0.87063423  1  0.147589  0.000553  0.942697  0.001  0.206626  0.000697  0.156804  0.000355  1.001602  0.001  0.160202  0.000264  0.997824  0.0  0.134898  0.154097  0.000425  1.004549  0.001
H  H10  1  0.49441117  0.82078859  0.82946021  1  0.121543  -3.6e-05  0.935837  0.0  0.155494  0.000362  0.130249  7.6e-05  0.995427  0.0  0.133225  4.2e-05  0.991735  0.0  0.129584  0.127896  0.000112  0.998268  0.0
H  H11  1  0.00558280  0.17922387  0.32943810  1  0.12142  -3.4e-05  0.935818  0.0  0.156099  0.000362  0.130188  7.6e-05  0.99537  0.0  0.133164  4.2e-05  0.991682  0.0  0.129486  0.127833  0.000112  0.998216  0.0
H  H12  1  0.50558958  0.17923879  0.17054483  1  0.121638  -3.4e-05  0.9361  0.0  0.155187  0.000363  0.130395  7.6e-05  0.995563  0.0  0.133368  4.2e-05  0.991874  0.0  0.129691  0.128046  0.000113  0.998398  0.0
H  H13  1  0.99441252  0.82074063  0.67056619  1  0.121691  -3.3e-05  0.936016  0.0  0.155328  0.000363  0.130374  7.6e-05  0.995601  0.0  0.133348  4.2e-05  0.991915  0.0  0.129621  0.12802  0.000113  0.998446  0.0
H  H14  1  0.88959119  0.11250510  0.53055276  1  0.44027  -0.000284  0.856073  0.0  0.673552  0.000268  0.412141  0.000407  0.915058  0.001  0.423708  0.000253  0.898373  0.001  0.302308  0.403719  0.000528  0.927158  0.001
H  H15  1  0.61042065  0.88750087  0.03056134  1  0.440369  -0.000285  0.855969  0.0  0.673562  0.000268  0.412234  0.000407  0.914973  0.001  0.423804  0.000253  0.898281  0.001  0.302297  0.403811  0.000528  0.927074  0.001
H  H16  1  0.11040799  0.88748189  0.46944777  1  0.440297  -0.000285  0.856077  0.0  0.673526  0.000266  0.412163  0.000406  0.915073  0.001  0.423737  0.000252  0.898378  0.001  0.302312  0.40374  0.000527  0.927175  0.001
H  H17  1  0.38957307  0.11249650  0.96943393  1  0.440402  -0.000285  0.855943  0.0  0.67357  0.000266  0.412269  0.000406  0.914944  0.001  0.423849  0.000252  0.898238  0.001  0.302293  0.403844  0.000526  0.92705  0.001
H  H18  1  0.13138188  0.21536320  0.49601411  1  0.44216  -0.000244  0.855549  0.0  0.667207  0.00023  0.414319  0.000398  0.913884  0.001  0.425478  0.000231  0.898007  0.0  0.300651  0.406231  0.000527  0.925351  0.001
H  H19  1  0.36861607  0.78461086  0.99604389  1  0.442083  -0.000245  0.855678  0.0  0.66768  0.000227  0.414269  0.000397  0.913977  0.001  0.425433  0.00023  0.898093  0.0  0.300666  0.40618  0.000527  0.925444  0.001
H  H20  1  0.86862592  0.78462094  0.50397891  1  0.442158  -0.000242  0.855577  0.0  0.66741  0.00023  0.414284  0.000399  0.913936  0.001  0.425427  0.000232  0.898084  0.0  0.300724  0.406203  0.000529  0.925393  0.001
H  H21  1  0.63137327  0.21538943  0.00394989  1  0.442166  -0.000243  0.855604  0.0  0.66766  0.000227  0.414328  0.000398  0.913934  0.001  0.425481  0.00023  0.898066  0.0  0.300695  0.406242  0.000527  0.925394  0.001
C  C22  1  0.48152229  0.44208413  0.69142192  1  0.091458  -0.005248  3.580028  -0.002  0.394157  -0.001163  0.028069  -0.001543  3.846888  0.0  0.041789  -0.002468  3.855947  -0.001  0.043168  0.019181  -0.000845  3.840943  0.001
C  C23  1  0.01848417  0.55794777  0.19142501  1  0.091517  -0.005288  3.580247  -0.002  0.393696  -0.001171  0.027947  -0.00155  3.846971  0.0  0.041704  -0.002469  3.856018  -0.001  0.042956  0.019052  -0.000845  3.841036  0.001
C  C24  1  0.51850953  0.55794376  0.30857711  1  0.091434  -0.005269  3.579973  -0.002  0.394366  -0.001168  0.028065  -0.001548  3.846815  0.0  0.041801  -0.002471  3.855853  -0.001  0.043122  0.019176  -0.000848  3.84087  0.001
C  C25  1  0.98150087  0.44203899  0.80857327  1  0.091614  -0.005283  3.580413  -0.002  0.393476  -0.001173  0.02804  -0.001553  3.847141  0.0  0.041786  -0.002467  3.856197  -0.001  0.043014  0.019134  -0.000846  3.841201  0.001
C  C26  1  0.49091865  0.63621729  0.69399033  1  -0.253686  0.004137  3.766937  0.005  -0.069317  0.002969  -0.227457  0.001719  4.036374  0.002  -0.243238  0.00137  4.057382  0.002  -0.041399  -0.217466  0.002143  4.022605  0.003
C  C27  1  0.00907785  0.36382384  0.19396934  1  -0.253944  0.004157  3.766927  0.005  -0.069129  0.002982  -0.227385  0.001728  4.036  0.002  -0.243155  0.00137  4.056987  0.002  -0.041338  -0.217446  0.002144  4.022302  0.003
C  C28  1  0.50908988  0.36379527  0.30598918  1  -0.25374  0.004148  3.767539  0.005  -0.068106  0.002967  -0.227321  0.001719  4.036629  0.002  -0.243106  0.001367  4.057636  0.002  -0.041301  -0.217323  0.002142  4.022854  0.003
C  C29  1  0.99092658  0.63618566  0.80600040  1  -0.253825  0.004139  3.767852  0.005  -0.067769  0.002982  -0.227466  0.001728  4.037175  0.002  -0.243248  0.001367  4.058174  0.002  -0.041286  -0.217469  0.002142  4.023406  0.003
C  C30  1  0.48997848  0.68455749  0.79604446  1  0.079054  -0.006934  3.690711  -0.002  0.474897  -0.000859  0.028763  -0.001715  3.971374  0.001  0.042491  -0.003135  3.983465  -0.001  0.035267  0.019885  -0.000666  3.962723  0.002
C  C31  1  0.01002250  0.31547054  0.29603084  1  0.079256  -0.006976  3.689996  -0.002  0.475532  -0.000868  0.028749  -0.001723  3.970712  0.001  0.042476  -0.00314  3.982811  -0.001  0.035387  0.019873  -0.00067  3.96208  0.002
C  C32  1  0.51001329  0.31542190  0.20395833  1  0.078983  -0.006949  3.691737  -0.002  0.475312  -0.000856  0.028571  -0.001712  3.972435  0.001  0.042297  -0.00313  3.984535  -0.001  0.035117  0.019696  -0.000664  3.963781  0.002
C  C33  1  0.98998073  0.68454941  0.70397495  1  0.079126  -0.006951  3.691517  -0.002  0.475526  -0.000861  0.028724  -0.001716  3.972193  0.001  0.042451  -0.003128  3.984283  -0.001  0.035352  0.019846  -0.000663  3.963552  0.002
S  S34  1  0.50893891  0.79797385  0.59352777  1  1.3608  -0.000162  5.649648  0.0  3.29418  0.000629  1.26426  0.000402  6.170611  0.001  1.313627  0.000283  6.145948  0.0  0.518493  1.229826  0.000522  6.186365  0.001
S  S35  1  0.99106373  0.20204977  0.09350732  1  1.361089  -0.00017  5.650408  0.0  3.293746  0.000626  1.264408  0.000398  6.171327  0.001  1.313791  0.000283  6.146659  0.0  0.518482  1.229993  0.000522  6.187086  0.001
S  S36  1  0.49107371  0.20204177  0.40645624  1  1.36054  -0.000166  5.647906  0.0  3.292152  0.000633  1.26412  0.000405  6.168717  0.001  1.313517  0.000283  6.144037  0.0  0.518529  1.229667  0.000523  6.184474  0.001
S  S37  1  0.00891532  0.79792941  0.90647519  1  1.360767  -0.000171  5.648142  0.0  3.29174  0.000628  1.264258  0.000401  6.169024  0.001  1.313665  0.000285  6.144337  0.0  0.518595  1.229809  0.000522  6.184788  0.001
N  N38  1  0.47991142  0.52972724  0.85261448  1  -0.229223  0.067892  3.230234  0.091  -0.731324  0.070284  -0.212217  0.044314  3.554407  0.063  -0.237676  0.034984  3.575905  0.053  -0.274003  -0.194821  0.050377  3.539568  0.068
N  N39  1  0.02008502  0.47029055  0.35262513  1  -0.22909  0.067901  3.230157  0.091  -0.732057  0.070287  -0.212185  0.044313  3.554277  0.063  -0.237617  0.034985  3.575776  0.053  -0.27403  -0.194786  0.050375  3.539418  0.068
N  N40  1  0.52007704  0.47024761  0.14740032  1  -0.229032  0.067907  3.230174  0.091  -0.731427  0.070287  -0.211992  0.044315  3.55429  0.063  -0.237456  0.034981  3.575802  0.053  -0.273851  -0.194591  0.050383  3.539444  0.068
N  N41  1  0.97990939  0.52972178  0.64740244  1  -0.229031  0.067895  3.230086  0.091  -0.731196  0.070277  -0.21209  0.044306  3.554044  0.063  -0.237526  0.034972  3.575547  0.053  -0.273937  -0.194689  0.050373  3.539186  0.068
N  N42  1  0.47425624  0.38486003  0.78784169  1  -0.136185  0.00282  3.465315  0.003  -0.847605  0.003534  -0.071303  0.001681  3.70819  0.002  -0.082157  0.00123  3.726073  0.001  -0.274385  -0.064171  0.002044  3.695926  0.002
N  N43  1  0.02575128  0.61516826  0.28785890  1  -0.136418  0.002835  3.465159  0.003  -0.847403  0.003534  -0.071082  0.001682  3.707703  0.002  -0.082  0.00123  3.725623  0.001  -0.274295  -0.063907  0.002045  3.695397  0.002
N  N44  1  0.52575073  0.61515549  0.21215509  1  -0.136277  0.002823  3.465241  0.003  -0.847499  0.003529  -0.071382  0.001679  3.708164  0.002  -0.082234  0.001227  3.726036  0.001  -0.274399  -0.064251  0.002043  3.695902  0.002
N  N45  1  0.97424605  0.38482767  0.71215065  1  -0.136485  0.002831  3.465564  0.003  -0.847643  0.00353  -0.071171  0.001679  3.708061  0.002  -0.082081  0.001227  3.725985  0.001  -0.274314  -0.064002  0.002043  3.695765  0.002
O  O46  1  0.73164843  0.88044085  0.56179059  1  -0.719881  0.004555  2.02688  0.007  -1.370525  0.003119  -0.652151  0.00186  2.261167  0.003  -0.67513  0.001001  2.243963  0.001  -0.346502  -0.635581  0.003033  2.272807  0.004
O  O47  1  0.76837023  0.11959277  0.06174960  1  -0.719879  0.00455  2.027118  0.007  -1.370439  0.003118  -0.652137  0.001859  2.261433  0.003  -0.675148  0.001002  2.244237  0.001  -0.34647  -0.635571  0.003032  2.273066  0.004
O  O48  1  0.26830938  0.11952453  0.43821745  1  -0.719761  0.004557  2.0258  0.007  -1.370132  0.003124  -0.652181  0.001863  2.260176  0.003  -0.675212  0.001001  2.242981  0.001  -0.346541  -0.635602  0.003035  2.271824  0.004
O  O49  1  0.23166788  0.88043672  0.93826821  1  -0.719816  0.00456  2.02581  0.007  -1.370162  0.003121  -0.652186  0.001861  2.260171  0.003  -0.675243  0.001002  2.242989  0.001  -0.346632  -0.635607  0.003035  2.27182  0.004
O  O50  1  0.37444409  0.67213403  0.51395069  1  -0.684082  0.001734  2.018947  0.005  -1.367739  0.000476  -0.652469  -0.000354  2.299114  0.002  -0.674493  -0.001051  2.282052  0.001  -0.343562  -0.635431  0.000744  2.309851  0.003
O  O51  1  0.12557246  0.32790482  0.01394643  1  -0.684169  0.001738  2.018753  0.005  -1.367169  0.00048  -0.652591  -0.000353  2.299041  0.002  -0.674625  -0.001052  2.281978  0.001  -0.343651  -0.635533  0.000745  2.3097  0.003
O  O52  1  0.62556308  0.32789197  0.48606187  1  -0.68402  0.001742  2.018289  0.005  -1.367096  0.000481  -0.652567  -0.000353  2.298624  0.002  -0.674594  -0.00105  2.281549  0.001  -0.343634  -0.635546  0.000747  2.309416  0.003
O  O53  1  0.87441259  0.67208194  0.98606988  1  -0.684229  0.001752  2.018195  0.005  -1.366489  0.000477  -0.652698  -0.000355  2.298496  0.002  -0.67473  -0.001055  2.281416  0.001  -0.343687  -0.635683  0.000747  2.309277  0.003
O  O54  1  0.45601967  0.95328700  0.63496130  1  -0.637749  0.000991  1.889853  0.001  -1.350788  0.000273  -0.598928  0.000131  2.128187  0.0  -0.619515  7e-06  2.115726  0.0  -0.346468  -0.584121  0.000436  2.136143  0.001
O  O55  1  0.04396937  0.04675629  0.13493613  1  -0.637769  0.000994  1.890758  0.001  -1.351125  0.000271  -0.598897  0.000129  2.129073  0.0  -0.619483  6e-06  2.116612  0.0  -0.346305  -0.58409  0.000435  2.137007  0.001
O  O56  1  0.54399475  0.04670622  0.36503248  1  -0.637666  0.000992  1.889613  0.001  -1.350817  0.000269  -0.598876  0.000128  2.127927  0.0  -0.619469  7e-06  2.115456  0.0  -0.346407  -0.584066  0.000436  2.135885  0.001
O  O57  1  0.95602932  0.95326957  0.86505614  1  -0.637586  0.000986  1.890037  0.001  -1.350876  0.000273  -0.598731  0.000131  2.128342  0.0  -0.619322  8e-06  2.115873  0.0  -0.346273  -0.583923  0.000436  2.136294  0.001
O  O58  1  0.01992581  0.24079692  0.53126858  1  -0.814501  0.059557  1.960751  0.087  -1.268494  0.070968  -0.787067  0.042152  2.181381  0.065  -0.817195  0.03156  2.146918  0.053  -0.573849  -0.764809  0.049839  2.205506  0.073
O  O59  1  0.48010008  0.75920456  0.03128875  1  -0.814599  0.059555  1.960847  0.087  -1.269104  0.070967  -0.787199  0.042151  2.181438  0.065  -0.817356  0.031559  2.147014  0.053  -0.573885  -0.764951  0.049837  2.20555  0.073
O  O60  1  0.98006382  0.75919739  0.46873571  1  -0.814525  0.059539  1.960827  0.087  -1.268739  0.070958  -0.787019  0.042144  2.181482  0.065  -0.817156  0.031555  2.147047  0.053  -0.573948  -0.764765  0.04983  2.205602  0.073
O  O61  1  0.51991590  0.24078570  0.96870953  1  -0.814601  0.059548  1.960748  0.087  -1.268973  0.070965  -0.787193  0.04215  2.181361  0.065  -0.817328  0.03156  2.146888  0.053  -0.573889  -0.76495  0.049834  2.205493  0.073
