# generated using pymatgen
data_ZnPH7C9N2O3
_symmetry_space_group_name_H-M   'P 1'
_cell_length_a   5.16591096
_cell_length_b   11.25643239
_cell_length_c   17.74239408
_cell_angle_alpha   102.55543938
_cell_angle_beta   89.99999497
_cell_angle_gamma   89.99999036
_symmetry_Int_Tables_number   1
_chemical_formula_structural   ZnPH7C9N2O3
_chemical_formula_sum   'Zn4 P4 H28 C36 N8 O12'
_cell_volume   1007.04306553
_cell_formula_units_Z   4
loop_
 _symmetry_equiv_pos_site_id
 _symmetry_equiv_pos_as_xyz
  1  'x, y, z'
loop_
 _atom_site_type_symbol
 _atom_site_label
 _atom_site_symmetry_multiplicity
 _atom_site_fract_x
 _atom_site_fract_y
 _atom_site_fract_z
 _atom_site_occupancy
 _atom_site_hle17_bader_spin_density
 _atom_site_hle17_ddec_charge
 _atom_site_hle17_ddec_spin_density
 _atom_site_hle17_ddec_sum_bond_order
 _atom_site_hle17_magmom
 _atom_site_hse06_10hf_bader_spin_density
 _atom_site_hse06_10hf_ddec_charge
 _atom_site_hse06_10hf_ddec_spin_density
 _atom_site_hse06_10hf_ddec_sum_bond_order
 _atom_site_hse06_10hf_magmom
 _atom_site_hse06_bader_spin_density
 _atom_site_hse06_ddec_charge
 _atom_site_hse06_ddec_spin_density
 _atom_site_hse06_ddec_sum_bond_order
 _atom_site_hse06_magmom
 _atom_site_pbe_bader_spin_density
 _atom_site_pbe_cm5_charge
 _atom_site_pbe_ddec_charge
 _atom_site_pbe_ddec_spin_density
 _atom_site_pbe_ddec_sum_bond_order
 _atom_site_pbe_magmom
Zn  Zn0  1  0.91126025  0.17749970  0.69598497  1  0  1.154532  0  1.825369  0  0  0.979468  0  2.297979  0  0  1.022529  0  2.239336  0  0  0.719694  0.949124  0  2.338417  0
Zn  Zn1  1  0.41126126  0.32250049  0.80401513  1  0  1.154542  0  1.825384  0  0  0.979483  0  2.298002  0  0  1.022552  0  2.239354  0  0  0.7197  0.949132  0  2.338445  0
Zn  Zn2  1  0.08873923  0.82250055  0.30401489  1  0  1.154518  0  1.825426  0  0  0.979455  0  2.298048  0  0  1.022519  0  2.239402  0  0  0.719684  0.949112  0  2.338505  0
Zn  Zn3  1  0.58873822  0.67749976  0.19598473  1  0  1.154519  0  1.825381  0  0  0.979454  0  2.298006  0  0  1.022518  0  2.239352  0  0  0.719692  0.949114  0  2.338458  0
P  P4  1  0.92301222  0.46329876  0.77447102  1  0  1.445456  0  4.901612  0  0  1.286662  0  5.391697  0  0  1.3374  0  5.35357  0  0  0.336011  1.251212  0  5.417489  0
P  P5  1  0.42300950  0.03670143  0.72552851  1  0  1.445515  0  4.901667  0  0  1.286716  0  5.391761  0  0  1.337453  0  5.353637  0  0  0.336012  1.251263  0  5.417558  0
P  P6  1  0.07698919  0.53670149  0.22552827  1  0  1.44546  0  4.90174  0  0  1.28666  0  5.391841  0  0  1.337396  0  5.353718  0  0  0.335985  1.251207  0  5.41764  0
P  P7  1  0.57698998  0.96329883  0.27447135  1  0  1.44546  0  4.901599  0  0  1.286693  0  5.391681  0  0  1.337428  0  5.353557  0  0  0.336027  1.25125  0  5.417462  0
H  H8  1  0.35045294  0.89552660  0.58345852  1  0  0.328644  0  0.937208  0  0  0.304084  0  1.004879  0  0  0.313525  0  0.997374  0  0  0.304225  0.297483  0  1.01012  0
H  H9  1  0.85045382  0.60447334  0.91654178  1  0  0.328662  0  0.93722  0  0  0.304104  0  1.004885  0  0  0.313548  0  0.997378  0  0  0.304239  0.297503  0  1.010122  0
H  H10  1  0.64954654  0.10447275  0.41654178  1  0  0.328676  0  0.9372  0  0  0.304117  0  1.004864  0  0  0.313561  0  0.997358  0  0  0.304249  0.297518  0  1.010097  0
H  H11  1  0.14954566  0.39552691  0.08345808  1  0  0.328664  0  0.937214  0  0  0.304091  0  1.004891  0  0  0.313543  0  0.997381  0  0  0.304228  0.297493  0  1.010126  0
H  H12  1  0.31930454  0.63977746  0.75302813  1  0  0.10305  0  0.946198  0  0  0.112928  0  1.007936  0  0  0.115428  0  1.007641  0  0  0.104768  0.111103  0  1.008237  0
H  H13  1  0.81930537  0.86022340  0.74697229  1  0  0.103049  0  0.946198  0  0  0.112931  0  1.007934  0  0  0.11544  0  1.007631  0  0  0.104769  0.111105  0  1.008237  0
H  H14  1  0.68069494  0.36022280  0.24697173  1  0  0.103044  0  0.946204  0  0  0.112923  0  1.007943  0  0  0.115424  0  1.007649  0  0  0.104762  0.111099  0  1.008242  0
H  H15  1  0.18069411  0.13977686  0.25302813  1  0  0.103027  0  0.946206  0  0  0.112902  0  1.007945  0  0  0.115405  0  1.007653  0  0  0.104757  0.111077  0  1.008245  0
H  H16  1  0.38015149  0.75955861  0.65343391  1  0  0.098512  0  0.978388  0  0  0.107301  0  1.043685  0  0  0.110183  0  1.043095  0  0  0.102409  0.105242  0  1.044176  0
H  H17  1  0.88015234  0.74044132  0.84656526  1  0  0.098501  0  0.978394  0  0  0.107296  0  1.043689  0  0  0.110179  0  1.043098  0  0  0.102407  0.105239  0  1.044181  0
H  H18  1  0.61984799  0.24044164  0.34656538  1  0  0.098509  0  0.978342  0  0  0.107305  0  1.04363  0  0  0.110188  0  1.043039  0  0  0.102399  0.105246  0  1.044116  0
H  H19  1  0.11984907  0.25955893  0.15343460  1  0  0.098512  0  0.978398  0  0  0.1073  0  1.043696  0  0  0.110182  0  1.043104  0  0  0.102408  0.105242  0  1.044184  0
H  H20  1  0.69467497  0.59510322  0.53522182  1  0  0.090966  0  0.945222  0  0  0.105185  0  1.000653  0  0  0.108042  0  0.999971  0  0  0.101405  0.103159  0  1.00122  0
H  H21  1  0.19467590  0.90489764  0.96477860  1  0  0.090985  0  0.945182  0  0  0.105202  0  1.000614  0  0  0.108061  0  0.99993  0  0  0.10141  0.103176  0  1.00118  0
H  H22  1  0.30532451  0.40489703  0.46477804  1  0  0.090974  0  0.945219  0  0  0.105194  0  1.000648  0  0  0.10805  0  0.999966  0  0  0.101408  0.103168  0  1.001212  0
H  H23  1  0.80532551  0.09510261  0.03522182  1  0  0.090977  0  0.945209  0  0  0.105197  0  1.000638  0  0  0.108053  0  0.999959  0  0  0.101414  0.103172  0  1.001201  0
H  H24  1  0.63532629  0.47624508  0.63595686  1  0  0.09197  0  0.950673  0  0  0.104499  0  1.00811  0  0  0.107076  0  1.007171  0  0  0.101837  0.102614  0  1.00886  0
H  H25  1  0.13532740  0.02375513  0.86404324  1  0  0.091972  0  0.950636  0  0  0.104502  0  1.008073  0  0  0.10708  0  1.007133  0  0  0.101834  0.10262  0  1.008826  0
H  H26  1  0.36467319  0.52375517  0.36404299  1  0  0.091971  0  0.950676  0  0  0.104501  0  1.008113  0  0  0.107079  0  1.007174  0  0  0.101837  0.102619  0  1.008868  0
H  H27  1  0.86467208  0.97624512  0.13595718  1  0  0.091987  0  0.950661  0  0  0.104517  0  1.008092  0  0  0.107095  0  1.007152  0  0  0.101842  0.102636  0  1.008846  0
H  H28  1  0.35971947  0.96359946  0.45345761  1  0  0.098636  0  0.976683  0  0  0.106847  0  1.041143  0  0  0.10958  0  1.038076  0  0  0.134218  0.104808  0  1.043358  0
H  H29  1  0.85971855  0.53639992  0.04654244  1  0  0.098683  0  0.976674  0  0  0.106893  0  1.041134  0  0  0.109626  0  1.038067  0  0  0.134231  0.104855  0  1.04335  0
H  H30  1  0.64028195  0.03639989  0.54654268  1  0  0.098691  0  0.976656  0  0  0.106916  0  1.041099  0  0  0.10965  0  1.03803  0  0  0.134239  0.104879  0  1.043313  0
H  H31  1  0.14028093  0.46359942  0.95345729  1  0  0.098685  0  0.97666  0  0  0.106899  0  1.041114  0  0  0.109632  0  1.038047  0  0  0.134238  0.104862  0  1.043328  0
H  H32  1  0.86361517  0.66100264  0.41976877  1  0  0.111599  0  0.953786  0  0  0.123557  0  1.010225  0  0  0.125929  0  1.009691  0  0  0.119459  0.121835  0  1.010715  0
H  H33  1  0.36361625  0.83899765  0.08023084  1  0  0.111609  0  0.953786  0  0  0.123569  0  1.01022  0  0  0.125941  0  1.009687  0  0  0.119461  0.121846  0  1.010714  0
H  H34  1  0.13638431  0.33899761  0.58023109  1  0  0.111613  0  0.953784  0  0  0.12357  0  1.010221  0  0  0.125943  0  1.009687  0  0  0.119457  0.121846  0  1.01071  0
H  H35  1  0.63638324  0.16100260  0.91976901  1  0  0.111608  0  0.95378  0  0  0.123567  0  1.010216  0  0  0.12594  0  1.009682  0  0  0.119464  0.121843  0  1.010705  0
C  C36  1  0.97590512  0.54798386  0.70043057  1  0  -0.254558  0  3.776723  0  0  -0.212241  0  4.015713  0  0  -0.223667  0  4.039371  0  0  -0.030305  -0.204595  0  3.999856  0
C  C37  1  0.47590609  0.95201698  0.79956984  1  0  -0.254531  0  3.776677  0  0  -0.212217  0  4.015679  0  0  -0.223645  0  4.039341  0  0  -0.030299  -0.204571  0  3.999826  0
C  C38  1  0.02409436  0.45201639  0.29956929  1  0  -0.254532  0  3.776634  0  0  -0.212213  0  4.015629  0  0  -0.223639  0  4.039287  0  0  -0.030312  -0.204565  0  3.999772  0
C  C39  1  0.52409533  0.04798327  0.20043002  1  0  -0.254462  0  3.776618  0  0  -0.212205  0  4.015686  0  0  -0.223631  0  4.039342  0  0  -0.030292  -0.20456  0  3.999832  0
C  C40  1  0.18313882  0.62967196  0.70509857  1  0  -0.023478  0  3.739524  0  0  -0.04564  0  3.98416  0  0  -0.04449  0  4.005576  0  0  -0.077043  -0.046295  0  3.969679  0
C  C41  1  0.68313964  0.87032890  0.79490130  1  0  -0.023484  0  3.739495  0  0  -0.045656  0  3.984138  0  0  -0.044511  0  4.005551  0  0  -0.077048  -0.046305  0  3.969652  0
C  C42  1  0.81686066  0.37032920  0.29490142  1  0  -0.023516  0  3.739485  0  0  -0.045686  0  3.984133  0  0  -0.044535  0  4.005549  0  0  -0.077059  -0.046342  0  3.969652  0
C  C43  1  0.31686178  0.12967135  0.20509856  1  0  -0.023478  0  3.739429  0  0  -0.04562  0  3.98408  0  0  -0.044473  0  4.0055  0  0  -0.07703  -0.046269  0  3.969593  0
C  C44  1  0.21623656  0.69753877  0.64887078  1  0  -0.112707  0  3.702379  0  0  -0.133047  0  3.951643  0  0  -0.137324  0  3.972209  0  0  -0.090157  -0.130237  0  3.937774  0
C  C45  1  0.71623739  0.80246118  0.85112896  1  0  -0.112709  0  3.702372  0  0  -0.133052  0  3.951635  0  0  -0.137328  0  3.972202  0  0  -0.090149  -0.130244  0  3.937766  0
C  C46  1  0.78376485  0.30246148  0.35112852  1  0  -0.112686  0  3.702318  0  0  -0.133025  0  3.951579  0  0  -0.137301  0  3.972144  0  0  -0.090133  -0.130221  0  3.937707  0
C  C47  1  0.28376403  0.19753907  0.14887090  1  0  -0.112721  0  3.702339  0  0  -0.133059  0  3.951596  0  0  -0.137337  0  3.972163  0  0  -0.090163  -0.130253  0  3.937725  0
C  C48  1  0.04335129  0.68526122  0.58627838  1  0  0.041143  0  3.820144  0  0  0.056813  0  4.054547  0  0  0.058929  0  4.076739  0  0  -0.004352  0.055442  0  4.039568  0
C  C49  1  0.54335209  0.81473875  0.91372136  1  0  0.0412  0  3.820118  0  0  0.056869  0  4.05453  0  0  0.058984  0  4.07672  0  0  -0.00433  0.0555  0  4.039544  0
C  C50  1  0.95664819  0.31473904  0.41372147  1  0  0.041204  0  3.820138  0  0  0.056867  0  4.054557  0  0  0.058982  0  4.076747  0  0  -0.004326  0.055506  0  4.039561  0
C  C51  1  0.45664933  0.18526059  0.08627838  1  0  0.041164  0  3.820134  0  0  0.056835  0  4.054534  0  0  0.058954  0  4.076723  0  0  -0.004346  0.055469  0  4.039548  0
C  C52  1  0.83465801  0.60377106  0.58211825  1  0  -0.113772  0  3.739617  0  0  -0.133876  0  3.990761  0  0  -0.138187  0  4.012192  0  0  -0.091254  -0.131013  0  3.976215  0
C  C53  1  0.33465897  0.89622979  0.91788161  1  0  -0.113787  0  3.739592  0  0  -0.133885  0  3.990735  0  0  -0.138195  0  4.012164  0  0  -0.091238  -0.131016  0  3.976187  0
C  C54  1  0.16534147  0.39622919  0.41788161  1  0  -0.11378  0  3.739626  0  0  -0.133878  0  3.99077  0  0  -0.138187  0  4.0122  0  0  -0.09124  -0.131015  0  3.976223  0
C  C55  1  0.66534245  0.10377047  0.08211881  1  0  -0.113808  0  3.739685  0  0  -0.133912  0  3.99082  0  0  -0.138224  0  4.012251  0  0  -0.091284  -0.131048  0  3.976274  0
C  C56  1  0.80142670  0.53654694  0.63847963  1  0  -0.039428  0  3.790431  0  0  -0.062892  0  4.038808  0  0  -0.062191  0  4.061437  0  0  -0.082926  -0.063193  0  4.023351  0
C  C57  1  0.30142765  0.96345300  0.86152066  1  0  -0.039448  0  3.790442  0  0  -0.062914  0  4.038821  0  0  -0.062213  0  4.061452  0  0  -0.082934  -0.063224  0  4.023376  0
C  C58  1  0.19857278  0.46345331  0.36152079  1  0  -0.039448  0  3.790461  0  0  -0.062915  0  4.038837  0  0  -0.062215  0  4.061471  0  0  -0.082941  -0.063227  0  4.023397  0
C  C59  1  0.69857376  0.03654634  0.13847963  1  0  -0.039468  0  3.79048  0  0  -0.062913  0  4.03886  0  0  -0.062212  0  4.061491  0  0  -0.082923  -0.06323  0  4.023425  0
C  C60  1  0.08187886  0.75249616  0.52568737  1  0  0.128387  0  3.761458  0  0  0.117016  0  4.011748  0  0  0.119751  0  4.033793  0  0  0.087844  0.115119  0  3.996936  0
C  C61  1  0.58187966  0.74750380  0.97431237  1  0  0.128383  0  3.761459  0  0  0.116993  0  4.011764  0  0  0.119731  0  4.033814  0  0  0.087834  0.115098  0  3.996945  0
C  C62  1  0.91812062  0.24750318  0.47431237  1  0  0.128391  0  3.761497  0  0  0.117002  0  4.011801  0  0  0.119743  0  4.033849  0  0  0.087833  0.115104  0  3.996978  0
C  C63  1  0.41812175  0.25249645  0.02568749  1  0  0.128412  0  3.761425  0  0  0.117022  0  4.011707  0  0  0.119774  0  4.033757  0  0  0.087849  0.115128  0  3.996886  0
C  C64  1  0.25051125  0.88819524  0.46618561  1  0  0.221221  0  3.683603  0  0  0.159929  0  3.951313  0  0  0.17393  0  3.964136  0  0  0.141576  0.150923  0  3.942292  0
C  C65  1  0.75051224  0.61180415  0.03381444  1  0  0.221118  0  3.68366  0  0  0.159818  0  3.95137  0  0  0.173822  0  3.964198  0  0  0.14153  0.150811  0  3.942353  0
C  C66  1  0.74949017  0.11180410  0.53381468  1  0  0.221165  0  3.683575  0  0  0.159854  0  3.951282  0  0  0.173859  0  3.964108  0  0  0.141559  0.15084  0  3.942269  0
C  C67  1  0.24948918  0.38819610  0.96618542  1  0  0.221156  0  3.683598  0  0  0.159843  0  3.951301  0  0  0.173858  0  3.964133  0  0  0.14154  0.15083  0  3.942286  0
C  C68  1  0.99032852  0.73187194  0.45044254  1  0  -0.043218  0  3.70143  0  0  -0.082642  0  3.965217  0  0  -0.081694  0  3.985725  0  0  0.000854  -0.0832  0  3.95131  0
C  C69  1  0.49032770  0.76812743  0.04955751  1  0  -0.043296  0  3.701514  0  0  -0.082719  0  3.965305  0  0  -0.08177  0  3.985813  0  0  0.000809  -0.083273  0  3.951398  0
C  C70  1  0.00967096  0.26812832  0.54955732  1  0  -0.043281  0  3.701477  0  0  -0.082701  0  3.965262  0  0  -0.081753  0  3.985768  0  0  0.000831  -0.083258  0  3.951348  0
C  C71  1  0.50967178  0.23187282  0.95044235  1  0  -0.043259  0  3.701486  0  0  -0.08269  0  3.965282  0  0  -0.081739  0  3.985785  0  0  0.000823  -0.083248  0  3.951367  0
N  N72  1  0.09909170  0.81638852  0.41408652  1  0  -0.422637  0  3.353455  0  0  -0.339499  0  3.66447  0  0  -0.360663  0  3.675838  0  0  -0.37036  -0.3251  0  3.656388  0
N  N73  1  0.59909071  0.68361088  0.08591297  1  0  -0.422548  0  3.353531  0  0  -0.339407  0  3.664539  0  0  -0.360568  0  3.675904  0  0  -0.370319  -0.325013  0  3.656465  0
N  N74  1  0.90090971  0.18361082  0.58591321  1  0  -0.422598  0  3.353495  0  0  -0.339453  0  3.664505  0  0  -0.360617  0  3.675873  0  0  -0.370358  -0.325057  0  3.656421  0
N  N75  1  0.40090877  0.31638846  0.91408732  1  0  -0.422553  0  3.353565  0  0  -0.339415  0  3.664582  0  0  -0.360577  0  3.675946  0  0  -0.370318  -0.325013  0  3.656492  0
N  N76  1  0.24523821  0.85201301  0.53342846  1  0  -0.320558  0  3.39078  0  0  -0.251647  0  3.618803  0  0  -0.268684  0  3.633711  0  0  -0.365586  -0.240302  0  3.608654  0
N  N77  1  0.74523906  0.64798694  0.96657183  1  0  -0.320569  0  3.390865  0  0  -0.251638  0  3.618881  0  0  -0.268689  0  3.633805  0  0  -0.36558  -0.240291  0  3.608729  0
N  N78  1  0.75476127  0.14798724  0.46657196  1  0  -0.320611  0  3.390793  0  0  -0.25168  0  3.618812  0  0  -0.268734  0  3.633735  0  0  -0.365607  -0.240337  0  3.608663  0
N  N79  1  0.25476235  0.35201331  0.03342802  1  0  -0.320643  0  3.39083  0  0  -0.251675  0  3.618806  0  0  -0.268761  0  3.633756  0  0  -0.365608  -0.240334  0  3.608662  0
O  O80  1  0.07303051  0.33670341  0.75111304  1  0  -0.900056  0  2.107314  0  0  -0.782895  0  2.429047  0  0  -0.813027  0  2.39706  0  0  -0.384676  -0.761556  0  2.450502  0
O  O81  1  0.57302948  0.16329681  0.74888707  1  0  -0.90007  0  2.107325  0  0  -0.782898  0  2.429033  0  0  -0.813028  0  2.397047  0  0  -0.38467  -0.761567  0  2.450514  0
O  O82  1  0.92697091  0.66329684  0.24888682  1  0  -0.900059  0  2.107355  0  0  -0.782882  0  2.429047  0  0  -0.81301  0  2.397061  0  0  -0.384667  -0.761553  0  2.450535  0
O  O83  1  0.42697000  0.83670254  0.25111323  1  0  -0.900073  0  2.107322  0  0  -0.782906  0  2.429038  0  0  -0.813037  0  2.397052  0  0  -0.384682  -0.761574  0  2.450505  0
O  O84  1  0.03238322  0.53257436  0.85073967  1  0  -0.826677  0  1.927591  0  0  -0.756898  0  2.171684  0  0  -0.781606  0  2.153355  0  0  -0.374596  -0.739231  0  2.183692  0
O  O85  1  0.53238405  0.96742561  0.64926063  1  0  -0.826735  0  1.927653  0  0  -0.756949  0  2.171738  0  0  -0.78166  0  2.15342  0  0  -0.374592  -0.739273  0  2.183743  0
O  O86  1  0.96761626  0.46742589  0.14926075  1  0  -0.826688  0  1.92764  0  0  -0.756896  0  2.171724  0  0  -0.781606  0  2.1534  0  0  -0.374567  -0.739221  0  2.183729  0
O  O87  1  0.46761737  0.03257374  0.35073967  1  0  -0.826691  0  1.927585  0  0  -0.756913  0  2.171671  0  0  -0.781619  0  2.153344  0  0  -0.374599  -0.739242  0  2.183674  0
O  O88  1  0.63121277  0.43852608  0.77062471  1  0  -0.857031  0  2.06016  0  0  -0.763027  0  2.363376  0  0  -0.79079  0  2.336769  0  0  -0.383054  -0.743355  0  2.38117  0
O  O89  1  0.13121391  0.06147414  0.72937539  1  0  -0.857028  0  2.060177  0  0  -0.763021  0  2.363382  0  0  -0.790781  0  2.336774  0  0  -0.383044  -0.743349  0  2.38118  0
O  O90  1  0.36878477  0.56147417  0.22937514  1  0  -0.857014  0  2.060258  0  0  -0.763019  0  2.363475  0  0  -0.790779  0  2.336867  0  0  -0.383041  -0.743346  0  2.381277  0
O  O91  1  0.86878751  0.93852612  0.27062447  1  0  -0.857028  0  2.06021  0  0  -0.763032  0  2.363422  0  0  -0.790795  0  2.336818  0  0  -0.383054  -0.743358  0  2.381214  0
