# generated using pymatgen
data_ZnH12C16N2O5
_symmetry_space_group_name_H-M   'P 1'
_cell_length_a   5.38256493
_cell_length_b   14.78571374
_cell_length_c   20.21112763
_cell_angle_alpha   105.73163339
_cell_angle_beta   90.00034745
_cell_angle_gamma   90.00006073
_symmetry_Int_Tables_number   1
_chemical_formula_structural   ZnH12C16N2O5
_chemical_formula_sum   'Zn4 H48 C64 N8 O20'
_cell_volume   1548.25287391
_cell_formula_units_Z   4
loop_
 _symmetry_equiv_pos_site_id
 _symmetry_equiv_pos_as_xyz
  1  'x, y, z'
loop_
 _atom_site_type_symbol
 _atom_site_label
 _atom_site_symmetry_multiplicity
 _atom_site_fract_x
 _atom_site_fract_y
 _atom_site_fract_z
 _atom_site_occupancy
 _atom_site_pbe_bader_charge
 _atom_site_pbe_bader_spin_density
 _atom_site_pbe_cm5_charge
 _atom_site_pbe_ddec_charge
 _atom_site_pbe_ddec_spin_density
 _atom_site_pbe_ddec_sum_bond_order
 _atom_site_pbe_magmom
Zn  Zn0  1  0.91485888  0.62187897  0.71739459  1  1.301108  0  0.709085  0.831332  0  2.32882  0
Zn  Zn1  1  0.41484796  0.37812399  0.78261117  1  1.301254  0  0.709168  0.831481  0  2.328726  0
Zn  Zn2  1  0.08513219  0.37811964  0.28260432  1  1.301126  0  0.709124  0.831405  0  2.328823  0
Zn  Zn3  1  0.58515055  0.62187954  0.21739069  1  1.301193  0  0.709116  0.831372  0  2.328757  0
H  H4  1  0.58674356  0.98158174  0.59665968  1  0.029351  0  0.100004  0.11213  0  1.039782  0
H  H5  1  0.08674453  0.01842544  0.90334169  1  0.029519  0  0.100016  0.112172  0  1.039721  0
H  H6  1  0.41328653  0.01841054  0.40334094  1  0.029342  0  0.100007  0.112149  0  1.039853  0
H  H7  1  0.91326512  0.98158300  0.09666115  1  0.029361  0  0.100018  0.112139  0  1.039785  0
H  H8  1  0.90528301  0.87149952  0.52962329  1  0.072793  0  0.098081  0.096496  0  1.006368  0
H  H9  1  0.40528240  0.12850970  0.97037539  1  0.07285  0  0.098115  0.096533  0  1.006435  0
H  H10  1  0.09472293  0.12848925  0.47037169  1  0.073077  0  0.098069  0.096513  0  1.006307  0
H  H11  1  0.59471982  0.87149804  0.02962731  1  0.072891  0  0.098107  0.096482  0  1.006438  0
H  H12  1  0.89249118  0.70193598  0.52733779  1  0.027095  0  0.092527  0.094345  0  1.034168  0
H  H13  1  0.39250463  0.29807317  0.97265900  1  0.026944  0  0.092501  0.094306  0  1.034177  0
H  H14  1  0.10749803  0.29805280  0.47265818  1  0.027221  0  0.092595  0.094471  0  1.03414  0
H  H15  1  0.60749574  0.70193457  0.02734469  1  0.027118  0  0.092552  0.094345  0  1.034143  0
H  H16  1  0.55034319  0.64314819  0.58838813  1  0.125542  0  0.100807  0.113376  0  1.019191  0
H  H17  1  0.05034504  0.35685666  0.91161011  1  0.125459  0  0.100776  0.113322  0  1.019224  0
H  H18  1  0.44964603  0.35684690  0.41161206  1  0.125658  0  0.100808  0.113401  0  1.019329  0
H  H19  1  0.94966461  0.64315038  0.08839097  1  0.12556  0  0.100786  0.113316  0  1.019257  0
H  H20  1  0.72791542  0.89409062  0.78650019  1  0.13329  0  0.122538  0.103244  0  1.001256  0
H  H21  1  0.22790275  0.10591255  0.71349676  1  0.133387  0  0.122473  0.103141  0  1.00137  0
H  H22  1  0.27208308  0.10591010  0.21349667  1  0.133327  0  0.122542  0.103239  0  1.001271  0
H  H23  1  0.77210690  0.89409028  0.28650546  1  0.133342  0  0.122495  0.103223  0  1.00139  0
H  H24  1  0.43100166  0.63021866  0.92171380  1  0.063522  0  0.108947  0.121058  0  1.005949  0
H  H25  1  0.93098161  0.36978862  0.57828527  1  0.066853  0  0.108951  0.121093  0  1.005911  0
H  H26  1  0.56899313  0.36978487  0.07828460  1  0.0669  0  0.108928  0.121015  0  1.005994  0
H  H27  1  0.06898903  0.63020577  0.42171478  1  0.06658  0  0.108895  0.12095  0  1.006012  0
H  H28  1  0.10901063  0.74862060  0.97266503  1  0.09731  0  0.095513  0.088252  0  1.063619  0
H  H29  1  0.60899155  0.25138252  0.52733238  1  0.097108  0  0.095575  0.088348  0  1.063681  0
H  H30  1  0.89098416  0.25138364  0.02733252  1  0.097244  0  0.095499  0.088274  0  1.063632  0
H  H31  1  0.39100695  0.74860274  0.47266635  1  0.097249  0  0.095582  0.088394  0  1.063708  0
H  H32  1  0.06463012  0.89238737  0.93317985  1  0.060262  0  0.099521  0.098391  0  1.019917  0
H  H33  1  0.56460397  0.10761616  0.56681850  1  0.059936  0  0.099465  0.098337  0  1.019954  0
H  H34  1  0.93536838  0.10761476  0.06681530  1  0.060252  0  0.099541  0.098391  0  1.019964  0
H  H35  1  0.43542612  0.89236699  0.43318030  1  0.059648  0  0.099428  0.098335  0  1.020044  0
H  H36  1  0.36035291  0.92099274  0.84504166  1  0.087377  0  0.106364  0.107482  0  1.015381  0
H  H37  1  0.86031298  0.07901268  0.65495712  1  0.087292  0  0.106371  0.107445  0  1.015381  0
H  H38  1  0.63964931  0.07900657  0.15495541  1  0.087469  0  0.106347  0.107443  0  1.015357  0
H  H39  1  0.13971525  0.92098171  0.34504491  1  0.087221  0  0.106386  0.107472  0  1.015258  0
H  H40  1  0.69973990  0.52555531  0.86080959  1  0.125378  0  0.119524  0.119948  0  0.995779  0
H  H41  1  0.19973897  0.47445189  0.63919334  1  0.125506  0  0.119507  0.119932  0  0.995746  0
H  H42  1  0.30024375  0.47444541  0.13918479  1  0.125309  0  0.119516  0.119947  0  0.995755  0
H  H43  1  0.80023167  0.52554742  0.36080522  1  0.125877  0  0.119476  0.119912  0  0.995787  0
H  H44  1  0.90231211  0.61221205  0.91280220  1  0.10821  0  0.117878  0.112328  0  0.984034  0
H  H45  1  0.40230260  0.38779504  0.58720152  1  0.1083  0  0.117887  0.112299  0  0.983977  0
H  H46  1  0.09766967  0.38778726  0.08719685  1  0.108199  0  0.117871  0.112348  0  0.984035  0
H  H47  1  0.59767733  0.61220427  0.41279901  1  0.108298  0  0.117878  0.112312  0  0.984064  0
H  H48  1  0.12318487  0.90211024  0.69375000  1  0.630311  0  0.292143  0.30553  0  1.044412  0
H  H49  1  0.62318298  0.09788805  0.80624832  1  0.630296  0  0.292144  0.305541  0  1.04439  0
H  H50  1  0.87684151  0.09788837  0.30625237  1  0.630219  0  0.292191  0.305578  0  1.044394  0
H  H51  1  0.37682110  0.90211337  0.19375412  1  0.630291  0  0.292124  0.305475  0  1.044458  0
C  C52  1  0.38177569  0.77841138  0.62759086  1  0.000902  0  -0.036539  -0.161033  0  3.995435  0
C  C53  1  0.88177495  0.22159137  0.87240870  1  0.001078  0  -0.036506  -0.160989  0  3.995437  0
C  C54  1  0.61823025  0.22158512  0.37240961  1  0.000819  0  -0.036485  -0.160828  0  3.995231  0
C  C55  1  0.11822913  0.77841567  0.12759386  1  0.000716  0  -0.036468  -0.160895  0  3.995318  0
C  C56  1  0.39609145  0.87575875  0.63148633  1  0.50438  0  0.09076  0.309442  0  4.037983  0
C  C57  1  0.89608866  0.12424479  0.86851327  1  0.5039  0  0.090788  0.309509  0  4.037987  0
C  C58  1  0.60392563  0.12423775  0.36851463  1  0.504441  0  0.090852  0.30968  0  4.037795  0
C  C59  1  0.10391356  0.87576225  0.13149029  1  0.50423  0  0.090804  0.309565  0  4.037772  0
C  C60  1  0.58243174  0.90722647  0.59430724  1  0.024451  0  -0.111033  -0.218492  0  3.97257  0
C  C61  1  0.08242478  0.09278069  0.90569416  1  0.024687  0  -0.111065  -0.218569  0  3.97249  0
C  C62  1  0.41758721  0.09276652  0.40569203  1  0.024151  0  -0.111004  -0.218624  0  3.972621  0
C  C63  1  0.91757558  0.90722775  0.09431017  1  0.024339  0  -0.111033  -0.218533  0  3.972489  0
C  C64  1  0.75839692  0.84534863  0.55680694  1  -0.07549  0  -0.088297  -0.045594  0  4.02468  0
C  C65  1  0.25839218  0.15466035  0.94319339  1  -0.075498  0  -0.088318  -0.045626  0  4.024725  0
C  C66  1  0.24161273  0.15464225  0.44319093  1  -0.075756  0  -0.088272  -0.045411  0  4.024424  0
C  C67  1  0.74161004  0.84534739  0.05680981  1  -0.075564  0  -0.088349  -0.045598  0  4.02472  0
C  C68  1  0.74986474  0.74978047  0.55468468  1  -0.037879  0  -0.116946  -0.139189  0  4.072378  0
C  C69  1  0.24986745  0.25022846  0.94531521  1  -0.037845  0  -0.117003  -0.139275  0  4.072468  0
C  C70  1  0.25013191  0.25021041  0.44531220  1  -0.037839  0  -0.116995  -0.139407  0  4.072317  0
C  C71  1  0.75013478  0.74977998  0.05468813  1  -0.037759  0  -0.116991  -0.139216  0  4.072315  0
C  C72  1  0.56126141  0.71701874  0.58905100  1  -0.054036  0  -0.091722  -0.083474  0  3.989822  0
C  C73  1  0.06126214  0.28298758  0.91094844  1  -0.054002  0  -0.091661  -0.083328  0  3.989775  0
C  C74  1  0.43873524  0.28297565  0.41094807  1  -0.053963  0  -0.09181  -0.083687  0  3.990127  0
C  C75  1  0.93874194  0.71702016  0.08905377  1  -0.053971  0  -0.091699  -0.083457  0  3.989786  0
C  C76  1  0.18967624  0.73997547  0.66415795  1  1.219464  0  0.211069  0.426389  0  4.159393  0
C  C77  1  0.68967096  0.26002535  0.83584231  1  1.219537  0  0.211073  0.426309  0  4.159299  0
C  C78  1  0.81032598  0.26002314  0.33584195  1  1.219788  0  0.211096  0.426402  0  4.159246  0
C  C79  1  0.31033684  0.73997958  0.16415885  1  1.219916  0  0.21111  0.426357  0  4.158995  0
C  C80  1  0.72865892  0.81946289  0.78543688  1  0.589357  0  0.066356  0.056118  0  3.896537  0
C  C81  1  0.22864367  0.18054099  0.71456169  1  0.589482  0  0.06652  0.056302  0  3.896542  0
C  C82  1  0.27134515  0.18053783  0.21456097  1  0.58936  0  0.066375  0.056201  0  3.896495  0
C  C83  1  0.77136412  0.81946184  0.28544103  1  0.589441  0  0.066438  0.05614  0  3.896635  0
C  C84  1  0.56036462  0.79199394  0.83252568  1  0.072292  0  -0.020064  -0.040943  0  4.016891  0
C  C85  1  0.06034381  0.20801168  0.66747411  1  0.072787  0  -0.020162  -0.041046  0  4.017074  0
C  C86  1  0.43963946  0.20800749  0.16747230  1  0.07223  0  -0.020049  -0.040929  0  4.016854  0
C  C87  1  0.93966213  0.79198763  0.33252790  1  0.072784  0  -0.020211  -0.041132  0  4.017092  0
C  C88  1  0.57707664  0.70919758  0.85513623  1  0.385784  0  0.092835  0.235261  0  3.972955  0
C  C89  1  0.07705451  0.29080955  0.64486471  1  0.385337  0  0.092841  0.235167  0  3.973175  0
C  C90  1  0.42292744  0.29080455  0.14486239  1  0.385845  0  0.092778  0.235058  0  3.973066  0
C  C91  1  0.92293656  0.70918836  0.35513504  1  0.385754  0  0.092836  0.235101  0  3.973181  0
C  C92  1  0.41540912  0.69403457  0.90493728  1  -0.036029  0  -0.107573  -0.215478  0  4.010257  0
C  C93  1  0.91538828  0.30597261  0.59506289  1  -0.038723  0  -0.107606  -0.215488  0  4.010213  0
C  C94  1  0.58459310  0.30596896  0.09506162  1  -0.039112  0  -0.107506  -0.215206  0  4.010165  0
C  C95  1  0.08460466  0.69402038  0.40493540  1  -0.038859  0  -0.10739  -0.214971  0  4.009835  0
C  C96  1  0.23279566  0.76028677  0.93308173  1  -0.037917  0  -0.085563  -0.042367  0  3.997066  0
C  C97  1  0.73277437  0.23971784  0.56691695  1  -0.038496  0  -0.085594  -0.042496  0  3.997061  0
C  C98  1  0.76720285  0.23971536  0.06691590  1  -0.038364  0  -0.085611  -0.042604  0  3.997108  0
C  C99  1  0.26722971  0.76026882  0.43308058  1  -0.03875  0  -0.085825  -0.04289  0  3.997113  0
C  C100  1  0.20950137  0.84163265  0.91114517  1  -0.0363  0  -0.102001  -0.111543  0  4.037166  0
C  C101  1  0.70947563  0.15837181  0.58885317  1  -0.035742  0  -0.101956  -0.111463  0  4.036872  0
C  C102  1  0.79049528  0.15836807  0.08885069  1  -0.036343  0  -0.101986  -0.11143  0  4.037038  0
C  C103  1  0.29054331  0.84161626  0.41114562  1  -0.035891  0  -0.101861  -0.111334  0  4.036908  0
C  C104  1  0.37252331  0.85710917  0.86201849  1  -0.040792  0  -0.080333  -0.096719  0  3.966209  0
C  C105  1  0.87249528  0.14289703  0.63798084  1  -0.041163  0  -0.080335  -0.096635  0  3.966085  0
C  C106  1  0.62747892  0.14289155  0.13797836  1  -0.040778  0  -0.080357  -0.096717  0  3.966122  0
C  C107  1  0.12752180  0.85709736  0.36202069  1  -0.040579  0  -0.080282  -0.096628  0  3.965895  0
C  C108  1  0.84412105  0.57760093  0.85982641  1  0.363783  0  -0.059885  -0.127766  0  3.847381  0
C  C109  1  0.34411234  0.42240579  0.64017772  1  0.363561  0  -0.059857  -0.127644  0  3.847306  0
C  C110  1  0.15586817  0.42239908  0.14017179  1  0.363742  0  -0.059918  -0.127838  0  3.847376  0
C  C111  1  0.65586387  0.57759634  0.35982288  1  0.363393  0  -0.05985  -0.127695  0  3.847292  0
C  C112  1  0.06310130  0.52675806  0.81835701  1  1.61844  0  0.221865  0.615309  0  4.143717  0
C  C113  1  0.56309521  0.47324897  0.68164849  1  1.61851  0  0.221938  0.615392  0  4.143662  0
C  C114  1  0.93689349  0.47324476  0.18164373  1  1.618706  0  0.221869  0.615293  0  4.143726  0
C  C115  1  0.43688100  0.52675456  0.31835140  1  1.618392  0  0.221941  0.615536  0  4.143662  0
N  N116  1  0.04405762  0.80354634  0.70774008  1  -0.73811  0  -0.254851  -0.340825  0  3.346907  0
N  N117  1  0.54405111  0.19645425  0.79225885  1  -0.738066  0  -0.254797  -0.340736  0  3.346878  0
N  N118  1  0.95594461  0.19645297  0.29225848  1  -0.738128  0  -0.254815  -0.340763  0  3.346807  0
N  N119  1  0.45595483  0.80354998  0.20774365  1  -0.738235  0  -0.254827  -0.340754  0  3.346725  0
N  N120  1  0.88263035  0.76380216  0.74373658  1  -0.846995  0  -0.236955  -0.125385  0  3.686078  0
N  N121  1  0.38262023  0.23619989  0.75626333  1  -0.847146  0  -0.237042  -0.12552  0  3.686106  0
N  N122  1  0.11736816  0.23619785  0.25626112  1  -0.846967  0  -0.23697  -0.125486  0  3.685974  0
N  N123  1  0.61738385  0.76380364  0.24373953  1  -0.846955  0  -0.236968  -0.125409  0  3.685979  0
O  O124  1  0.17194684  0.65036831  0.65366720  1  -1.130137  0  -0.323449  -0.511276  0  2.294145  0
O  O125  1  0.67193957  0.34963309  0.84633579  1  -1.130191  0  -0.323523  -0.511327  0  2.294108  0
O  O126  1  0.82805167  0.34963030  0.34633319  1  -1.130336  0  -0.323545  -0.511392  0  2.294043  0
O  O127  1  0.32807008  0.65037184  0.15366388  1  -1.130288  0  -0.323586  -0.511374  0  2.293904  0
O  O128  1  0.23716835  0.93941945  0.66989517  1  -1.177346  0  -0.35148  -0.448771  0  2.33235  0
O  O129  1  0.73716888  0.06058168  0.83010376  1  -1.177288  0  -0.351456  -0.448762  0  2.332302  0
O  O130  1  0.76286360  0.06057986  0.33010981  1  -1.1774  0  -0.351634  -0.449015  0  2.332389  0
O  O131  1  0.26283892  0.93942325  0.16989987  1  -1.177173  0  -0.351483  -0.448765  0  2.332284  0
O  O132  1  0.76108334  0.64639084  0.82652197  1  -1.097306  0  -0.172153  -0.199745  0  2.744371  0
O  O133  1  0.26106566  0.35361535  0.67348026  1  -1.09708  0  -0.172129  -0.199708  0  2.744489  0
O  O134  1  0.23891331  0.35360988  0.17347588  1  -1.097227  0  -0.172102  -0.199659  0  2.744357  0
O  O135  1  0.73891055  0.64638888  0.32652175  1  -1.097343  0  -0.172109  -0.199702  0  2.74441  0
O  O136  1  0.13038208  0.54745701  0.76430001  1  -1.170294  0  -0.302068  -0.523689  0  2.404945  0
O  O137  1  0.63036367  0.45255327  0.73570806  1  -1.170419  0  -0.302192  -0.52383  0  2.40483  0
O  O138  1  0.86962386  0.45255074  0.23570369  1  -1.170329  0  -0.302096  -0.523723  0  2.404881  0
O  O139  1  0.36961997  0.54745026  0.26429084  1  -1.170448  0  -0.302098  -0.523776  0  2.404981  0
O  O140  1  0.16936298  0.46493707  0.84176742  1  -1.161787  0  -0.304914  -0.514164  0  2.308124  0
O  O141  1  0.66937161  0.53506573  0.65823685  1  -1.161898  0  -0.304889  -0.514166  0  2.308079  0
O  O142  1  0.83062438  0.53506365  0.15823289  1  -1.161993  0  -0.304853  -0.514075  0  2.308159  0
O  O143  1  0.33060275  0.46493780  0.34176303  1  -1.161686  0  -0.304952  -0.514309  0  2.308022  0
