# generated using pymatgen
data_CuH18C25(NO2)2
_symmetry_space_group_name_H-M   'P 1'
_cell_length_a   10.13395398
_cell_length_b   13.41319525
_cell_length_c   17.70752587
_cell_angle_alpha   90.00056701
_cell_angle_beta   89.99988855
_cell_angle_gamma   89.63987793
_symmetry_Int_Tables_number   1
_chemical_formula_structural   CuH18C25(NO2)2
_chemical_formula_sum   'Cu4 H72 C100 N8 O16'
_cell_volume   2406.91348672
_cell_formula_units_Z   4
loop_
 _symmetry_equiv_pos_site_id
 _symmetry_equiv_pos_as_xyz
  1  'x, y, z'
loop_
 _atom_site_type_symbol
 _atom_site_label
 _atom_site_symmetry_multiplicity
 _atom_site_fract_x
 _atom_site_fract_y
 _atom_site_fract_z
 _atom_site_occupancy
 _atom_site_pbe_bader_charge
 _atom_site_pbe_bader_spin_density
 _atom_site_pbe_cm5_charge
 _atom_site_pbe_ddec_charge
 _atom_site_pbe_ddec_spin_density
 _atom_site_pbe_ddec_sum_bond_order
 _atom_site_pbe_magmom
Cu  Cu0  1  0.48289518  0.75092294  0.25067616  1  1.050291  -0.549669  0.740312  0.746158  -0.744012  2.168111  -0.55
Cu  Cu1  1  0.51714768  0.24902360  0.74939380  1  1.050485  -0.549678  0.740434  0.74633  -0.744114  2.168866  -0.55
Cu  Cu2  1  0.01713919  0.24905536  0.75063991  1  1.049987  0.549652  0.740329  0.746265  0.744053  2.16824  0.55
Cu  Cu3  1  0.98283005  0.75096396  0.24935833  1  1.050236  0.549655  0.740278  0.746171  0.74407  2.168281  0.55
H  H4  1  0.85181622  0.26903326  0.88227807  1  0.099446  0.001463  0.119436  0.093947  0.000591  1.039734  0.001
H  H5  1  0.66450464  0.23293866  0.89182608  1  0.103674  -0.001461  0.119155  0.092462  -0.000592  1.032429  -0.001
H  H6  1  0.89036962  0.04778336  0.06783115  1  0.052562  -3.9e-05  0.095937  0.091708  -4.5e-05  1.032684  0.0
H  H7  1  0.74444050  0.01075079  0.81713512  1  0.110914  0.00029  0.101435  0.112372  0.000261  1.012074  0.0
H  H8  1  0.39038204  0.04778541  0.43214888  1  0.052294  3.9e-05  0.095848  0.091692  4.5e-05  1.032916  0.0
H  H9  1  0.31633408  0.72287710  0.46238671  1  0.053206  4.2e-05  0.094207  0.10305  2.7e-05  1.014871  0.0
H  H10  1  0.77924361  0.49721486  0.81777168  1  0.110346  -0.00034  0.102246  0.112836  -0.000292  1.007353  0.0
H  H11  1  0.49765205  0.18450214  0.50517247  1  0.058942  -0.000186  0.090572  0.090267  -8.2e-05  1.040902  0.0
H  H12  1  0.16658883  0.78785240  0.46911177  1  0.068589  -4.4e-05  0.092645  0.098855  -2.8e-05  1.023528  0.0
H  H13  1  0.81631008  0.72287989  0.03758453  1  0.053408  -4.3e-05  0.094242  0.10301  -2.7e-05  1.014865  0.0
H  H14  1  0.22077519  0.50276688  0.18223277  1  0.110414  -0.00034  0.102318  0.112946  -0.000292  1.007172  0.0
H  H15  1  0.16122934  0.90992203  0.30377663  1  0.166812  0.00146  0.126528  0.118274  0.000643  1.024792  0.001
H  H16  1  0.86038525  0.12953780  0.38599627  1  0.041708  -3.7e-05  0.096712  0.100523  -1.3e-05  1.004885  0.0
H  H17  1  0.68622095  0.52553509  0.58029487  1  0.074827  -0.001108  0.112675  0.116436  -0.000595  1.01323  -0.001
H  H18  1  0.49535374  0.68005712  0.00075888  1  0.050425  -0.000195  0.090432  0.089922  -8.8e-05  1.037631  0.0
H  H19  1  0.67013059  0.12198034  0.00386102  1  0.056298  -0.001129  0.113028  0.118959  -0.000599  0.998976  -0.001
H  H20  1  0.64817198  0.73095112  0.38232994  1  0.099509  -0.001464  0.119527  0.094161  -0.000591  1.039741  -0.001
H  H21  1  0.16450254  0.23297440  0.60819614  1  0.103874  0.001461  0.119138  0.092537  0.000592  1.03236  0.001
H  H22  1  0.09512079  0.46318104  0.42702183  1  0.070426  -3.4e-05  0.095673  0.092087  -4.1e-05  1.035279  0.0
H  H23  1  0.67248901  0.02546156  0.09028332  1  0.09237  -0.001028  0.113473  0.118794  -0.000554  1.012622  0.0
H  H24  1  0.31389729  0.47428919  0.41969603  1  0.074843  -0.001108  0.112623  0.11643  -0.000595  1.013036  -0.001
H  H25  1  0.17012766  0.12199250  0.49617178  1  0.057025  0.001129  0.112892  0.118793  0.0006  0.998924  0.001
H  H26  1  0.83877265  0.09008846  0.69621878  1  0.166981  0.001459  0.126556  0.118387  0.000643  1.024863  0.001
H  H27  1  0.50460236  0.32003559  0.99914618  1  0.052417  -0.000195  0.090599  0.090069  -8.8e-05  1.037778  0.0
H  H28  1  0.86777155  0.64336921  0.88761360  1  0.037601  -4.2e-05  0.096875  0.101103  -1.5e-05  1.003639  0.0
H  H29  1  0.82765140  0.38029666  0.99336842  1  0.084606  0.001086  0.112972  0.119312  0.000585  0.996217  0.0
H  H30  1  0.69318262  0.40947353  0.68694138  1  0.188315  -0.001515  0.126175  0.120904  -0.000664  1.023202  -0.001
H  H31  1  0.63962128  0.87049864  0.88600690  1  0.04296  3.7e-05  0.096687  0.10051  1.3e-05  1.004803  0.0
H  H32  1  0.66657501  0.78786775  0.03085147  1  0.071211  4.4e-05  0.092662  0.098661  2.8e-05  1.023629  0.0
H  H33  1  0.00463686  0.31999242  0.50077704  1  0.051041  0.000195  0.090542  0.090005  8.8e-05  1.037619  0.0
H  H34  1  0.24440361  0.01072351  0.68285863  1  0.111316  -0.00029  0.101445  0.112385  -0.000261  1.012131  0.0
H  H35  1  0.90489159  0.53680560  0.57291146  1  0.070102  -3.4e-05  0.095692  0.09211  -4.1e-05  1.035257  0.0
H  H36  1  0.30690721  0.59040119  0.31307380  1  0.188772  -0.001514  0.126004  0.120925  -0.000665  1.022967  -0.001
H  H37  1  0.81382697  0.47438630  0.08030103  1  0.074302  0.001107  0.112653  0.116503  0.000594  1.013124  0.001
H  H38  1  0.32760177  0.38030100  0.50669544  1  0.084586  -0.001087  0.113056  0.119635  -0.000585  0.996075  0.0
H  H39  1  0.32748686  0.97454538  0.90981770  1  0.092118  -0.001028  0.113422  0.118557  -0.000554  1.012859  0.0
H  H40  1  0.83342225  0.21215974  0.53085879  1  0.071138  -4.4e-05  0.092717  0.098764  -2.8e-05  1.023526  0.0
H  H41  1  0.33553178  0.76700306  0.10822637  1  0.104042  -0.00146  0.119075  0.092317  -0.000592  1.032651  -0.001
H  H42  1  0.17235161  0.61969506  0.00664111  1  0.08468  0.001086  0.112946  0.119265  0.000585  0.99624  0.0
H  H43  1  0.36775720  0.64339169  0.61237332  1  0.037703  4.2e-05  0.096929  0.101316  1.5e-05  1.003501  0.0
H  H44  1  0.13960064  0.87047970  0.61396357  1  0.043473  -3.7e-05  0.096767  0.100555  -1.3e-05  1.004726  0.0
H  H45  1  0.33878271  0.09004773  0.80381403  1  0.167659  -0.001459  0.126524  0.11838  -0.000643  1.025106  -0.001
H  H46  1  0.25556381  0.98931040  0.18287272  1  0.111205  0.00029  0.101403  0.11232  0.000261  1.012441  0.0
H  H47  1  0.18365505  0.27712848  0.96238490  1  0.053054  -4.2e-05  0.09425  0.103031  -2.7e-05  1.014854  0.0
H  H48  1  0.59510081  0.46322004  0.07290146  1  0.070506  3.4e-05  0.095696  0.092147  4.1e-05  1.035158  0.0
H  H49  1  0.63223503  0.35662018  0.38760459  1  0.037527  4.2e-05  0.096899  0.101217  1.5e-05  1.003594  0.0
H  H50  1  0.68367837  0.27713870  0.53758046  1  0.053767  4.2e-05  0.094208  0.103081  2.7e-05  1.014797  0.0
H  H51  1  0.35179217  0.26902890  0.61777955  1  0.10043  -0.001465  0.119333  0.093918  -0.000592  1.03958  -0.001
H  H52  1  0.82748933  0.97456115  0.59022446  1  0.092022  0.001028  0.113448  0.118753  0.000554  1.012732  0.0
H  H53  1  0.33340493  0.21215911  0.96911627  1  0.068782  4.4e-05  0.092663  0.098882  2.8e-05  1.023418  0.0
H  H54  1  0.72074385  0.50277613  0.31775844  1  0.110038  0.00034  0.102249  0.112833  0.000292  1.007173  0.0
H  H55  1  0.67231268  0.61968670  0.49342421  1  0.084136  -0.001087  0.112941  0.119219  -0.000586  0.996125  0.0
H  H56  1  0.75559290  0.98927237  0.31713226  1  0.111311  -0.000289  0.101456  0.112393  -0.00026  1.012135  0.0
H  H57  1  0.60962674  0.95221417  0.56785444  1  0.05259  3.9e-05  0.095874  0.091727  4.5e-05  1.032909  0.0
H  H58  1  0.27923251  0.49724498  0.68222285  1  0.110497  0.00034  0.102337  0.112931  0.000292  1.007093  0.0
H  H59  1  0.00236618  0.81549867  0.00516423  1  0.058964  0.000186  0.090583  0.090302  8.2e-05  1.040857  0.0
H  H60  1  0.83549593  0.76704977  0.39179306  1  0.104032  0.001461  0.119161  0.09252  0.000592  1.032537  0.001
H  H61  1  0.99538370  0.67999668  0.49916641  1  0.052223  0.000195  0.090553  0.089934  8.8e-05  1.037604  0.0
H  H62  1  0.40484955  0.53687453  0.92700755  1  0.069962  3.4e-05  0.095828  0.092175  4.1e-05  1.035213  0.0
H  H63  1  0.82987329  0.87802702  0.50382137  1  0.057114  0.001129  0.11287  0.118682  0.000599  0.9991  0.001
H  H64  1  0.32989712  0.87799186  0.99620442  1  0.058316  -0.001129  0.112875  0.118551  -0.0006  0.999285  -0.001
H  H65  1  0.17251880  0.02545119  0.40976983  1  0.091985  0.001028  0.113368  0.118677  0.000554  1.012665  0.0
H  H66  1  0.18613919  0.52564145  0.91969607  1  0.074367  0.001107  0.112624  0.116365  0.000595  1.012997  0.001
H  H67  1  0.14816595  0.73097700  0.11772299  1  0.099613  0.001464  0.119468  0.094018  0.000591  1.039557  0.001
H  H68  1  0.36036774  0.12955830  0.11399077  1  0.041481  3.7e-05  0.096708  0.100537  1.3e-05  1.004816  0.0
H  H69  1  0.99764035  0.18447937  0.99479278  1  0.058456  0.000186  0.090587  0.090175  8.2e-05  1.040879  0.0
H  H70  1  0.50235937  0.81552270  0.49480883  1  0.058393  -0.000186  0.090589  0.090214  -8.2e-05  1.041046  0.0
H  H71  1  0.10965576  0.95219497  0.93212982  1  0.051831  -3.9e-05  0.095912  0.091714  -4.5e-05  1.032722  0.0
H  H72  1  0.19312979  0.40955085  0.81306039  1  0.188748  0.001514  0.126094  0.120971  0.000664  1.02311  0.001
H  H73  1  0.80684333  0.59047719  0.18693276  1  0.188625  0.001514  0.126062  0.121004  0.000664  1.023045  0.001
H  H74  1  0.66122483  0.90991155  0.19626553  1  0.166021  -0.001461  0.126473  0.118291  -0.000643  1.024906  -0.001
H  H75  1  0.13223943  0.35663248  0.11237561  1  0.037525  -4.2e-05  0.096937  0.101193  -1.5e-05  1.003552  0.0
C  C76  1  0.24570152  0.75417120  0.50327904  1  -0.041305  2e-05  -0.155368  -0.244775  1.2e-05  3.957099  0.0
C  C77  1  0.76630110  0.61948630  0.89702013  1  -0.03576  -7e-05  -0.09847  -0.148655  1e-06  3.988926  0.0
C  C78  1  0.41197403  0.09359140  0.84849933  1  0.481941  0.001008  0.058689  0.112185  5.9e-05  3.880434  0.001
C  C79  1  0.59314798  0.97129497  0.09059239  1  -0.010497  -0.005039  -0.069131  -0.150408  -0.003562  3.899723  -0.004
C  C80  1  0.55709044  0.64112271  0.95963247  1  0.002159  -0.000851  -0.10096  -0.152047  -0.000586  3.997857  -0.001
C  C81  1  0.00622161  0.56121044  0.58096424  1  -0.127625  0.001234  -0.089298  -0.08758  0.000782  4.009992  0.001
C  C82  1  0.49377189  0.43881424  0.08095094  1  -0.127355  -0.001234  -0.089186  -0.087323  -0.000782  4.00984  -0.001
C  C83  1  0.40635358  0.82686572  0.10133287  1  0.49713  0.000837  0.050669  0.092171  -0.000156  3.949998  0.0
C  C84  1  0.00043903  0.92418204  0.16885250  1  1.550678  -0.001413  0.192644  0.554701  -1.5e-05  4.23823  -0.003
C  C85  1  0.56575287  0.00960926  0.37063057  1  -0.061655  -0.008557  -0.02559  -0.039329  -0.006226  3.980808  -0.007
C  C86  1  0.50619165  0.56125481  0.91896879  1  -0.127386  -0.001237  -0.089315  -0.087652  -0.000784  4.010087  -0.001
C  C87  1  0.57798808  0.67182978  0.39347304  1  0.489764  0.001025  0.050225  0.092139  8.1e-05  3.950439  0.001
C  C88  1  0.40686107  0.02868815  0.90949225  1  -0.009998  -0.005042  -0.068951  -0.150009  -0.003562  3.89971  -0.004
C  C89  1  0.58612786  0.50760173  0.86869406  1  -0.007943  -0.008287  -0.027203  -0.043253  -0.006076  3.98533  -0.007
C  C90  1  0.40565847  0.88909553  0.03884908  1  0.003568  -0.004545  -0.074846  -0.163616  -0.003235  3.941766  -0.004
C  C91  1  0.18676852  0.16581067  0.04878951  1  -0.081502  0.000463  -0.007028  0.131214  0.000294  3.963356  0.0
C  C92  1  0.50663907  0.93327631  0.57760715  1  -0.064484  -0.001523  -0.089162  -0.088071  -0.001011  4.010962  -0.001
C  C93  1  0.53027296  0.41851364  0.82920394  1  1.548046  0.001715  0.189815  0.550364  0.000348  4.238045  0.004
C  C94  1  0.39255767  0.52863675  0.41467009  1  -0.027234  -0.005093  -0.070365  -0.152242  -0.003582  3.902658  -0.004
C  C95  1  0.49973043  0.96517650  0.03240894  1  0.02458  0.003068  0.017105  0.097723  0.002091  3.978123  0.002
C  C96  1  0.60749895  0.47124235  0.58535752  1  -0.02572  -0.005088  -0.070279  -0.152375  -0.003581  3.902299  -0.004
C  C97  1  0.75431016  0.24583717  0.49669153  1  -0.044861  2e-05  -0.155422  -0.244643  1.2e-05  3.957089  0.0
C  C98  1  0.05361142  0.14302549  0.03716496  1  0.02534  0.000891  -0.101357  -0.151732  0.000617  3.997749  0.001
C  C99  1  0.74569061  0.75418434  0.99668814  1  -0.044155  -2e-05  -0.155424  -0.244403  -1.2e-05  3.956978  0.0
C  C100  1  0.99523061  0.53454791  0.03243424  1  0.061947  -0.003174  0.017347  0.098926  -0.002167  3.979398  -0.002
C  C101  1  0.99378390  0.43878636  0.41897865  1  -0.12814  0.001235  -0.089246  -0.087848  0.000782  4.010495  0.001
C  C102  1  0.78303084  0.46200780  0.35753526  1  -0.059749  0.000406  -0.089882  -0.094318  0.000393  3.985807  0.0
C  C103  1  0.09315578  0.97130170  0.40944979  1  -0.010014  0.00504  -0.068938  -0.150219  0.003562  3.899551  0.004
C  C104  1  0.18826919  0.67081514  0.55006861  1  -0.021473  0.000225  -0.00721  0.132214  0.000138  3.959098  0.0
C  C105  1  0.80126747  0.96713609  0.85784071  1  -0.051197  0.000547  -0.0907  -0.096504  0.000478  3.982629  0.0
C  C106  1  0.08614737  0.50758685  0.63126256  1  -0.008131  0.008292  -0.02718  -0.043479  0.006078  3.985356  0.007
C  C107  1  0.10746540  0.47130803  0.91465511  1  -0.025898  0.005091  -0.070245  -0.151888  0.003581  3.901854  0.004
C  C108  1  0.26630514  0.61948630  0.60294944  1  -0.034649  7e-05  -0.098434  -0.149037  -1e-06  3.989105  0.0
C  C109  1  0.05711324  0.64107878  0.54030317  1  0.000576  0.000851  -0.100989  -0.152162  0.000586  3.997971  0.001
C  C110  1  0.07797286  0.67186332  0.10656823  1  0.487887  -0.001017  0.050473  0.092903  -7.9e-05  3.949684  -0.001
C  C111  1  0.74262784  0.88895256  0.89690530  1  -0.029205  1e-05  -0.098507  -0.146332  -3.9e-05  3.988745  0.0
C  C112  1  0.94289787  0.35891467  0.45964254  1  0.002743  0.000851  -0.101077  -0.152125  0.000586  3.998112  0.001
C  C113  1  0.91106815  0.39044986  0.95555654  1  -0.025767  0.004607  -0.0743  -0.163534  0.003305  3.946237  0.004
C  C114  1  0.49954939  0.07583579  0.66886647  1  1.55076  0.001411  0.192691  0.55496  1.6e-05  4.237983  0.003
C  C115  1  0.44287869  0.35894299  0.04028953  1  -0.000208  -0.000851  -0.101125  -0.152663  -0.000586  3.998432  -0.001
C  C116  1  0.91196044  0.09362022  0.65153248  1  0.483771  -0.001011  0.058639  0.112357  -5.9e-05  3.880009  -0.001
C  C117  1  0.41105247  0.39043548  0.54449153  1  -0.025743  -0.004606  -0.074706  -0.164702  -0.003305  3.94719  -0.004
C  C118  1  0.30124009  0.96711714  0.64214800  1  -0.051388  -0.000546  -0.090828  -0.096714  -0.000477  3.982415  0.0
C  C119  1  0.19874194  0.03290757  0.14215470  1  -0.051783  0.000547  -0.09063  -0.096623  0.000478  3.982319  0.0
C  C120  1  0.41385565  0.49243088  0.13126069  1  -0.008458  -0.008291  -0.027184  -0.043391  -0.006078  3.985114  -0.007
C  C121  1  0.49336533  0.06672878  0.42238657  1  -0.06461  -0.001526  -0.089182  -0.088065  -0.001013  4.010938  -0.001
C  C122  1  0.31172147  0.32920333  0.05005929  1  -0.019921  -0.000224  -0.007152  0.132385  -0.000137  3.958864  0.0
C  C123  1  0.91384093  0.49242527  0.36869501  1  -0.0078  0.008291  -0.027186  -0.042922  0.006078  3.985585  0.007
C  C124  1  0.06573925  0.00963757  0.12936511  1  -0.068397  0.008558  -0.025416  -0.038774  0.006228  3.980055  0.007
C  C125  1  0.44638711  0.85698377  0.53717447  1  0.026025  -0.000891  -0.101464  -0.151904  -0.000617  3.997967  -0.001
C  C126  1  0.93427587  0.99038479  0.87062296  1  -0.060907  0.008559  -0.02551  -0.039237  0.006228  3.98059  0.007
C  C127  1  0.08892292  0.60955086  0.04444960  1  -0.02555  0.004608  -0.074306  -0.163468  0.003306  3.946221  0.004
C  C128  1  0.68677948  0.16579901  0.45118984  1  -0.081677  -0.000463  -0.007172  0.131215  -0.000295  3.9632  0.0
C  C129  1  0.23369569  0.38053126  0.10294704  1  -0.03607  -7e-05  -0.098559  -0.148944  1e-06  3.988965  0.0
C  C130  1  0.59436468  0.11087097  0.96121975  1  0.002827  -0.004546  -0.074982  -0.163969  -0.003234  3.941969  -0.004
C  C131  1  0.96967397  0.58150581  0.32919669  1  1.549014  -0.001715  0.18988  0.550271  -0.00035  4.238859  -0.004
C  C132  1  0.88742457  0.59359589  0.14645255  1  0.480542  -0.000902  0.0586  0.106775  8.9e-05  3.882301  0.0
C  C133  1  0.08803725  0.90639653  0.34846181  1  0.48301  -0.001007  0.058681  0.112552  -5.9e-05  3.879808  -0.001
C  C134  1  0.75737976  0.11107450  0.39689820  1  -0.027984  -1e-05  -0.098578  -0.14649  3.9e-05  3.988687  0.0
C  C135  1  0.03029884  0.41851927  0.67077783  1  1.548319  -0.001717  0.189538  0.550109  -0.000349  4.237903  -0.004
C  C136  1  0.00666672  0.93326357  0.92237500  1  -0.065213  0.001525  -0.089239  -0.088  0.001012  4.010294  0.001
C  C137  1  0.46971402  0.58148584  0.17078809  1  1.54832  0.001718  0.189399  0.550183  0.00035  4.237521  0.004
C  C138  1  0.58891458  0.60952491  0.45559820  1  -0.027331  -0.004611  -0.074307  -0.163204  -0.003305  3.946162  -0.004
C  C139  1  0.50046240  0.92412621  0.33117186  1  1.551112  0.001414  0.192941  0.554861  1.5e-05  4.237457  0.003
C  C140  1  0.28304544  0.46201159  0.14243495  1  -0.059505  -0.000406  -0.089987  -0.094426  -0.000393  3.985541  0.0
C  C141  1  0.59367258  0.17309162  0.89872805  1  0.505109  0.000851  0.05071  0.092003  -0.000154  3.950496  0.0
C  C142  1  0.55361837  0.14303173  0.46280683  1  0.026428  -0.000891  -0.101328  -0.151841  -0.000617  3.997777  -0.001
C  C143  1  0.11254913  0.40641866  0.85354286  1  0.481176  -0.000904  0.058474  0.106639  9.1e-05  3.882039  0.0
C  C144  1  0.69875264  0.03288048  0.35783838  1  -0.051952  -0.000548  -0.090789  -0.096578  -0.000479  3.982592  0.0
C  C145  1  0.31322342  0.83421067  0.54878580  1  -0.081972  -0.000459  -0.007021  0.131223  -0.000292  3.963187  0.0
C  C146  1  0.09435888  0.11089463  0.53881210  1  0.003699  0.004545  -0.074916  -0.163895  0.003234  3.941714  0.004
C  C147  1  0.99335371  0.06673377  0.07759105  1  -0.057111  0.001525  -0.089316  -0.088263  0.001013  4.010481  0.001
C  C148  1  0.49524776  0.53450761  0.46759811  1  0.019034  0.003185  0.017561  0.099141  0.002167  3.979521  0.002
C  C149  1  0.90684956  0.02871231  0.59054619  1  -0.010688  0.005042  -0.069041  -0.150267  0.003561  3.899951  0.004
C  C150  1  0.50027913  0.03480209  0.96767739  1  -0.011468  0.003077  0.017114  0.097837  0.002091  3.978054  0.002
C  C151  1  0.81173580  0.32918618  0.44989575  1  -0.020397  0.000225  -0.00706  0.13222  0.000138  3.958781  0.0
C  C152  1  0.71695246  0.53799766  0.85754014  1  -0.059698  -0.000406  -0.089819  -0.094335  -0.000393  3.985801  0.0
C  C153  1  0.00027211  0.03482410  0.53236337  1  -0.013615  -0.003077  0.017116  0.097719  -0.002091  3.978289  -0.002
C  C154  1  0.73369714  0.38051744  0.39701717  1  -0.035354  7e-05  -0.09854  -0.14904  -1e-06  3.989203  0.0
C  C155  1  0.21695754  0.53800506  0.64243305  1  -0.059754  0.000406  -0.089981  -0.094157  0.000393  3.985395  0.0
C  C156  1  0.99957127  0.07585110  0.83115082  1  1.551448  -0.001413  0.192715  0.554795  -1.4e-05  4.237776  -0.003
C  C157  1  0.92200793  0.32814330  0.89343283  1  0.488255  -0.001018  0.05038  0.09281  -7.8e-05  3.949665  -0.001
C  C158  1  0.58804369  0.90637994  0.15157458  1  0.484001  0.001009  0.058665  0.112385  6.1e-05  3.880025  0.001
C  C159  1  0.00475609  0.46545833  0.96757134  1  0.018383  -0.003185  0.017443  0.098919  -0.002167  3.979455  -0.002
C  C160  1  0.38747785  0.59352956  0.35356594  1  0.481899  0.000902  0.05878  0.106935  -9.2e-05  3.881976  0.0
C  C161  1  0.94640106  0.85697161  0.96279883  1  0.026405  0.000892  -0.101455  -0.152121  0.000618  3.997774  0.001
C  C162  1  0.42200342  0.32812754  0.60661104  1  0.487111  0.001018  0.050637  0.093199  7.9e-05  3.950183  0.001
C  C163  1  0.24261421  0.88893500  0.60307519  1  -0.029138  -1.1e-05  -0.098647  -0.146431  3.9e-05  3.988206  0.0
C  C164  1  0.25428925  0.24584178  0.00327904  1  -0.041441  -2e-05  -0.155457  -0.244783  -1.2e-05  3.95693  0.0
C  C165  1  0.81323049  0.83421871  0.95118783  1  -0.082147  0.000461  -0.00708  0.131254  0.000293  3.963217  0.0
C  C166  1  0.99972499  0.96519643  0.46762866  1  0.024756  -0.003069  0.017186  0.097684  -0.002091  3.978054  -0.002
C  C167  1  0.90633027  0.82689917  0.39869143  1  0.505242  -0.000856  0.050415  0.091747  0.000153  3.950711  0.0
C  C168  1  0.61258091  0.40636062  0.64647239  1  0.480203  0.000899  0.058291  0.106729  -9e-05  3.882807  0.0
C  C169  1  0.25736622  0.11109583  0.10308559  1  -0.026687  1e-05  -0.098701  -0.14657  -3.9e-05  3.988597  0.0
C  C170  1  0.50476236  0.46541934  0.53245942  1  0.062558  0.003173  0.017385  0.099419  0.002166  3.979235  0.002
C  C171  1  0.09366577  0.17312067  0.60130003  1  0.504648  -0.00085  0.050536  0.091914  0.000155  3.950371  0.0
C  C172  1  0.90563996  0.88912354  0.46117993  1  0.003321  0.004548  -0.074733  -0.163453  0.003234  3.941782  0.004
C  C173  1  0.89251141  0.52870782  0.08534539  1  -0.025917  0.00509  -0.070371  -0.152306  0.00358  3.902478  0.004
C  C174  1  0.43424990  0.99038023  0.62937275  1  -0.061307  -0.008552  -0.025482  -0.039109  -0.006226  3.98054  -0.007
C  C175  1  0.68826076  0.67083609  0.94989094  1  -0.019332  -0.000227  -0.007251  0.131811  -0.000139  3.958682  0.0
N  N176  1  0.47970970  0.66399125  0.34277457  1  -1.237958  -0.083434  -0.343508  -0.220076  -0.058673  3.59744  -0.073
N  N177  1  0.00531527  0.16413599  0.65761083  1  -1.238978  0.08173  -0.341813  -0.220581  0.057524  3.595563  0.072
N  N178  1  0.49470385  0.83585402  0.15764424  1  -1.233582  -0.081729  -0.341873  -0.220575  -0.057533  3.595244  -0.072
N  N179  1  0.50532443  0.16410468  0.84241725  1  -1.238572  -0.081736  -0.342094  -0.220606  -0.057533  3.595814  -0.072
N  N180  1  0.99468235  0.83588001  0.34238401  1  -1.238896  0.081733  -0.341953  -0.220698  0.057526  3.595623  0.072
N  N181  1  0.52031887  0.33593228  0.65728974  1  -1.238581  -0.083437  -0.343253  -0.219852  -0.058683  3.598063  -0.073
N  N182  1  0.97966726  0.66404682  0.15725482  1  -1.237706  0.083418  -0.34351  -0.220269  0.058664  3.597755  0.073
N  N183  1  0.02030289  0.33597170  0.84273946  1  -1.238242  0.083428  -0.343508  -0.220171  0.058668  3.597432  0.073
O  O184  1  0.37815379  0.92219594  0.32233869  1  -1.174581  -0.000617  -0.328775  -0.569978  -0.000101  2.150815  -0.001
O  O185  1  0.59163944  0.59087731  0.17917736  1  -1.183781  -0.000726  -0.329115  -0.56767  -0.000235  2.149175  -0.002
O  O186  1  0.87812660  0.92227298  0.17770213  1  -1.17507  0.000617  -0.328683  -0.570001  0.000101  2.151313  0.001
O  O187  1  0.08048101  0.85390493  0.19197542  1  -1.117384  0.120743  -0.331783  -0.554635  0.080804  2.349445  0.109
O  O188  1  0.41950277  0.14609536  0.69202331  1  -1.118033  -0.120737  -0.331925  -0.554931  -0.080799  2.349908  -0.109
O  O189  1  0.58051541  0.85385201  0.30805795  1  -1.117674  -0.120708  -0.331938  -0.554654  -0.080788  2.349439  -0.109
O  O190  1  0.62186322  0.07776871  0.67769569  1  -1.174726  -0.000614  -0.328576  -0.570003  -9.9e-05  2.151486  -0.001
O  O191  1  0.09159284  0.59089993  0.32079148  1  -1.183841  0.000729  -0.329378  -0.567722  0.000237  2.149711  0.002
O  O192  1  0.11647204  0.35281676  0.69435759  1  -1.110952  0.121418  -0.330748  -0.551041  0.081663  2.322261  0.109
O  O193  1  0.61643608  0.35278249  0.80566362  1  -1.110977  -0.121389  -0.330957  -0.551077  -0.081653  2.322665  -0.109
O  O194  1  0.38354369  0.64717634  0.19438771  1  -1.110959  -0.121423  -0.33065  -0.550982  -0.081669  2.322089  -0.109
O  O195  1  0.12188519  0.07778400  0.82231869  1  -1.175193  0.000617  -0.328658  -0.570054  0.000101  2.151015  0.001
O  O196  1  0.40835082  0.40913468  0.82078925  1  -1.183888  -0.000724  -0.329315  -0.56784  -0.000233  2.149491  -0.002
O  O197  1  0.91951586  0.14611336  0.80801548  1  -1.117581  0.120748  -0.33187  -0.554635  0.080808  2.349549  0.109
O  O198  1  0.90837446  0.40912924  0.67917796  1  -1.183876  0.000726  -0.329199  -0.567582  0.000235  2.149349  0.002
O  O199  1  0.88350010  0.64721135  0.30563444  1  -1.111935  0.121417  -0.330934  -0.551171  0.081669  2.322701  0.109
