# generated using pymatgen
data_CdH34C38(NO)4
_symmetry_space_group_name_H-M   'P 1'
_cell_length_a   10.31567494
_cell_length_b   12.38560148
_cell_length_c   28.25312417
_cell_angle_alpha   90.00044538
_cell_angle_beta   89.99984901
_cell_angle_gamma   89.99979350
_symmetry_Int_Tables_number   1
_chemical_formula_structural   CdH34C38(NO)4
_chemical_formula_sum   'Cd4 H136 C152 N16 O16'
_cell_volume   3609.78410629
_cell_formula_units_Z   4
loop_
 _symmetry_equiv_pos_site_id
 _symmetry_equiv_pos_as_xyz
  1  'x, y, z'
loop_
 _atom_site_type_symbol
 _atom_site_label
 _atom_site_symmetry_multiplicity
 _atom_site_fract_x
 _atom_site_fract_y
 _atom_site_fract_z
 _atom_site_occupancy
 _atom_site_pbe_bader_charge
 _atom_site_pbe_bader_spin_density
 _atom_site_pbe_cm5_charge
 _atom_site_pbe_ddec_charge
 _atom_site_pbe_ddec_spin_density
 _atom_site_pbe_ddec_sum_bond_order
 _atom_site_pbe_magmom
Cd  Cd0  1  0.76724710  0.15319391  0.93850424  1  1.237357  0  0.762552  0.782563  0  2.222082  0
Cd  Cd1  1  0.73274553  0.84681269  0.43850835  1  1.237399  0  0.762491  0.782501  0  2.222072  0
Cd  Cd2  1  0.23274817  0.65318808  0.56149431  1  1.237496  0  0.762533  0.782475  0  2.222181  0
Cd  Cd3  1  0.26725153  0.34680527  0.06149384  1  1.237354  0  0.762541  0.782513  0  2.222016  0
H  H4  1  0.39124859  0.04863626  0.15141819  1  0.076036  0  0.10243  0.106535  0  1.009355  0
H  H5  1  0.10875822  0.95136271  0.65141307  1  0.075988  0  0.102382  0.106484  0  1.00941  0
H  H6  1  0.60875849  0.54863117  0.34858298  1  0.076075  0  0.102434  0.106534  0  1.009338  0
H  H7  1  0.89123866  0.45136416  0.84858331  1  0.076051  0  0.102465  0.106577  0  1.009201  0
H  H8  1  0.39491283  0.88844334  0.20509546  1  0.046629  0  0.097734  0.092264  0  1.014863  0
H  H9  1  0.10509649  0.11154770  0.70509668  1  0.046707  0  0.097639  0.092158  0  1.014747  0
H  H10  1  0.60509858  0.38844066  0.29490227  1  0.046751  0  0.097696  0.092233  0  1.014637  0
H  H11  1  0.89491737  0.61155776  0.79490067  1  0.046722  0  0.097704  0.092249  0  1.014794  0
H  H12  1  0.45346681  0.69697186  0.21939264  1  0.068288  0  0.09814  0.094119  0  1.028375  0
H  H13  1  0.04654048  0.30301702  0.71939633  1  0.06862  0  0.098084  0.094122  0  1.028477  0
H  H14  1  0.54654447  0.19697071  0.28060692  1  0.068444  0  0.098118  0.094129  0  1.028472  0
H  H15  1  0.95346577  0.80302907  0.78060733  1  0.068313  0  0.098128  0.094157  0  1.028303  0
H  H16  1  0.56736771  0.59106429  0.15690834  1  0.049727  0  0.099126  0.093499  0  1.01282  0
H  H17  1  0.93263761  0.40893006  0.65691273  1  0.049826  0  0.099196  0.093554  0  1.012801  0
H  H18  1  0.43264306  0.09106943  0.34309085  1  0.049744  0  0.099178  0.093572  0  1.012808  0
H  H19  1  0.06736139  0.90893375  0.84309554  1  0.049707  0  0.099209  0.093604  0  1.012635  0
H  H20  1  0.63016931  0.67796040  0.08140990  1  0.061351  0  0.099086  0.100601  0  1.020668  0
H  H21  1  0.86983558  0.32203343  0.58141194  1  0.06153  0  0.098963  0.100461  0  1.020619  0
H  H22  1  0.36983624  0.17796060  0.41858888  1  0.061354  0  0.099017  0.100549  0  1.020628  0
H  H23  1  0.13016961  0.82202696  0.91859285  1  0.061474  0  0.098967  0.1004  0  1.02062  0
H  H24  1  0.63355719  0.84144493  0.02947256  1  0.071492  0  0.099352  0.099488  0  1.038799  0
H  H25  1  0.86644614  0.15854959  0.52947581  1  0.071712  0  0.099379  0.099509  0  1.038795  0
H  H26  1  0.36644862  0.34144283  0.47052642  1  0.071561  0  0.099389  0.099484  0  1.038895  0
H  H27  1  0.13355298  0.65854726  0.97052559  1  0.071582  0  0.099378  0.099545  0  1.038825  0
H  H28  1  0.07009334  0.16610782  0.97136504  1  0.139593  0  0.120298  0.098951  0  1.002314  0
H  H29  1  0.42992085  0.83390005  0.47136891  1  0.139522  0  0.120353  0.098984  0  1.002428  0
H  H30  1  0.92991253  0.66610901  0.52863249  1  0.139686  0  0.120335  0.098966  0  1.002342  0
H  H31  1  0.57009371  0.33388630  0.02862686  1  0.139528  0  0.12036  0.099041  0  1.002234  0
H  H32  1  0.81176496  0.91046215  0.96920796  1  0.110963  0  0.111897  0.086246  0  1.030714  0
H  H33  1  0.68823907  0.08955308  0.46921059  1  0.11095  0  0.111932  0.086268  0  1.030575  0
H  H34  1  0.18823306  0.41045037  0.53079359  1  0.110958  0  0.111884  0.086276  0  1.030597  0
H  H35  1  0.31176396  0.58953759  0.03078966  1  0.111029  0  0.11191  0.086308  0  1.030648  0
H  H36  1  0.97082663  0.78779889  0.00913473  1  0.038566  0  0.104269  0.111033  0  1.016713  0
H  H37  1  0.52916618  0.21221626  0.50913248  1  0.038612  0  0.104259  0.111032  0  1.016573  0
H  H38  1  0.02916487  0.28779251  0.49087079  1  0.038366  0  0.104264  0.111085  0  1.01667  0
H  H39  1  0.47082689  0.71220522  0.99086521  1  0.038643  0  0.104243  0.111012  0  1.016662  0
H  H40  1  0.24014312  0.05607291  0.01048590  1  0.163319  0  0.105606  0.131566  0  1.039977  0
H  H41  1  0.25986567  0.94393407  0.51048769  1  0.163475  0  0.105702  0.131653  0  1.04  0
H  H42  1  0.75986296  0.55606986  0.48951353  1  0.16344  0  0.105683  0.131647  0  1.039948  0
H  H43  1  0.74014577  0.44393119  0.98951150  1  0.163243  0  0.105636  0.131674  0  1.040002  0
H  H44  1  0.30343707  0.89200106  0.04749736  1  0.052401  0  0.092797  0.095985  0  1.027275  0
H  H45  1  0.19656273  0.10800900  0.54749706  1  0.05253  0  0.092811  0.09599  0  1.027257  0
H  H46  1  0.69656367  0.39199846  0.45250286  1  0.052435  0  0.092797  0.095975  0  1.027223  0
H  H47  1  0.80343661  0.60800516  0.95250204  1  0.052504  0  0.092799  0.095963  0  1.027274  0
H  H48  1  0.25653406  0.78108412  0.01263946  1  0.017412  0  0.09422  0.093997  0  0.995682  0
H  H49  1  0.24346793  0.21892774  0.51264126  1  0.017303  0  0.094209  0.09403  0  0.995625  0
H  H50  1  0.74346716  0.28107878  0.48736038  1  0.017354  0  0.094208  0.094012  0  0.995631  0
H  H51  1  0.75653577  0.71892385  0.98736105  1  0.017323  0  0.094192  0.093993  0  0.99563  0
H  H52  1  0.09399299  0.72328148  0.07151009  1  0.0619  0  0.088495  0.084188  0  1.011633  0
H  H53  1  0.40601730  0.27672578  0.57151194  1  0.061785  0  0.08847  0.084142  0  1.011619  0
H  H54  1  0.90601140  0.22327702  0.42849061  1  0.061892  0  0.088482  0.084211  0  1.011626  0
H  H55  1  0.59398712  0.77672214  0.92848845  1  0.061953  0  0.088484  0.084174  0  1.011649  0
H  H56  1  0.24693002  0.73587110  0.09807737  1  0.03193  0  0.091517  0.093474  0  0.984156  0
H  H57  1  0.25307620  0.26413743  0.59807932  1  0.03183  0  0.091518  0.093415  0  0.98418  0
H  H58  1  0.75307140  0.23586341  0.40192126  1  0.031835  0  0.091534  0.093503  0  0.984112  0
H  H59  1  0.74692634  0.76413609  0.90192173  1  0.031856  0  0.09152  0.093452  0  0.984177  0
H  H60  1  0.04458997  0.91728611  0.10004676  1  0.053061  0  0.093467  0.097015  0  1.00531  0
H  H61  1  0.45541526  0.08272165  0.60004542  1  0.053115  0  0.09348  0.097061  0  1.005255  0
H  H62  1  0.95541744  0.41727374  0.39995390  1  0.053453  0  0.093508  0.097069  0  1.005243  0
H  H63  1  0.54458709  0.58272492  0.89995324  1  0.053209  0  0.093528  0.097083  0  1.005272  0
H  H64  1  0.19094287  0.91443851  0.13166868  1  0.00744  0  0.089604  0.088619  0  1.013543  0
H  H65  1  0.30905923  0.08556093  0.63166465  1  0.007525  0  0.089661  0.088701  0  1.013471  0
H  H66  1  0.80905680  0.41444297  0.36833516  1  0.007453  0  0.089659  0.08868  0  1.013493  0
H  H67  1  0.69094893  0.58555674  0.86833473  1  0.007372  0  0.089657  0.088695  0  1.013476  0
H  H68  1  0.89616233  0.73122376  0.11583792  1  0.049072  0  0.105645  0.113137  0  0.996678  0
H  H69  1  0.60383747  0.26877309  0.61584003  1  0.049108  0  0.105683  0.113198  0  0.996657  0
H  H70  1  0.10383136  0.23122335  0.38415892  1  0.049232  0  0.105702  0.113222  0  0.996599  0
H  H71  1  0.39617086  0.76877249  0.88415892  1  0.049164  0  0.105713  0.113209  0  0.996634  0
H  H72  1  0.77798190  0.65682687  0.18498418  1  0.07531  0  0.102751  0.066786  0  1.021313  0
H  H73  1  0.72202031  0.34317928  0.68498537  1  0.075258  0  0.102709  0.066714  0  1.02126  0
H  H74  1  0.22201986  0.15682246  0.31501382  1  0.075287  0  0.102719  0.066752  0  1.021278  0
H  H75  1  0.27798673  0.84317215  0.81501418  1  0.075414  0  0.102738  0.066777  0  1.021313  0
H  H76  1  0.16250922  0.87884391  0.21413491  1  0.061961  0  0.101094  0.106402  0  1.012817  0
H  H77  1  0.33749616  0.12115940  0.71413558  1  0.062009  0  0.10109  0.106433  0  1.012934  0
H  H78  1  0.83749448  0.37883956  0.28586314  1  0.062488  0  0.101093  0.106431  0  1.012954  0
H  H79  1  0.66251475  0.62115546  0.78586215  1  0.06231  0  0.101115  0.106454  0  1.012809  0
H  H80  1  0.03052943  0.79979564  0.27960441  1  0.092931  0  0.107184  0.072353  0  0.996544  0
H  H81  1  0.46947064  0.20019995  0.77960664  1  0.09285  0  0.107157  0.072349  0  0.996508  0
H  H82  1  0.96946687  0.29979862  0.22039337  1  0.092813  0  0.107155  0.072343  0  0.996583  0
H  H83  1  0.53053508  0.70019605  0.72039278  1  0.092781  0  0.107155  0.072372  0  0.996584  0
H  H84  1  0.04940171  0.61594994  0.65098532  1  0.11358  0  0.116759  0.098688  0  1.003812  0
H  H85  1  0.45060510  0.38405630  0.15098480  1  0.113471  0  0.116733  0.098668  0  1.003767  0
H  H86  1  0.95059760  0.11595122  0.84901487  1  0.113242  0  0.116744  0.098654  0  1.003768  0
H  H87  1  0.54938210  0.88404735  0.34901504  1  0.113373  0  0.116676  0.098649  0  1.003911  0
H  H88  1  0.04802893  0.53326190  0.73219213  1  0.056601  0  0.103125  0.105821  0  1.007254  0
H  H89  1  0.45197439  0.46674577  0.23219260  1  0.056604  0  0.103146  0.105864  0  1.00715  0
H  H90  1  0.95197365  0.03326416  0.76780566  1  0.056589  0  0.103143  0.105802  0  1.007195  0
H  H91  1  0.54802021  0.96673377  0.26780752  1  0.056429  0  0.103081  0.105769  0  1.007219  0
H  H92  1  0.41569123  0.49899560  0.62282841  1  0.10186  0  0.115918  0.092726  0  0.997886  0
H  H93  1  0.08431190  0.50100045  0.12282688  1  0.101714  0  0.115941  0.092774  0  0.997915  0
H  H94  1  0.58430737  0.99899189  0.87717026  1  0.101908  0  0.115908  0.092752  0  0.9979  0
H  H95  1  0.91567697  0.00100071  0.37717555  1  0.10204  0  0.115937  0.092811  0  0.9979  0
H  H96  1  0.43390321  0.41601687  0.70371170  1  0.09579  0  0.099275  0.106089  0  1.05593  0
H  H97  1  0.06609255  0.58397900  0.20371118  1  0.095802  0  0.099268  0.106099  0  1.055912  0
H  H98  1  0.56610351  0.91601501  0.79628633  1  0.095361  0  0.099237  0.10594  0  1.056052  0
H  H99  1  0.93389111  0.08397454  0.29629153  1  0.095762  0  0.099313  0.106123  0  1.05598  0
H  H100  1  0.15103056  0.38547527  0.78328210  1  0.029741  0  0.09517  0.097108  0  0.977263  0
H  H101  1  0.34895784  0.61453250  0.28328141  1  0.029868  0  0.095169  0.097139  0  0.977278  0
H  H102  1  0.84897338  0.88547762  0.71671653  1  0.029643  0  0.095167  0.097101  0  0.977436  0
H  H103  1  0.65102666  0.11452183  0.21671928  1  0.029678  0  0.095169  0.097136  0  0.977386  0
H  H104  1  0.31655352  0.35287661  0.77453072  1  0.041789  0  0.090469  0.088832  0  1.023447  0
H  H105  1  0.18344173  0.64712697  0.27452853  1  0.041666  0  0.090541  0.088904  0  1.023315  0
H  H106  1  0.68345444  0.85287315  0.72546992  1  0.041748  0  0.090457  0.088839  0  1.023395  0
H  H107  1  0.81654360  0.14712323  0.22547368  1  0.041894  0  0.090497  0.088871  0  1.023306  0
H  H108  1  0.37671680  0.54169519  0.79985494  1  0.026779  0  0.083281  0.073441  0  1.04327  0
H  H109  1  0.12327827  0.45831207  0.29985641  1  0.026749  0  0.083292  0.07348  0  1.043353  0
H  H110  1  0.62327507  0.04168996  0.70014500  1  0.026905  0  0.083311  0.073459  0  1.043375  0
H  H111  1  0.87672218  0.95831323  0.20014757  1  0.026721  0  0.083292  0.073457  0  1.043407  0
H  H112  1  0.21234452  0.57250951  0.80770872  1  0.04367  0  0.088062  0.084662  0  1.005805  0
H  H113  1  0.28765534  0.42749950  0.30771134  1  0.043742  0  0.088083  0.084743  0  1.005694  0
H  H114  1  0.78765012  0.07250688  0.69228849  1  0.043769  0  0.088042  0.084683  0  1.005758  0
H  H115  1  0.71234913  0.92749213  0.19229077  1  0.043742  0  0.088057  0.084666  0  1.005789  0
H  H116  1  0.19263093  0.42635570  0.86909603  1  0.054892  0  0.096498  0.103932  0  1.004168  0
H  H117  1  0.30736461  0.57367136  0.36909276  1  0.054454  0  0.096474  0.103804  0  1.004202  0
H  H118  1  0.80736993  0.92634534  0.63090452  1  0.054876  0  0.096511  0.103903  0  1.004068  0
H  H119  1  0.69262976  0.07365178  0.13090638  1  0.054928  0  0.096512  0.103939  0  1.004044  0
H  H120  1  0.29333273  0.53359795  0.88482681  1  0.040082  0  0.095889  0.100741  0  0.985479  0
H  H121  1  0.20668015  0.46642050  0.38482929  1  0.040402  0  0.095845  0.100745  0  0.985334  0
H  H122  1  0.70666208  0.03358451  0.61517204  1  0.040323  0  0.095847  0.100673  0  0.985403  0
H  H123  1  0.79333675  0.96641152  0.11517402  1  0.040226  0  0.095832  0.100651  0  0.985448  0
H  H124  1  0.52724908  0.42167752  0.81592687  1  0.111005  0  0.101657  0.108795  0  1.025194  0
H  H125  1  0.97274539  0.57833176  0.31592912  1  0.111139  0  0.101646  0.108869  0  1.025142  0
H  H126  1  0.47275761  0.92165700  0.68407578  1  0.111164  0  0.101621  0.108713  0  1.025441  0
H  H127  1  0.02724702  0.07834013  0.18407498  1  0.111139  0  0.101588  0.108653  0  1.025299  0
H  H128  1  0.69828991  0.29988289  0.84704137  1  0.099283  0  0.112393  0.084446  0  1.005764  0
H  H129  1  0.80169562  0.70011967  0.34704491  1  0.099225  0  0.112444  0.084382  0  1.005862  0
H  H130  1  0.30171538  0.79987040  0.65295910  1  0.099223  0  0.112444  0.084407  0  1.005849  0
H  H131  1  0.19828754  0.20012779  0.15295678  1  0.099163  0  0.112483  0.084423  0  1.005838  0
H  H132  1  0.28853836  0.32621163  0.93485031  1  0.13634  0  0.106158  0.133225  0  1.033996  0
H  H133  1  0.21144799  0.67379802  0.43485490  1  0.136362  0  0.106084  0.133104  0  1.034158  0
H  H134  1  0.71146100  0.82620120  0.56514636  1  0.136291  0  0.106092  0.133175  0  1.033904  0
H  H135  1  0.78853916  0.17379314  0.06514811  1  0.136293  0  0.106125  0.133191  0  1.034041  0
H  H136  1  0.47045875  0.20964963  0.96136709  1  0.152325  0  0.113792  0.093459  0  1.042985  0
H  H137  1  0.02952062  0.79034596  0.46136943  1  0.152349  0  0.11372  0.093402  0  1.043034  0
H  H138  1  0.52953724  0.70964897  0.53863130  1  0.152251  0  0.113821  0.093516  0  1.042896  0
H  H139  1  0.97045924  0.29034329  0.03863080  1  0.152364  0  0.113782  0.093434  0  1.042989  0
C  C140  1  0.60059850  0.04365790  0.00372185  1  1.590966  0  0.191035  0.560707  0  4.245276  0
C  C141  1  0.89940695  0.95633697  0.50372284  1  1.59012  0  0.190952  0.560643  0  4.245252  0
C  C142  1  0.39940376  0.54366492  0.49627506  1  1.590429  0  0.19097  0.560643  0  4.245262  0
C  C143  1  0.10060153  0.45633936  0.99627710  1  1.591032  0  0.191051  0.560665  0  4.245374  0
C  C144  1  0.54577097  0.99160022  0.04756006  1  0.004689  0  -0.008256  -0.036303  0  3.948014  0
C  C145  1  0.95422932  0.00839704  0.54755882  1  0.005261  0  -0.008193  -0.036306  0  3.948019  0
C  C146  1  0.45423127  0.49159996  0.45243943  1  0.005016  0  -0.008271  -0.036392  0  3.948131  0
C  C147  1  0.04576561  0.50839466  0.95244065  1  0.004872  0  -0.008345  -0.036379  0  3.948052  0
C  C148  1  0.47538584  0.05073151  0.08249127  1  -0.005142  0  -0.007461  -0.033739  0  3.949824  0
C  C149  1  0.02461274  0.94926382  0.58249011  1  -0.005408  0  -0.007411  -0.033627  0  3.949614  0
C  C150  1  0.52461542  0.55072708  0.41750991  1  -0.004949  0  -0.007486  -0.033648  0  3.949841  0
C  C151  1  0.97538124  0.44927028  0.91750910  1  -0.005487  0  -0.007555  -0.034007  0  3.949802  0
C  C152  1  0.44382315  0.00166205  0.12493465  1  -0.040446  0  -0.085221  -0.16161  0  3.964139  0
C  C153  1  0.05617028  0.99833726  0.62493292  1  -0.040292  0  -0.085286  -0.161671  0  3.964344  0
C  C154  1  0.55617832  0.50165839  0.37506530  1  -0.040565  0  -0.085235  -0.161602  0  3.964374  0
C  C155  1  0.94382736  0.49833579  0.87506539  1  -0.040049  0  -0.085251  -0.161563  0  3.964091  0
C  C156  1  0.47754267  0.89313111  0.13470534  1  -0.021084  0  -0.008037  0.074644  0  4.013121  0
C  C157  1  0.02246135  0.10686192  0.63470909  1  -0.021385  0  -0.008018  0.074543  0  4.013325  0
C  C158  1  0.52246679  0.39312991  0.36529312  1  -0.021161  0  -0.008032  0.074472  0  4.01343  0
C  C159  1  0.97754381  0.60686248  0.86529354  1  -0.021714  0  -0.007964  0.074605  0  4.013196  0
C  C160  1  0.44596156  0.84189785  0.17809162  1  -0.054198  0  -0.092145  -0.139294  0  4.004158  0
C  C161  1  0.05404990  0.15809433  0.67809410  1  -0.054509  0  -0.092077  -0.1391  0  4.003916  0
C  C162  1  0.55405297  0.34189176  0.32190843  1  -0.054352  0  -0.091995  -0.138976  0  4.003772  0
C  C163  1  0.94595988  0.65809744  0.82190659  1  -0.054343  0  -0.09215  -0.139306  0  4.003945  0
C  C164  1  0.47851319  0.73544604  0.18597409  1  -0.052833  0  -0.093629  -0.082494  0  4.033162  0
C  C165  1  0.02149045  0.26454951  0.68597732  1  -0.053214  0  -0.093634  -0.082741  0  4.03319  0
C  C166  1  0.52149792  0.23544152  0.31402560  1  -0.053041  0  -0.093682  -0.082757  0  4.033272  0
C  C167  1  0.97851596  0.76455481  0.81402692  1  -0.052721  0  -0.093647  -0.082607  0  4.033201  0
C  C168  1  0.54430459  0.67572871  0.15069077  1  -0.063057  0  -0.094821  -0.086907  0  4.043932  0
C  C169  1  0.95570659  0.32426634  0.65069097  1  -0.063066  0  -0.09478  -0.086738  0  4.044058  0
C  C170  1  0.45570097  0.17573389  0.34931048  1  -0.063224  0  -0.094868  -0.086904  0  4.044099  0
C  C171  1  0.04429956  0.82425891  0.84931277  1  -0.063079  0  -0.094841  -0.086916  0  4.044438  0
C  C172  1  0.57875706  0.72376713  0.10849444  1  -0.039778  0  -0.090023  -0.13168  0  3.982476  0
C  C173  1  0.92125539  0.27623121  0.60849769  1  -0.03976  0  -0.089902  -0.131574  0  3.982614  0
C  C174  1  0.42124926  0.22376751  0.39150414  1  -0.039766  0  -0.089936  -0.131649  0  3.982729  0
C  C175  1  0.07875291  0.77622846  0.89150234  1  -0.039835  0  -0.089929  -0.131519  0  3.982781  0
C  C176  1  0.54619670  0.83298504  0.09930274  1  -0.097804  0  -0.007949  0.072366  0  4.012082  0
C  C177  1  0.95382164  0.16701636  0.59930346  1  -0.097363  0  -0.007989  0.072455  0  4.012275  0
C  C178  1  0.45381496  0.33297903  0.40069586  1  -0.097507  0  -0.007999  0.072461  0  4.012231  0
C  C179  1  0.04619199  0.66700902  0.90069655  1  -0.097607  0  -0.008028  0.072427  0  4.012162  0
C  C180  1  0.57888098  0.88531958  0.05635500  1  -0.017517  0  -0.086516  -0.164172  0  3.973716  0
C  C181  1  0.92112894  0.11467945  0.55635876  1  -0.018107  0  -0.086573  -0.164175  0  3.973829  0
C  C182  1  0.42112270  0.38531846  0.44364449  1  -0.017692  0  -0.086522  -0.164117  0  3.973628  0
C  C183  1  0.07887812  0.61467681  0.94364533  1  -0.017853  0  -0.086474  -0.164145  0  3.973716  0
C  C184  1  0.42433710  0.16295134  0.07432070  1  1.592444  0  0.189403  0.559449  0  4.254449  0
C  C185  1  0.07566057  0.83703820  0.57431805  1  1.59235  0  0.18937  0.559202  0  4.254769  0
C  C186  1  0.57565107  0.66295416  0.42568086  1  1.592297  0  0.189332  0.559123  0  4.254793  0
C  C187  1  0.92432905  0.33704334  0.92568183  1  1.592208  0  0.189678  0.559908  0  4.253931  0
C  C188  1  0.05231279  0.08130784  0.97977530  1  0.421802  0  0.049954  0.10387  0  3.934133  0
C  C189  1  0.44769456  0.91869130  0.47977661  1  0.422437  0  0.050033  0.103976  0  3.933758  0
C  C190  1  0.94769054  0.58130803  0.52022336  1  0.422029  0  0.049947  0.103871  0  3.933892  0
C  C191  1  0.55231091  0.41868633  0.02021910  1  0.422183  0  0.050012  0.103943  0  3.933843  0
C  C192  1  0.90833829  0.93843166  0.97916863  1  0.441489  0  0.03691  0.081494  0  3.978382  0
C  C193  1  0.59165501  0.06157970  0.47917267  1  0.441582  0  0.03699  0.081618  0  3.978919  0
C  C194  1  0.09165477  0.43842404  0.52083125  1  0.441452  0  0.036982  0.081534  0  3.978675  0
C  C195  1  0.40834620  0.56157101  0.02083173  1  0.441431  0  0.03694  0.081403  0  3.978569  0
C  C196  1  0.99729784  0.87128120  0.00149465  1  -0.083802  0  -0.092826  -0.201145  0  3.975955  0
C  C197  1  0.50270472  0.12872493  0.50149425  1  -0.084068  0  -0.092891  -0.201194  0  3.976368  0
C  C198  1  0.00270105  0.37127665  0.49850833  1  -0.083584  0  -0.092885  -0.201287  0  3.976222  0
C  C199  1  0.49730035  0.62871636  0.99850669  1  -0.083931  0  -0.092782  -0.201058  0  3.976163  0
C  C200  1  0.14719439  0.01874010  0.00174809  1  -0.035147  0  -0.086794  -0.182774  0  3.898251  0
C  C201  1  0.35280380  0.98126672  0.50175133  1  -0.035403  0  -0.087007  -0.182939  0  3.898239  0
C  C202  1  0.85280603  0.51873854  0.49824838  1  -0.035372  0  -0.08696  -0.182906  0  3.898251  0
C  C203  1  0.64719876  0.48126105  0.99824516  1  -0.034812  0  -0.086929  -0.182975  0  3.898236  0
C  C204  1  0.12046415  0.91112485  0.01339364  1  0.042791  0  0.008674  0.159053  0  3.949552  0
C  C205  1  0.37953783  0.08888622  0.51339452  1  0.041908  0  0.008775  0.159073  0  3.94951  0
C  C206  1  0.87953456  0.41111989  0.48660487  1  0.041897  0  0.008763  0.159151  0  3.949463  0
C  C207  1  0.62046547  0.58888030  0.98660558  1  0.042051  0  0.008674  0.159021  0  3.949513  0
C  C208  1  0.21984210  0.84158853  0.03797837  1  -0.014523  0  -0.157653  -0.201204  0  3.930777  0
C  C209  1  0.28015679  0.15841974  0.53798029  1  -0.013845  0  -0.157743  -0.201372  0  3.930768  0
C  C210  1  0.78015788  0.34158666  0.46202062  1  -0.013922  0  -0.15769  -0.201282  0  3.930709  0
C  C211  1  0.71984232  0.65841794  0.96202040  1  -0.013941  0  -0.157701  -0.201304  0  3.930719  0
C  C212  1  0.16788037  0.78278281  0.08194122  1  -0.022431  0  -0.161573  -0.134512  0  3.91291  0
C  C213  1  0.33212112  0.21722705  0.58194223  1  -0.022463  0  -0.161533  -0.134321  0  3.912732  0
C  C214  1  0.83211890  0.28277516  0.41805757  1  -0.022673  0  -0.161614  -0.134615  0  3.9128  0
C  C215  1  0.66787872  0.71722381  0.91805654  1  -0.022803  0  -0.16153  -0.13441  0  3.912769  0
C  C216  1  0.11269027  0.86265499  0.11822445  1  -0.0081  0  -0.16109  -0.201269  0  3.941142  0
C  C217  1  0.38731386  0.13734986  0.61822478  1  -0.007966  0  -0.1611  -0.201341  0  3.941081  0
C  C218  1  0.88731156  0.36264977  0.38177319  1  -0.007996  0  -0.161167  -0.20133  0  3.941205  0
C  C219  1  0.61269310  0.63734857  0.88177301  1  -0.007779  0  -0.161173  -0.201373  0  3.941223  0
C  C220  1  0.04162945  0.81161716  0.15887371  1  0.002749  0  0.01107  0.166831  0  3.944083  0
C  C221  1  0.45836955  0.18838841  0.65887414  1  0.002787  0  0.011135  0.166935  0  3.943938  0
C  C222  1  0.95836873  0.31160939  0.34112412  1  0.002759  0  0.011195  0.166974  0  3.944014  0
C  C223  1  0.54163913  0.68838742  0.84112347  1  0.003128  0  0.011115  0.166888  0  3.944106  0
C  C224  1  0.93117781  0.74773433  0.15156672  1  -0.039412  0  -0.086522  -0.186405  0  3.934491  0
C  C225  1  0.56881785  0.25227285  0.65156845  1  -0.039707  0  -0.086529  -0.186542  0  3.934621  0
C  C226  1  0.06881871  0.24773015  0.34842947  1  -0.039753  0  -0.086541  -0.186538  0  3.934775  0
C  C227  1  0.43118764  0.75227070  0.84843008  1  -0.041033  0  -0.08652  -0.186489  0  3.93476  0
C  C228  1  0.86459947  0.70594270  0.19040522  1  0.492984  0  0.034555  0.085864  0  4.031056  0
C  C229  1  0.63539204  0.29406517  0.69040738  1  0.493351  0  0.034495  0.085925  0  4.031234  0
C  C230  1  0.13539336  0.20593683  0.30959154  1  0.493367  0  0.034416  0.085743  0  4.031422  0
C  C231  1  0.36461231  0.79406011  0.80959129  1  0.493881  0  0.034406  0.085706  0  4.031431  0
C  C232  1  0.07793031  0.82930984  0.20600585  1  -0.091042  0  -0.092499  -0.203415  0  3.970537  0
C  C233  1  0.42207029  0.17068768  0.70600909  1  -0.091112  0  -0.0925  -0.203423  0  3.970522  0
C  C234  1  0.92206780  0.32930861  0.29399026  1  -0.091528  0  -0.09248  -0.203402  0  3.97052  0
C  C235  1  0.57794041  0.67068656  0.79399200  1  -0.091063  0  -0.09257  -0.203492  0  3.970455  0
C  C236  1  0.00431221  0.78497169  0.24266017  1  0.47291  0  0.035569  0.083733  0  4.041886  0
C  C237  1  0.49569103  0.21502890  0.74266207  1  0.472997  0  0.035501  0.083586  0  4.042077  0
C  C238  1  0.99568706  0.28497202  0.25733686  1  0.472794  0  0.035487  0.083576  0  4.042013  0
C  C239  1  0.50431947  0.71502492  0.75733669  1  0.472868  0  0.035536  0.083631  0  4.041999  0
C  C240  1  0.13115308  0.56890983  0.66413489  1  0.436076  0  0.043856  0.090295  0  3.969498  0
C  C241  1  0.36885170  0.43109422  0.16413568  1  0.435956  0  0.043869  0.090337  0  3.969383  0
C  C242  1  0.86884643  0.06891031  0.83586266  1  0.435949  0  0.043793  0.090242  0  3.969597  0
C  C243  1  0.63113530  0.93107995  0.33586432  1  0.436983  0  0.044128  0.090619  0  3.969093  0
C  C244  1  0.13221063  0.52381108  0.70914860  1  0.025145  0  -0.088183  -0.189227  0  3.96724  0
C  C245  1  0.36778607  0.47619295  0.20914777  1  0.025267  0  -0.088196  -0.189302  0  3.967411  0
C  C246  1  0.86778811  0.02381238  0.79085057  1  0.02514  0  -0.088204  -0.189175  0  3.96748  0
C  C247  1  0.63220461  0.97618353  0.29085097  1  0.02544  0  -0.088158  -0.189177  0  3.967498  0
C  C248  1  0.33732883  0.50497062  0.64867551  1  0.512118  0  0.0462  0.096122  0  3.960705  0
C  C249  1  0.16266830  0.49502588  0.14867424  1  0.51217  0  0.046072  0.095937  0  3.960709  0
C  C250  1  0.66267096  0.00496876  0.85132395  1  0.51211  0  0.046204  0.096013  0  3.9607  0
C  C251  1  0.83731841  0.99502903  0.35132775  1  0.512383  0  0.04615  0.096109  0  3.960694  0
C  C252  1  0.34594672  0.45854371  0.69340216  1  -0.059589  0  -0.090728  -0.190314  0  3.945239  0
C  C253  1  0.15405203  0.54145197  0.19340212  1  -0.059534  0  -0.090721  -0.190286  0  3.945287  0
C  C254  1  0.65406176  0.95853935  0.80659707  1  -0.059125  0  -0.090692  -0.190029  0  3.94539  0
C  C255  1  0.84592503  0.04145604  0.30660080  1  -0.059616  0  -0.090727  -0.190252  0  3.945341  0
C  C256  1  0.24102083  0.46630557  0.72464196  1  -0.066319  0  0.011562  0.167443  0  3.959443  0
C  C257  1  0.25897478  0.53369147  0.22464285  1  -0.066347  0  0.011557  0.167385  0  3.959587  0
C  C258  1  0.75897985  0.96630761  0.77535801  1  -0.066274  0  0.011571  0.167323  0  3.959742  0
C  C259  1  0.74100910  0.03369045  0.27536005  1  -0.066149  0  0.011562  0.16735  0  3.959837  0
C  C260  1  0.24615954  0.41940961  0.77353346  1  -0.005588  0  -0.160763  -0.204671  0  3.950563  0
C  C261  1  0.25383475  0.58059637  0.27353310  1  -0.005639  0  -0.160766  -0.204614  0  3.950201  0
C  C262  1  0.75384426  0.91940676  0.72646671  1  -0.005564  0  -0.160709  -0.20461  0  3.950399  0
C  C263  1  0.74615280  0.08058963  0.22646783  1  -0.005704  0  -0.160762  -0.204667  0  3.950386  0
C  C264  1  0.28304386  0.50630755  0.80982728  1  -0.010721  0  -0.167065  -0.133655  0  3.937854  0
C  C265  1  0.21695113  0.49369907  0.30982913  1  -0.010659  0  -0.16712  -0.133867  0  3.937762  0
C  C266  1  0.71695204  0.00630510  0.69017077  1  -0.010895  0  -0.167108  -0.133751  0  3.937746  0
C  C267  1  0.78304722  0.99369388  0.19017285  1  -0.010686  0  -0.167111  -0.133744  0  3.937866  0
C  C268  1  0.28604988  0.46427774  0.86042727  1  -0.006773  0  -0.159805  -0.200947  0  3.944829  0
C  C269  1  0.21394863  0.53573705  0.36042715  1  -0.035793  0  -0.159867  -0.200886  0  3.944513  0
C  C270  1  0.71394694  0.96426782  0.63957305  1  -0.036048  0  -0.159888  -0.200952  0  3.944526  0
C  C271  1  0.78605269  0.03572945  0.13957398  1  -0.036034  0  -0.159836  -0.200907  0  3.944598  0
C  C272  1  0.39257139  0.38666903  0.87345113  1  -0.087731  0  0.009009  0.162659  0  3.937713  0
C  C273  1  0.10741928  0.61333872  0.37345244  1  -0.058551  0  0.009127  0.162749  0  3.937226  0
C  C274  1  0.60742674  0.88666001  0.62654857  1  -0.058899  0  0.00917  0.162852  0  3.937481  0
C  C275  1  0.89257201  0.11333865  0.12654895  1  -0.058915  0  0.009116  0.162762  0  3.937493  0
C  C276  1  0.50952846  0.37707605  0.84854656  1  -0.129332  0  -0.094048  -0.198198  0  3.971849  0
C  C277  1  0.99045609  0.62293058  0.34855071  1  -0.129243  0  -0.094086  -0.198451  0  3.971764  0
C  C278  1  0.49047165  0.87706216  0.65145594  1  -0.129215  0  -0.094037  -0.198062  0  3.971562  0
C  C279  1  0.00953031  0.12293682  0.15145425  1  -0.12936  0  -0.093992  -0.198022  0  3.971411  0
C  C280  1  0.60617758  0.30891223  0.86564716  1  0.516117  0  0.039009  0.086216  0  3.975812  0
C  C281  1  0.89380588  0.69109309  0.36565022  1  0.516826  0  0.039009  0.086429  0  3.975794  0
C  C282  1  0.39381992  0.80889671  0.63435405  1  0.516824  0  0.038976  0.086134  0  3.975567  0
C  C283  1  0.10617829  0.19110116  0.13435214  1  0.517176  0  0.038982  0.086211  0  3.975618  0
C  C284  1  0.37780550  0.32284611  0.91407981  1  -0.005087  0  -0.089926  -0.18711  0  3.913334  0
C  C285  1  0.12218681  0.67716398  0.41408274  1  -0.005342  0  -0.089791  -0.18692  0  3.913223  0
C  C286  1  0.62219290  0.82283632  0.58591967  1  -0.005083  0  -0.089852  -0.187113  0  3.913272  0
C  C287  1  0.87780420  0.17715920  0.08591958  1  -0.005119  0  -0.089901  -0.187107  0  3.913612  0
C  C288  1  0.47908059  0.25743304  0.92910277  1  0.442197  0  0.04066  0.093378  0  3.953272  0
C  C289  1  0.02090676  0.74257085  0.42910460  1  0.442074  0  0.040706  0.093451  0  3.95315  0
C  C290  1  0.52091519  0.75743298  0.57089543  1  0.442405  0  0.040602  0.093268  0  3.953312  0
C  C291  1  0.97907621  0.24256712  0.07089759  1  0.442106  0  0.040604  0.093302  0  3.953415  0
N  N292  1  0.93450337  0.04222798  0.96866878  1  -1.224021  0  -0.330073  -0.242929  0  3.508839  0
N  N293  1  0.56550454  0.95778885  0.46867095  1  -1.224061  0  -0.330209  -0.243058  0  3.508907  0
N  N294  1  0.06550013  0.54221889  0.53133222  1  -1.223905  0  -0.330072  -0.242907  0  3.508708  0
N  N295  1  0.43450269  0.45777070  0.03132808  1  -1.224316  0  -0.33015  -0.242964  0  3.508845  0
N  N296  1  0.89900613  0.72334713  0.23567668  1  -1.207597  0  -0.33964  -0.298842  0  3.327479  0
N  N297  1  0.60099280  0.27665750  0.73567670  1  -1.20773  0  -0.339548  -0.298764  0  3.327806  0
N  N298  1  0.10098953  0.22334459  0.26432225  1  -1.207719  0  -0.339502  -0.298633  0  3.327646  0
N  N299  1  0.39901743  0.77665235  0.76432192  1  -1.207619  0  -0.33946  -0.298612  0  3.327711  0
N  N300  1  0.59257205  0.25116571  0.90564087  1  -1.241559  0  -0.335031  -0.250873  0  3.518954  0
N  N301  1  0.90741305  0.74883789  0.40564341  1  -1.242187  0  -0.335089  -0.25101  0  3.518723  0
N  N302  1  0.40742763  0.75115752  0.59435836  1  -1.242415  0  -0.335065  -0.250831  0  3.518875  0
N  N303  1  0.09256698  0.24884045  0.09435809  1  -1.242169  0  -0.335055  -0.250812  0  3.518751  0
N  N304  1  0.23163524  0.55902051  0.63417531  1  -1.22712  0  -0.331184  -0.240878  0  3.523501  0
N  N305  1  0.26836975  0.44097897  0.13417340  1  -1.226932  0  -0.331043  -0.240721  0  3.523157  0
N  N306  1  0.76836431  0.05901940  0.86582469  1  -1.226611  0  -0.331083  -0.240759  0  3.523357  0
N  N307  1  0.73162108  0.94097785  0.36582735  1  -1.228474  0  -0.331314  -0.241265  0  3.523434  0
O  O308  1  0.60448219  0.99070075  0.96548932  1  -1.194728  0  -0.343455  -0.580386  0  2.125729  0
O  O309  1  0.89550151  0.00930875  0.46548970  1  -1.194582  0  -0.343499  -0.580423  0  2.125657  0
O  O310  1  0.39551063  0.49069892  0.53450862  1  -1.194628  0  -0.343414  -0.580347  0  2.125544  0
O  O311  1  0.10448054  0.50930283  0.03450957  1  -1.194786  0  -0.343482  -0.580411  0  2.125622  0
O  O312  1  0.65050097  0.13766784  0.00941233  1  -1.15411  0  -0.324247  -0.540575  0  2.227731  0
O  O313  1  0.84951704  0.86231825  0.50940951  1  -1.153971  0  -0.324079  -0.540481  0  2.227602  0
O  O314  1  0.34950863  0.63767734  0.49058773  1  -1.154093  0  -0.324201  -0.540511  0  2.227711  0
O  O315  1  0.15049960  0.36232926  0.99058763  1  -1.154269  0  -0.324199  -0.540481  0  2.227897  0
O  O316  1  0.36971159  0.18235828  0.03459348  1  -1.164708  0  -0.322919  -0.539246  0  2.194901  0
O  O317  1  0.13030284  0.81763863  0.53459425  1  -1.164637  0  -0.322832  -0.539088  0  2.195235  0
O  O318  1  0.63030169  0.68235357  0.46540284  1  -1.164912  0  -0.322902  -0.539126  0  2.195073  0
O  O319  1  0.86971109  0.31764463  0.96540876  1  -1.164851  0  -0.322944  -0.539368  0  2.195044  0
O  O320  1  0.42855178  0.22951683  0.10837404  1  -1.193679  0  -0.343093  -0.580115  0  2.161027  0
O  O321  1  0.07145631  0.77046847  0.60837294  1  -1.193427  0  -0.343101  -0.579961  0  2.16105  0
O  O322  1  0.57143319  0.72952714  0.39162704  1  -1.193347  0  -0.343065  -0.579956  0  2.160989  0
O  O323  1  0.92851712  0.27048106  0.89162814  1  -1.192933  0  -0.343282  -0.580322  0  2.16101  0
