# generated using pymatgen
data_AlH10C19O9
_symmetry_space_group_name_H-M   'P 1'
_cell_length_a   6.70928523
_cell_length_b   23.49726915
_cell_length_c   25.98068648
_cell_angle_alpha   78.33420401
_cell_angle_beta   90.00121597
_cell_angle_gamma   89.94987193
_symmetry_Int_Tables_number   1
_chemical_formula_structural   AlH10C19O9
_chemical_formula_sum   'Al4 H40 C76 O36'
_cell_volume   4011.24533749
_cell_formula_units_Z   4
loop_
 _symmetry_equiv_pos_site_id
 _symmetry_equiv_pos_as_xyz
  1  'x, y, z'
loop_
 _atom_site_type_symbol
 _atom_site_label
 _atom_site_symmetry_multiplicity
 _atom_site_fract_x
 _atom_site_fract_y
 _atom_site_fract_z
 _atom_site_occupancy
 _atom_site_pbe_bader_charge
 _atom_site_pbe_bader_spin_density
 _atom_site_pbe_cm5_charge
 _atom_site_pbe_ddec_charge
 _atom_site_pbe_ddec_spin_density
 _atom_site_pbe_ddec_sum_bond_order
 _atom_site_pbe_magmom
Al  Al0  1  0.72427969  0.24892793  0.24996292  1  2.501419  0  0.396284  1.637653  0  2.572569  0
Al  Al1  1  0.31698620  0.74825656  0.74929753  1  2.502299  0  0.402614  1.639963  0  2.571824  0
Al  Al2  1  0.22425156  0.25097452  0.24993244  1  2.500511  0  0.396336  1.637975  0  2.572342  0
Al  Al3  1  0.81692999  0.75161079  0.75063397  1  2.501235  0  0.40277  1.641581  0  2.570429  0
H  H4  1  0.31239086  0.68364037  0.60113081  1  0.133343  0  0.120067  0.131839  0  1.003037  0
H  H5  1  0.68835024  0.31299662  0.39145683  1  0.127433  0  0.119598  0.131014  0  0.983937  0
H  H6  1  0.81225173  0.81615125  0.89875803  1  0.133897  0  0.119963  0.132076  0  1.002732  0
H  H7  1  0.18859057  0.18696029  0.10851906  1  0.13037  0  0.11977  0.131516  0  0.9842  0
H  H8  1  0.72943961  0.55298531  0.60876274  1  0.090481  0  0.106461  0.112937  0  1.010518  0
H  H9  1  0.24253103  0.45313155  0.39008204  1  0.113204  0  0.111345  0.125982  0  1.001147  0
H  H10  1  0.22907762  0.94703612  0.89110474  1  0.090466  0  0.106587  0.113417  0  1.010212  0
H  H11  1  0.74311014  0.04667348  0.10977887  1  0.107972  0  0.111198  0.126066  0  1.00036  0
H  H12  1  0.90751113  0.46356906  0.59316798  1  0.060524  0  0.105861  0.107641  0  0.988574  0
H  H13  1  0.05116016  0.53763851  0.40378917  1  0.09322  0  0.107591  0.108235  0  0.986239  0
H  H14  1  0.40743671  0.03641765  0.90672473  1  0.103524  0  0.106139  0.108445  0  0.988135  0
H  H15  1  0.55139782  0.96216576  0.09610816  1  0.052018  0  0.107531  0.107956  0  0.986435  0
H  H16  1  0.88671753  0.39725184  0.53066876  1  0.076835  0  0.101135  0.098952  0  0.999263  0
H  H17  1  0.06960758  0.60408078  0.46612354  1  0.072047  0  0.108345  0.112426  0  0.991099  0
H  H18  1  0.38709776  0.10272955  0.96924422  1  0.07772  0  0.100947  0.098681  0  0.998733  0
H  H19  1  0.56934770  0.89574366  0.03372191  1  0.068963  0  0.108361  0.112169  0  0.99162  0
H  H20  1  0.85199542  0.59389152  0.01478891  1  0.084729  0  0.107965  0.097963  0  0.981968  0
H  H21  1  0.17375480  0.41374211  0.99017689  1  0.054594  0  0.104804  0.093185  0  0.986568  0
H  H22  1  0.35914586  0.90606702  0.48473832  1  0.075376  0  0.107868  0.09776  0  0.981837  0
H  H23  1  0.66858231  0.08717160  0.51090345  1  0.080098  0  0.105142  0.094079  0  0.984874  0
H  H24  1  0.17036265  0.53633762  0.07668664  1  0.070213  0  0.104864  0.092969  0  0.985814  0
H  H25  1  0.85542442  0.47156902  0.92817870  1  0.076972  0  0.106367  0.095492  0  0.983834  0
H  H26  1  0.67791828  0.96487986  0.42406804  1  0.092071  0  0.104664  0.092673  0  0.986173  0
H  H27  1  0.34993401  0.02808307  0.57166517  1  0.088321  0  0.106416  0.094989  0  0.984607  0
H  H28  1  0.65845296  0.48470119  0.02203114  1  0.082678  0  0.100188  0.087382  0  1.011463  0
H  H29  1  0.36733459  0.52289315  0.98288362  1  0.076579  0  0.100909  0.088701  0  1.009184  0
H  H30  1  0.15956928  0.01445342  0.47696991  1  0.064564  0  0.099841  0.086555  0  1.01005  0
H  H31  1  0.86807981  0.97883834  0.51871621  1  0.076  0  0.100854  0.088276  0  1.009301  0
H  H32  1  0.54231575  0.56433936  0.51287785  1  0.64004  0  0.341544  0.382583  0  0.858284  0
H  H33  1  0.40176304  0.34371333  0.48885042  1  0.623377  0  0.34475  0.383301  0  0.852235  0
H  H34  1  0.04215165  0.93536075  0.98696281  1  0.598467  0  0.341302  0.382294  0  0.858537  0
H  H35  1  0.90166578  0.15630507  0.01120415  1  0.622755  0  0.344877  0.383698  0  0.851531  0
H  H36  1  0.45599436  0.66406276  0.68018228  1  0.661066  0  0.319877  0.369173  0  0.935958  0
H  H37  1  0.30954142  0.41069005  0.23917070  1  0.642708  0  0.354817  0.398018  0  0.830277  0
H  H38  1  0.95606941  0.83567909  0.81982600  1  0.657246  0  0.320096  0.369722  0  0.9357  0
H  H39  1  0.81074747  0.08912568  0.26066394  1  0.645505  0  0.354457  0.397037  0  0.830802  0
H  H40  1  0.48362382  0.31131753  0.27725679  1  0.620482  0  0.331344  0.407152  0  0.913796  0
H  H41  1  0.57700360  0.67352905  0.76978650  1  0.630385  0  0.349134  0.43353  0  0.855451  0
H  H42  1  0.98397318  0.18860227  0.22259576  1  0.645114  0  0.332265  0.409033  0  0.911461  0
H  H43  1  0.07640539  0.82629017  0.73005197  1  0.633901  0  0.349429  0.434069  0  0.853839  0
C  C44  1  0.47274938  0.16484147  0.32022517  1  1.673042  0  0.267417  0.712513  0  4.172779  0
C  C45  1  0.56401885  0.82819466  0.67453103  1  1.652993  0  0.280935  0.735904  0  4.135388  0
C  C46  1  0.97200447  0.33519067  0.17977230  1  1.676948  0  0.268347  0.714213  0  4.17256  0
C  C47  1  0.06476735  0.67174772  0.82546213  1  1.656482  0  0.280997  0.73429  0  4.137072  0
C  C48  1  0.46970023  0.19704159  0.17993700  1  1.580253  0  0.276367  0.651641  0  4.08762  0
C  C49  1  0.56149862  0.80922848  0.81723095  1  1.576307  0  0.276774  0.652994  0  4.0655  0
C  C50  1  0.96939748  0.30285789  0.31995786  1  1.573299  0  0.27539  0.650254  0  4.088597  0
C  C51  1  0.06157620  0.69065236  0.68267092  1  1.589198  0  0.275813  0.65019  0  4.068056  0
C  C52  1  0.18715911  0.65387480  0.60426810  1  -0.011076  0  -0.067436  -0.092697  0  3.943479  0
C  C53  1  0.81054197  0.34327329  0.39192215  1  0.014987  0  -0.06232  -0.071589  0  3.916605  0
C  C54  1  0.68694701  0.84596640  0.89561527  1  -0.016759  0  -0.067028  -0.092774  0  3.942183  0
C  C55  1  0.31087055  0.15665982  0.10800790  1  0.01852  0  -0.062696  -0.072279  0  3.91649  0
C  C56  1  0.17751511  0.61537591  0.56988731  1  0.015508  0  -0.00738  -0.071066  0  3.925746  0
C  C57  1  0.80340889  0.38299322  0.42530001  1  -0.034991  0  -0.010785  -0.085897  0  3.935638  0
C  C58  1  0.67732659  0.88451073  0.92995374  1  0.022238  0  -0.008318  -0.071932  0  3.925197  0
C  C59  1  0.30369959  0.11692956  0.07463666  1  -0.038805  0  -0.01023  -0.085977  0  3.934691  0
C  C60  1  0.01310237  0.57750574  0.57176203  1  -0.0082  0  0.008886  0.068788  0  3.96396  0
C  C61  1  0.96148563  0.42274941  0.42561072  1  0.014621  0  0.011897  0.070502  0  3.967305  0
C  C62  1  0.51286065  0.92244497  0.92808121  1  -0.007801  0  0.008939  0.068791  0  3.965581  0
C  C63  1  0.46188168  0.07713019  0.07429819  1  0.018425  0  0.011996  0.070918  0  3.966402  0
C  C64  1  0.86201473  0.57985369  0.60874880  1  -0.011604  0  -0.082058  -0.158117  0  3.931375  0
C  C65  1  0.11859939  0.42319088  0.38982145  1  -0.03957  0  -0.080136  -0.160471  0  3.937623  0
C  C66  1  0.36165453  0.92012561  0.89113405  1  -0.007217  0  -0.082332  -0.159371  0  3.935161  0
C  C67  1  0.61911513  0.07664857  0.11006632  1  0.040762  0  -0.079362  -0.159582  0  3.936575  0
C  C68  1  0.87447144  0.61722927  0.64398030  1  0.001537  0  0.009747  -0.001783  0  3.913417  0
C  C69  1  0.11948413  0.38566406  0.35454102  1  0.018644  0  0.004789  -0.013911  0  3.940694  0
C  C70  1  0.37405301  0.88269727  0.85594781  1  -0.004306  0  0.009367  -0.001105  0  3.914392  0
C  C71  1  0.61998469  0.11416806  0.14534995  1  -0.06471  0  0.004488  -0.014089  0  3.941161  0
C  C72  1  0.04177856  0.65365141  0.64269610  1  -0.030566  0  -0.008082  -0.069552  0  3.952163  0
C  C73  1  0.96702225  0.34426389  0.35642152  1  0.047189  0  -0.004379  -0.06073  0  3.939172  0
C  C74  1  0.54140976  0.84621242  0.85721667  1  -0.03147  0  -0.007899  -0.069902  0  3.949776  0
C  C75  1  0.46748035  0.15563287  0.14347477  1  0.047638  0  -0.004619  -0.060913  0  3.939656  0
C  C76  1  0.93628078  0.48003708  0.55149282  1  -0.036128  0  -0.085399  -0.117267  0  3.977334  0
C  C77  1  0.02103868  0.52116016  0.44538139  1  -0.01308  0  -0.082633  -0.106195  0  3.963495  0
C  C78  1  0.43634091  0.01992515  0.94839904  1  -0.078098  0  -0.08593  -0.11848  0  3.977057  0
C  C79  1  0.52125648  0.97868282  0.05451355  1  -0.021972  0  -0.08303  -0.107057  0  3.962779  0
C  C80  1  0.92528601  0.44279670  0.51628599  1  -0.032997  0  -0.089455  -0.119503  0  3.9957  0
C  C81  1  0.03146392  0.55850995  0.48049850  1  -0.037422  0  -0.088984  -0.130326  0  3.992714  0
C  C82  1  0.42558673  0.05715033  0.98362522  1  -0.033068  0  -0.088669  -0.118353  0  3.994194  0
C  C83  1  0.53146977  0.94135343  0.01937351  1  -0.084019  0  -0.088504  -0.128941  0  3.990654  0
C  C84  1  0.96804056  0.46266796  0.46274686  1  -0.068151  0  -0.006051  0.066901  0  4.012806  0
C  C85  1  0.99229816  0.53836604  0.53422622  1  -0.008141  0  -0.00847  0.061547  0  4.023897  0
C  C86  1  0.46839668  0.03721895  0.03716011  1  -0.012318  0  -0.006349  0.066434  0  4.013351  0
C  C87  1  0.49224698  0.96155780  0.96564633  1  0.034548  0  -0.008504  0.061554  0  4.023247  0
C  C88  1  0.10095323  0.52248344  0.04318840  1  -0.045931  0  -0.066865  -0.07308  0  3.624891  0
C  C89  1  0.92484019  0.48516082  0.96180805  1  -0.023331  0  -0.064119  -0.071053  0  3.618604  0
C  C90  1  0.60562908  0.97838977  0.45735885  1  -0.03799  0  -0.066135  -0.072566  0  3.624507  0
C  C91  1  0.42207527  0.01483405  0.53822322  1  -0.038385  0  -0.064526  -0.071263  0  3.619817  0
C  C92  1  0.92279991  0.55336704  0.00999910  1  -0.020603  0  -0.064359  -0.072508  0  3.616789  0
C  C93  1  0.10293245  0.45424993  0.99503587  1  -0.008882  0  -0.066383  -0.074155  0  3.624281  0
C  C94  1  0.42728878  0.94680595  0.48985388  1  -0.020587  0  -0.064638  -0.072241  0  3.617207  0
C  C95  1  0.60039910  0.04646344  0.50568217  1  -0.027884  0  -0.066116  -0.073559  0  3.620552  0
C  C96  1  0.06163390  0.62683202  0.87191990  1  -0.190654  0  -0.045176  -0.214455  0  3.9834  0
C  C97  1  0.97183233  0.38089523  0.13354863  1  0.297277  0  -0.051737  -0.212242  0  3.99485  0
C  C98  1  0.56102468  0.87329679  0.62821433  1  0.105431  0  -0.045256  -0.215079  0  3.98126  0
C  C99  1  0.47286605  0.11934196  0.36658892  1  0.231201  0  -0.051317  -0.211486  0  3.99347  0
C  C100  1  0.21014794  0.51384548  0.99218373  1  -0.025474  0  -0.070768  -0.082984  0  3.640843  0
C  C101  1  0.81575142  0.49372932  0.01285326  1  -0.049226  0  -0.071652  -0.083636  0  3.639132  0
C  C102  1  0.71099544  0.98728869  0.50880564  1  -0.038803  0  -0.071152  -0.083197  0  3.640284  0
C  C103  1  0.31679375  0.00601088  0.48674963  1  -0.029764  0  -0.070825  -0.081964  0  3.638927  0
C  C104  1  0.03343786  0.54586779  0.95779847  1  0.118426  0  0.009836  0.120998  0  3.799672  0
C  C105  1  0.99272673  0.46174888  0.04730843  1  0.135127  0  0.007363  0.120749  0  3.801616  0
C  C106  1  0.53409965  0.95454308  0.54248969  1  0.122784  0  0.00955  0.120013  0  3.800445  0
C  C107  1  0.49395046  0.03870200  0.45297174  1  0.12071  0  0.007415  0.120425  0  3.80299  0
C  C108  1  0.05004604  0.58923413  0.91167664  1  -0.084067  0  -0.018439  -0.022291  0  4.076929  0
C  C109  1  0.97857481  0.41840204  0.09360714  1  -0.611953  0  -0.028684  -0.041093  0  4.09399  0
C  C110  1  0.55022094  0.91104903  0.58854159  1  -0.381277  0  -0.018301  -0.022025  0  4.074461  0
C  C111  1  0.47972238  0.08199611  0.40663522  1  -0.542904  0  -0.028749  -0.040959  0  4.09316  0
C  C112  1  0.35338056  0.61532561  0.53439265  1  1.51032  0  0.230936  0.579656  0  4.132909  0
C  C113  1  0.61370438  0.38812929  0.45391999  1  1.491159  0  0.23158  0.576638  0  4.134772  0
C  C114  1  0.85323943  0.88449154  0.96544815  1  1.508849  0  0.23197  0.580821  0  4.13093  0
C  C115  1  0.11393136  0.11184729  0.04605336  1  1.491589  0  0.2315  0.577157  0  4.134001  0
C  C116  1  0.70461829  0.62031118  0.68139169  1  1.58333  0  0.234256  0.599769  0  4.135954  0
C  C117  1  0.27927834  0.39129303  0.31349208  1  1.539469  0  0.243815  0.592396  0  4.122088  0
C  C118  1  0.20405917  0.87962332  0.81859999  1  1.581313  0  0.234712  0.600278  0  4.137466  0
C  C119  1  0.77988184  0.10851737  0.18637987  1  1.533206  0  0.243425  0.590902  0  4.121476  0
O  O120  1  0.30299288  0.21486257  0.19341547  1  -1.256255  0  -0.222922  -0.568074  0  2.348042  0
O  O121  1  0.73753509  0.79809982  0.80234075  1  -1.25542  0  -0.229262  -0.592009  0  2.343699  0
O  O122  1  0.80278311  0.28506409  0.30645671  1  -1.256025  0  -0.222485  -0.566975  0  2.348489  0
O  O123  1  0.23746574  0.70160087  0.69774448  1  -1.254726  0  -0.228632  -0.590258  0  2.344455  0
O  O124  1  0.64402138  0.18169768  0.30181954  1  -1.236527  0  -0.237212  -0.597617  0  2.305672  0
O  O125  1  0.39525228  0.80751851  0.69146931  1  -1.243281  0  -0.228534  -0.587756  0  2.294023  0
O  O126  1  0.14334802  0.31826885  0.19815774  1  -1.238142  0  -0.237462  -0.598102  0  2.306652  0
O  O127  1  0.89593721  0.69222177  0.80826390  1  -1.240428  0  -0.228563  -0.587564  0  2.294389  0
O  O128  1  0.64000804  0.21085139  0.19526772  1  -1.256111  0  -0.227187  -0.590773  0  2.377714  0
O  O129  1  0.40078140  0.79295619  0.79935240  1  -1.244813  0  -0.216731  -0.573915  0  2.42433  0
O  O130  1  0.13975712  0.28901624  0.30464379  1  -1.254578  0  -0.22668  -0.590295  0  2.378801  0
O  O131  1  0.90068286  0.70713905  0.70034426  1  -1.257791  0  -0.216894  -0.573103  0  2.423446  0
O  O132  1  0.80295195  0.31627978  0.19791635  1  -1.232859  0  -0.232755  -0.581354  0  2.281007  0
O  O133  1  0.23422150  0.68734393  0.80512442  1  -1.244058  0  -0.230002  -0.589181  0  2.283286  0
O  O134  1  0.30360205  0.18365557  0.30199475  1  -1.231317  0  -0.232444  -0.580741  0  2.280892  0
O  O135  1  0.73336228  0.81265759  0.69503218  1  -1.240174  0  -0.23027  -0.590706  0  2.28249  0
O  O136  1  0.47547050  0.28405319  0.25354351  1  -1.428666  0  -0.45302  -0.987772  0  2.175578  0
O  O137  1  0.56941209  0.71433623  0.75258124  1  -1.430606  0  -0.449034  -0.998324  0  2.189762  0
O  O138  1  0.97570004  0.21584328  0.24633131  1  -1.452885  0  -0.453949  -0.989876  0  2.175063  0
O  O139  1  0.06922479  0.78551002  0.74733728  1  -1.434091  0  -0.448795  -0.99802  0  2.187235  0
O  O140  1  0.42677163  0.65884577  0.50743043  1  -1.130661  0  -0.300061  -0.488035  0  2.036603  0
O  O141  1  0.43004249  0.56099564  0.53755530  1  -1.130213  0  -0.331962  -0.483546  0  2.244049  0
O  O142  1  0.53330368  0.43393686  0.45727486  1  -1.129924  0  -0.284049  -0.483395  0  2.105136  0
O  O143  1  0.53113601  0.33536772  0.47443341  1  -1.12064  0  -0.338983  -0.487084  0  2.203398  0
O  O144  1  0.92680747  0.84092888  0.99236766  1  -1.131087  0  -0.300457  -0.488662  0  2.036792  0
O  O145  1  0.92973993  0.93879432  0.96232156  1  -1.087569  0  -0.331973  -0.483485  0  2.243067  0
O  O146  1  0.03370835  0.06606131  0.04266691  1  -1.129834  0  -0.284312  -0.48368  0  2.103915  0
O  O147  1  0.03106031  0.16462528  0.02559937  1  -1.119194  0  -0.339153  -0.487831  0  2.20292  0
O  O148  1  0.69599443  0.59361413  0.72692114  1  -1.140272  0  -0.302782  -0.49836  0  2.044123  0
O  O149  1  0.56316320  0.65539931  0.65622049  1  -1.167451  0  -0.328127  -0.480412  0  2.343163  0
O  O150  1  0.45519279  0.37933443  0.32210135  1  -1.139989  0  -0.270831  -0.477588  0  2.138646  0
O  O151  1  0.20483241  0.41308714  0.26508880  1  -1.128551  0  -0.325864  -0.475954  0  2.222338  0
O  O152  1  0.19472410  0.90647146  0.77313228  1  -1.140248  0  -0.302956  -0.498528  0  2.043849  0
O  O153  1  0.06332205  0.84432187  0.84375434  1  -1.16492  0  -0.328546  -0.481316  0  2.344596  0
O  O154  1  0.95569494  0.12045208  0.17773180  1  -1.134968  0  -0.270869  -0.477265  0  2.138588  0
O  O155  1  0.70573210  0.08678113  0.23481321  1  -1.12959  0  -0.32519  -0.474138  0  2.22093  0
