# generated using pymatgen
data_Zr3H10C26S10O33
_symmetry_space_group_name_H-M   'P 1'
_cell_length_a   16.45145627
_cell_length_b   16.48610689
_cell_length_c   16.58435385
_cell_angle_alpha   61.53399681
_cell_angle_beta   59.84474004
_cell_angle_gamma   60.34983850
_symmetry_Int_Tables_number   1
_chemical_formula_structural   Zr3H10C26S10O33
_chemical_formula_sum   'Zr6 H20 C52 S20 O66'
_cell_volume   3220.51435324
_cell_formula_units_Z   2
loop_
 _symmetry_equiv_pos_site_id
 _symmetry_equiv_pos_as_xyz
  1  'x, y, z'
loop_
 _atom_site_type_symbol
 _atom_site_label
 _atom_site_symmetry_multiplicity
 _atom_site_fract_x
 _atom_site_fract_y
 _atom_site_fract_z
 _atom_site_occupancy
 _atom_site_pbe_bader_charge
 _atom_site_pbe_bader_spin_density
 _atom_site_pbe_cm5_charge
 _atom_site_pbe_ddec_charge
 _atom_site_pbe_ddec_spin_density
 _atom_site_pbe_ddec_sum_bond_order
 _atom_site_pbe_magmom
Zr  Zr0  1  0.88821122  0.89944579  0.60158902  1  2.642685  0  1.646138  2.379842  0  2.753349  0
Zr  Zr1  1  0.11061692  0.10497172  0.39585258  1  2.641175  0  1.647407  2.380698  0  2.755292  0
Zr  Zr2  1  0.10401572  0.89590983  0.60412351  1  2.630549  0  1.625495  2.371825  0  2.745043  0
Zr  Zr3  1  0.89682163  0.10632040  0.39116221  1  2.63638  0  1.627846  2.372939  0  2.748309  0
Zr  Zr4  1  0.10851417  0.89341928  0.39096228  1  2.627595  0  1.615848  2.362987  0  2.733261  0
Zr  Zr5  1  0.89122130  0.11038675  0.60521586  1  2.632988  0  1.625343  2.375576  0  2.744253  0
H  H6  1  0.08088287  0.75277184  0.57781009  1  0.592982  0  0.332518  0.425025  0  0.854368  0
H  H7  1  0.09050075  0.07934419  0.24939462  1  0.602765  0  0.332488  0.424224  0  0.855628  0
H  H8  1  0.08241775  0.08434187  0.58668124  1  0.61865  0  0.333159  0.427552  0  0.853116  0
H  H9  1  0.74570769  0.09021248  0.57921684  1  0.608115  0  0.333994  0.429526  0  0.849009  0
H  H10  1  0.83800806  0.65955949  0.85649269  1  0.1377  0  0.120866  0.150691  0  0.976727  0
H  H11  1  0.14635777  0.35893867  0.15525977  1  0.131186  0  0.120906  0.150962  0  0.975986  0
H  H12  1  0.86548641  0.24291192  0.74166428  1  0.638759  0  0.332733  0.391483  0  0.889747  0
H  H13  1  0.18766082  0.67496137  0.38223144  1  0.653617  0  0.312769  0.366603  0  0.960623  0
H  H14  1  0.25431090  0.88538262  0.17154976  1  0.653147  0  0.313227  0.367143  0  0.956163  0
H  H15  1  0.62787160  0.28978530  0.75912839  1  0.657534  0  0.339354  0.404553  0  0.867157  0
H  H16  1  0.19488482  0.87799866  0.74765684  1  0.647049  0  0.318262  0.373876  0  0.937692  0
H  H17  1  0.90084771  0.28737602  0.05940562  1  0.667544  0  0.314101  0.372109  0  0.964209  0
H  H18  1  0.24916768  0.56353742  0.78431109  1  0.653683  0  0.313928  0.371736  0  0.965656  0
H  H19  1  0.68016702  0.25447595  0.36943507  1  0.645899  0  0.318519  0.374468  0  0.93592  0
H  H20  1  0.31569903  0.30207648  0.35681857  1  0.662184  0  0.353778  0.418436  0  0.830229  0
H  H21  1  0.52643363  0.86176602  0.79743011  1  0.643385  0  0.353492  0.417674  0  0.830509  0
H  H22  1  0.17668748  0.56601647  0.95311217  1  0.645806  0  0.322071  0.369157  0  0.930675  0
H  H23  1  0.11923166  0.69023535  0.80252179  1  0.652071  0  0.319333  0.37109  0  0.942035  0
H  H24  1  0.80317000  0.45692469  0.06297360  1  0.643888  0  0.32174  0.369401  0  0.930146  0
H  H25  1  0.88933225  0.30421342  0.18546581  1  0.658103  0  0.318943  0.369792  0  0.945364  0
C  C26  1  0.99983496  0.73210545  0.48798832  1  1.570584  0  0.232552  0.6495  0  4.114312  0
C  C27  1  0.28123105  0.99051813  0.22993199  1  1.555131  0  0.232142  0.64985  0  4.118201  0
C  C28  1  0.98915570  0.27377894  0.50839704  1  1.566954  0  0.230524  0.651401  0  4.135467  0
C  C29  1  0.72720196  0.01353801  0.76843899  1  1.57376  0  0.231813  0.650031  0  4.1366  0
C  C30  1  0.98350107  0.73700080  0.76522499  1  1.458066  0  0.235472  0.64907  0  4.074177  0
C  C31  1  0.73081630  0.99840514  0.49481295  1  1.560524  0  0.232237  0.650538  0  4.140022  0
C  C32  1  0.01502526  0.26753716  0.23242305  1  1.480567  0  0.235543  0.64999  0  4.070738  0
C  C33  1  0.27444505  0.99966198  0.49637619  1  1.585993  0  0.231939  0.651551  0  4.136467  0
C  C34  1  0.27335576  0.73205748  0.49779282  1  1.554068  0  0.231414  0.654627  0  4.126487  0
C  C35  1  0.99931267  0.99394189  0.77755263  1  1.552204  0  0.229626  0.651941  0  4.112245  0
C  C36  1  0.73068572  0.28113203  0.48589503  1  1.546866  0  0.230014  0.65029  0  4.113904  0
C  C37  1  0.99979585  0.99843516  0.22845219  1  1.558801  0  0.230803  0.654447  0  4.130468  0
C  C38  1  0.91906190  0.42141827  0.57087853  1  -0.070784  0  -0.017584  -0.13305  0  3.940977  0
C  C39  1  0.06311557  0.58511593  0.42709162  1  -0.101264  0  -0.02303  -0.144546  0  3.988417  0
C  C40  1  0.98456223  0.36565698  0.50647363  1  -0.144086  0  -0.013791  -0.134123  0  3.940459  0
C  C41  1  0.99798118  0.64302956  0.48963446  1  -0.122657  0  -0.017057  -0.150515  0  3.927423  0
C  C42  1  0.03285339  0.50588243  0.45617809  1  -0.158201  0  -0.013634  -0.02526  0  4.075578  0
C  C43  1  0.94672487  0.50318281  0.54140390  1  -0.115052  0  -0.009021  -0.025723  0  4.041607  0
C  C44  1  0.42455375  0.93114384  0.08170791  1  -0.148381  0  -0.023557  -0.143648  0  3.989561  0
C  C45  1  0.58678551  0.07661398  0.91644800  1  -0.063042  0  -0.015284  -0.123622  0  3.91931  0
C  C46  1  0.36996023  0.99292113  0.14032813  1  -0.118369  0  -0.018009  -0.152638  0  3.929388  0
C  C47  1  0.64104804  0.01281636  0.85998613  1  -0.151459  0  -0.01031  -0.127472  0  3.92253  0
C  C48  1  0.50768738  0.04618003  0.99895902  1  -0.131667  0  -0.008541  -0.028077  0  4.044428  0
C  C49  1  0.50394795  0.96120137  0.00147891  1  -0.089588  0  -0.014153  -0.027023  0  4.081426  0
C  C50  1  0.06308427  0.92424999  0.92123949  1  -0.055962  0  -0.022274  -0.141737  0  3.986839  0
C  C51  1  0.92888875  0.06600326  0.09019179  1  -0.054356  0  -0.019099  -0.132335  0  3.925322  0
C  C52  1  0.99809805  0.98990774  0.86896830  1  -0.185015  0  -0.020662  -0.155681  0  3.923413  0
C  C53  1  0.99438173  0.99919636  0.14205357  1  -0.123639  0  -0.015118  -0.146659  0  3.914483  0
C  C54  1  0.95264157  0.03634128  0.01124024  1  -0.167106  0  -0.010747  -0.025246  0  4.050139  0
C  C55  1  0.03655938  0.95053462  0.00308026  1  -0.13316  0  -0.011457  -0.02933  0  4.066787  0
C  C56  1  0.41553131  0.59146036  0.56414455  1  -0.039551  0  -0.019947  -0.133967  0  3.93277  0
C  C57  1  0.59134565  0.42599326  0.41833691  1  -0.089507  0  -0.021752  -0.141513  0  3.988468  0
C  C58  1  0.36447639  0.64532781  0.49775025  1  -0.16683  0  -0.014323  -0.145733  0  3.915186  0
C  C59  1  0.64383145  0.37217785  0.48316597  1  -0.13123  0  -0.018957  -0.149297  0  3.924988  0
C  C60  1  0.50972967  0.50720110  0.44638966  1  -0.159263  0  -0.011595  -0.03042  0  4.06551  0
C  C61  1  0.50028082  0.51307610  0.53296400  1  -0.101345  0  -0.0103  -0.021394  0  4.050882  0
C  C62  1  0.05383536  0.59477888  0.88954331  1  0.436463  0  0.087559  0.25787  0  4.001546  0
C  C63  1  0.89695804  0.61666628  0.88758935  1  -0.008003  0  -0.101181  -0.211946  0  3.964905  0
C  C64  1  0.88916051  0.53352146  0.96654998  1  0.569209  0  0.090237  0.290878  0  4.067208  0
C  C65  1  0.96538043  0.47827797  0.01013858  1  0.031361  0  -0.015697  -0.111991  0  3.974479  0
C  C66  1  0.96193845  0.39231620  0.09072924  1  0.461851  0  0.088174  0.258594  0  3.999803  0
C  C67  1  0.09902397  0.39028848  0.11252790  1  0.012092  0  -0.101206  -0.212013  0  3.963945  0
C  C68  1  0.11057676  0.46963551  0.02978614  1  0.57209  0  0.089944  0.290003  0  4.068465  0
C  C69  1  0.04558722  0.51363230  0.97494446  1  0.039631  0  -0.016291  -0.112401  0  3.976519  0
C  C70  1  0.97932354  0.64742407  0.84795455  1  0.066659  0  -0.038486  -0.17119  0  4.068053  0
C  C71  1  0.02568142  0.35054032  0.14311541  1  -0.010529  0  -0.03891  -0.171922  0  4.065621  0
C  C72  1  0.41940459  0.06418863  0.42674140  1  -0.071159  0  -0.019743  -0.132579  0  3.951597  0
C  C73  1  0.58982144  0.93003288  0.56033884  1  -0.066657  0  -0.020165  -0.134125  0  3.954756  0
C  C74  1  0.36605432  0.99934860  0.49181128  1  -0.170727  0  -0.013984  -0.139976  0  3.927551  0
C  C75  1  0.64357882  0.99442532  0.49489822  1  -0.142375  0  -0.013215  -0.137692  0  3.927899  0
C  C76  1  0.50870112  0.95477257  0.53437027  1  -0.119724  0  -0.013008  -0.033915  0  4.069993  0
C  C77  1  0.50220052  0.03777268  0.45101748  1  -0.148778  0  -0.013092  -0.034092  0  4.069161  0
S  S78  1  0.07876431  0.41078039  0.41183879  1  0.38014  0  0.142019  0.226757  0  2.881003  0
S  S79  1  0.90196967  0.59912546  0.58443934  1  0.422852  0  0.161153  0.266867  0  2.854336  0
S  S80  1  0.41501865  0.08776512  0.09632948  1  0.427831  0  0.15992  0.267918  0  2.864528  0
S  S81  1  0.59658322  0.91799721  0.90538226  1  0.39232  0  0.141774  0.225369  0  2.888136  0
S  S82  1  0.90450999  0.08224552  0.92109573  1  0.413474  0  0.149801  0.259852  0  2.905827  0
S  S83  1  0.08395133  0.90323234  0.09393481  1  0.427058  0  0.15818  0.271957  0  2.878851  0
S  S84  1  0.41824872  0.59949348  0.40040146  1  0.439437  0  0.159285  0.273163  0  2.881094  0
S  S85  1  0.59348787  0.42165998  0.57717738  1  0.380334  0  0.144327  0.244354  0  2.913596  0
S  S86  1  0.41583924  0.90767760  0.58120529  1  0.421363  0  0.153669  0.258799  0  2.876513  0
S  S87  1  0.59615927  0.08379886  0.40317388  1  0.434445  0  0.153768  0.258299  0  2.872729  0
S  S88  1  0.81638615  0.39874308  0.68037143  1  3.120034  0  0.553016  1.191649  0  5.972226  0
S  S89  1  0.17277271  0.59769286  0.32342593  1  3.164083  0  0.54454  1.189498  0  6.022166  0
S  S90  1  0.40615761  0.82728594  0.09478398  1  3.161097  0  0.543186  1.186932  0  6.023382  0
S  S91  1  0.60549811  0.18204021  0.89993574  1  3.11231  0  0.55239  1.191742  0  5.966735  0
S  S92  1  0.16793801  0.81875687  0.89886364  1  3.146548  0  0.545887  1.185436  0  6.024934  0
S  S93  1  0.83430344  0.18319409  0.09610699  1  3.151567  0  0.546715  1.178177  0  6.001217  0
S  S94  1  0.38665942  0.59471023  0.68229413  1  3.132151  0  0.545783  1.180042  0  6.002899  0
S  S95  1  0.61352331  0.40575236  0.31208514  1  3.169426  0  0.545098  1.18158  0  6.028937  0
S  S96  1  0.40069810  0.16708930  0.32281824  1  3.107008  0  0.55232  1.185128  0  5.976367  0
S  S97  1  0.60948830  0.82636319  0.66337068  1  3.109679  0  0.551279  1.184128  0  5.979871  0
O  O98  1  0.92841802  0.77290873  0.55219336  1  -1.165206  0  -0.331472  -0.578305  0  2.283885  0
O  O99  1  0.24737351  0.05474567  0.27082144  1  -1.161277  0  -0.333705  -0.580373  0  2.285048  0
O  O100  1  0.05904335  0.23897305  0.43895809  1  -1.16143  0  -0.338968  -0.594092  0  2.278608  0
O  O101  1  0.76074648  0.94382231  0.73409925  1  -1.167263  0  -0.341537  -0.598745  0  2.278421  0
O  O102  1  0.05379735  0.77097432  0.73499977  1  -1.182352  0  -0.344751  -0.622325  0  2.304735  0
O  O103  1  0.76683846  0.06545540  0.42608325  1  -1.174071  0  -0.346448  -0.606957  0  2.262891  0
O  O104  1  0.94137159  0.23687703  0.26601660  1  -1.182672  0  -0.345236  -0.62312  0  2.304244  0
O  O105  1  0.23958995  0.93135344  0.56399233  1  -1.181432  0  -0.346909  -0.609703  0  2.25911  0
O  O106  1  0.24164628  0.76513821  0.42743480  1  -1.175476  0  -0.352485  -0.617532  0  2.249334  0
O  O107  1  0.93125981  0.06300463  0.74377240  1  -1.173056  0  -0.329097  -0.595279  0  2.240861  0
O  O108  1  0.76513333  0.24863773  0.55317997  1  -1.163717  0  -0.330952  -0.589845  0  2.246651  0
O  O109  1  0.06909559  0.92832327  0.26132278  1  -1.173456  0  -0.349929  -0.61663  0  2.242825  0
O  O110  1  0.07105527  0.92783549  0.73592105  1  -1.195495  0  -0.36152  -0.642009  0  2.314477  0
O  O111  1  0.76528390  0.23873623  0.42084074  1  -1.1944  0  -0.360467  -0.640244  0  2.310854  0
O  O112  1  0.93540459  0.06849224  0.26466631  1  -1.170369  0  -0.364723  -0.60879  0  2.357595  0
O  O113  1  0.23124352  0.76819374  0.56787386  1  -1.174681  0  -0.361875  -0.606773  0  2.341814  0
O  O114  1  0.91704297  0.77766835  0.72650993  1  -1.170093  0  -0.36161  -0.600676  0  2.318874  0
O  O115  1  0.23555198  0.06942480  0.43309354  1  -1.164897  0  -0.358818  -0.594888  0  2.330044  0
O  O116  1  0.07927046  0.22913782  0.27331225  1  -1.174596  0  -0.361995  -0.601424  0  2.320599  0
O  O117  1  0.76297549  0.93530540  0.56477720  1  -1.170069  0  -0.359611  -0.595472  0  2.331802  0
O  O118  1  0.76128958  0.08385454  0.72946265  1  -1.173963  0  -0.367278  -0.614099  0  2.327883  0
O  O119  1  0.07446044  0.76250430  0.42274062  1  -1.185705  0  -0.353168  -0.630349  0  2.316153  0
O  O120  1  0.24195679  0.92487946  0.26056085  1  -1.186906  0  -0.353578  -0.631487  0  2.316869  0
O  O121  1  0.92409605  0.23453724  0.58016893  1  -1.184574  0  -0.368383  -0.629608  0  2.333078  0
O  O122  1  0.81808346  0.06581782  0.55553892  1  -1.234393  0  -0.696251  -1.077819  0  2.367598  0
O  O123  1  0.05868417  0.06050782  0.56199279  1  -1.239308  0  -0.697925  -1.077293  0  2.37559  0
O  O124  1  0.06549819  0.05730169  0.32035050  1  -1.229736  0  -0.697532  -1.073631  0  2.377428  0
O  O125  1  0.05685115  0.82378017  0.55518222  1  -1.221083  0  -0.696957  -1.074813  0  2.374444  0
O  O126  1  0.13491398  0.95484694  0.45476620  1  -1.19458  0  -0.789253  -1.144329  0  2.127098  0
O  O127  1  0.95648584  0.95707300  0.45151042  1  -1.200081  0  -0.789152  -1.144809  0  2.126758  0
O  O128  1  0.95720817  0.13290212  0.45593524  1  -1.194665  0  -0.789893  -1.147483  0  2.125975  0
O  O129  1  0.95228091  0.96059701  0.62976555  1  -1.199359  0  -0.788932  -1.146476  0  2.122496  0
O  O130  1  0.86902823  0.29739343  0.74798399  1  -1.188719  0  -0.353635  -0.529632  0  2.203904  0
O  O131  1  0.74772266  0.38480629  0.66259123  1  -1.288891  0  -0.307252  -0.545907  0  2.20869  0
O  O132  1  0.78462919  0.47225053  0.72277167  1  -1.265768  0  -0.284613  -0.478337  0  2.126565  0
O  O133  1  0.23174637  0.61296423  0.36378505  1  -1.232227  0  -0.354658  -0.521665  0  2.243082  0
O  O134  1  0.14470811  0.68325038  0.24666395  1  -1.285565  0  -0.303426  -0.521501  0  2.157405  0
O  O135  1  0.22919038  0.50284714  0.30836229  1  -1.292478  0  -0.305771  -0.514804  0  2.124396  0
O  O136  1  0.29150459  0.86796362  0.10914647  1  -1.231633  0  -0.354925  -0.522081  0  2.24268  0
O  O137  1  0.42452549  0.75084896  0.18081524  1  -1.285505  0  -0.30275  -0.52018  0  2.160039  0
O  O138  1  0.46033994  0.81148893  0.00034951  1  -1.293755  0  -0.305178  -0.513431  0  2.127213  0
O  O139  1  0.57869554  0.25558148  0.80305771  1  -1.205038  0  -0.358829  -0.542435  0  2.184284  0
O  O140  1  0.70797555  0.16376222  0.87930212  1  -1.286655  0  -0.305825  -0.540749  0  2.223637  0
O  O141  1  0.52742267  0.21584577  0.98175664  1  -1.273585  0  -0.28905  -0.489781  0  2.138038  0
O  O142  1  0.23312503  0.85935989  0.78854136  1  -1.221497  0  -0.354291  -0.522193  0  2.252093  0
O  O143  1  0.13355343  0.74873047  0.90792906  1  -1.287383  0  -0.310193  -0.537395  0  2.191125  0
O  O144  1  0.22326838  0.79367421  0.95688902  1  -1.268488  0  -0.290062  -0.484233  0  2.127947  0
O  O145  1  0.90193645  0.25079880  0.02435945  1  -1.262485  0  -0.366918  -0.533627  0  2.185576  0
O  O146  1  0.78667537  0.19578536  0.19135479  1  -1.293494  0  -0.306113  -0.528864  0  2.222495  0
O  O147  1  0.77620664  0.19720376  0.04573908  1  -1.265449  0  -0.291463  -0.492088  0  2.153621  0
O  O148  1  0.31901610  0.52695842  0.74750328  1  -1.220893  0  -0.368309  -0.535787  0  2.189086  0
O  O149  1  0.32994110  0.69033956  0.69470517  1  -1.2963  0  -0.305162  -0.525412  0  2.208955  0
O  O150  1  0.48022619  0.53947656  0.69859022  1  -1.279673  0  -0.296816  -0.500673  0  2.154708  0
O  O151  1  0.61935957  0.29524980  0.35104421  1  -1.216723  0  -0.353685  -0.519458  0  2.249827  0
O  O152  1  0.70841463  0.41613254  0.24174776  1  -1.302298  0  -0.309821  -0.536592  0  2.188955  0
O  O153  1  0.52439068  0.46399641  0.28835083  1  -1.277477  0  -0.289339  -0.482608  0  2.125424  0
O  O154  1  0.29985941  0.24490435  0.37222241  1  -1.208814  0  -0.358651  -0.551996  0  2.19027  0
O  O155  1  0.38036467  0.14391437  0.26354448  1  -1.270701  0  -0.288036  -0.504564  0  2.243714  0
O  O156  1  0.48157879  0.20293945  0.28293560  1  -1.278164  0  -0.295213  -0.508735  0  2.144568  0
O  O157  1  0.58463672  0.87586957  0.74026637  1  -1.18458  0  -0.357033  -0.549811  0  2.193563  0
O  O158  1  0.71217719  0.76612785  0.63988706  1  -1.287093  0  -0.289215  -0.50647  0  2.243083  0
O  O159  1  0.53168390  0.78732810  0.70031562  1  -1.272433  0  -0.296011  -0.509885  0  2.145135  0
O  O160  1  0.18080591  0.50459993  0.00749068  1  -1.131219  0  -0.346208  -0.422125  0  2.253522  0
O  O161  1  0.13660207  0.62142288  0.84850967  1  -1.163232  0  -0.329378  -0.452461  0  2.466751  0
O  O162  1  0.80628020  0.51120464  0.00150116  1  -1.127933  0  -0.345095  -0.421077  0  2.253507  0
O  O163  1  0.89396242  0.35099930  0.11708504  1  -1.165488  0  -0.329852  -0.452817  0  2.462912  0
