# generated using pymatgen
data_CuH10C20N2(OF2)6
_symmetry_space_group_name_H-M   'P 1'
_cell_length_a   8.49390295
_cell_length_b   11.11445584
_cell_length_c   12.71018282
_cell_angle_alpha   89.99928431
_cell_angle_beta   90.00174248
_cell_angle_gamma   101.67126291
_symmetry_Int_Tables_number   1
_chemical_formula_structural   CuH10C20N2(OF2)6
_chemical_formula_sum   'Cu2 H20 C40 N4 O12 F24'
_cell_volume   1175.09741270
_cell_formula_units_Z   2
loop_
 _symmetry_equiv_pos_site_id
 _symmetry_equiv_pos_as_xyz
  1  'x, y, z'
loop_
 _atom_site_type_symbol
 _atom_site_label
 _atom_site_symmetry_multiplicity
 _atom_site_fract_x
 _atom_site_fract_y
 _atom_site_fract_z
 _atom_site_occupancy
 _atom_site_hse06_10hf_ddec_charge
 _atom_site_hse06_10hf_ddec_spin_density
 _atom_site_hse06_10hf_ddec_sum_bond_order
 _atom_site_hse06_10hf_magmom
 _atom_site_hse06_ddec_charge
 _atom_site_hse06_ddec_spin_density
 _atom_site_hse06_ddec_sum_bond_order
 _atom_site_hse06_magmom
 _atom_site_pbe_cm5_charge
 _atom_site_pbe_ddec_charge
 _atom_site_pbe_ddec_spin_density
 _atom_site_pbe_ddec_sum_bond_order
 _atom_site_pbe_magmom
Cu  Cu0  1  0.99999743  0.99999593  0.00000307  1  0.982954  0.840108  2.114735  0.667  1.065932  0.914405  2.06086  0.762  0.728395  0.928843  0.781106  2.157589  0.6
Cu  Cu1  1  0.00000703  0.50000077  0.49999872  1  0.98295  -0.840118  2.114652  -0.667  1.06591  -0.914409  2.060754  -0.762  0.728362  0.928814  -0.781097  2.157441  -0.6
H  H2  1  0.03042321  0.25389044  0.73049431  1  0.117259  -7.2e-05  1.012928  0.0  0.120892  -3.4e-05  1.009154  0.0  0.122718  0.114724  -0.00011  1.015469  0.0
H  H3  1  0.03041749  0.75388743  0.76949966  1  0.117241  7.2e-05  1.012988  0.0  0.120866  3.4e-05  1.009224  0.0  0.122738  0.114733  0.000105  1.015508  0.0
H  H4  1  0.96958883  0.74610546  0.26951326  1  0.117261  -7.2e-05  1.012975  0.0  0.120898  -3.4e-05  1.009194  0.0  0.122739  0.114738  -0.000111  1.015508  0.0
H  H5  1  0.96958068  0.24610944  0.23049532  1  0.117249  7.2e-05  1.012944  0.0  0.120874  3.4e-05  1.009179  0.0  0.122743  0.11474  0.000112  1.015451  0.0
H  H6  1  0.09142153  0.21097835  0.54642700  1  0.13309  1.1e-05  1.000766  0.0  0.137067  1.8e-05  0.998022  0.0  0.112684  0.130242  -5e-06  1.003016  0.0
H  H7  1  0.09141705  0.71097490  0.95357183  1  0.133066  -1.2e-05  1.000837  0.0  0.137074  -1.8e-05  0.99804  0.0  0.112692  0.130233  2e-06  1.003063  0.0
H  H8  1  0.90859027  0.78901663  0.45357978  1  0.133073  1.1e-05  1.000861  0.0  0.137027  1.8e-05  0.998146  0.0  0.112652  0.130214  4e-06  1.003119  0.0
H  H9  1  0.90858552  0.28901643  0.04642237  1  0.133106  -1.2e-05  1.000827  0.0  0.137072  -1.8e-05  0.998082  0.0  0.11269  0.130269  -5e-06  1.003064  0.0
H  H10  1  0.87178822  0.82877980  0.60525207  1  0.128862  -4e-06  1.013648  0.0  0.133272  -6e-06  1.010644  0.0  0.108785  0.125511  -5e-06  1.016184  0.0
H  H11  1  0.87177684  0.32877892  0.89474711  1  0.128833  4e-06  1.013646  0.0  0.133248  6e-06  1.010632  0.0  0.108763  0.125499  1e-06  1.016179  0.0
H  H12  1  0.12820996  0.17121706  0.39475235  1  0.128765  -5e-06  1.013815  0.0  0.13317  -6e-06  1.010816  0.0  0.10876  0.125439  4e-06  1.01631  0.0
H  H13  1  0.12820672  0.67121616  0.10524473  1  0.128815  4e-06  1.013811  0.0  0.133239  6e-06  1.010785  0.0  0.108776  0.125478  -1e-06  1.016346  0.0
H  H14  1  0.81713794  0.89063212  0.78644763  1  0.11867  -2.2e-05  1.029388  0.0  0.122835  -2.9e-05  1.025153  0.0  0.120916  0.115752  -1.2e-05  1.032302  0.0
H  H15  1  0.81712756  0.39063072  0.71354898  1  0.11859  2.2e-05  1.02954  0.0  0.122897  3e-05  1.025057  0.0  0.120919  0.11569  1.3e-05  1.032435  0.0
H  H16  1  0.18285931  0.10936567  0.21355758  1  0.118747  -2.2e-05  1.029341  0.0  0.12291  -3e-05  1.025105  0.0  0.120983  0.11583  -6e-06  1.032239  0.0
H  H17  1  0.18286288  0.60936802  0.28644286  1  0.118761  2.2e-05  1.029326  0.0  0.123076  3e-05  1.02484  0.0  0.120969  0.115851  1e-06  1.032247  0.0
H  H18  1  0.49386927  0.15044716  0.89951917  1  0.156622  -0.000152  1.021016  0.0  0.16194  -0.000124  1.019962  0.0  0.105317  0.15285  -0.000166  1.021949  0.0
H  H19  1  0.49388089  0.65046279  0.60049162  1  0.156617  0.000152  1.021094  0.0  0.161902  0.000124  1.020132  0.0  0.105258  0.152838  0.000165  1.022024  0.0
H  H20  1  0.50612025  0.84955250  0.10048604  1  0.156607  -0.000152  1.021051  0.0  0.161925  -0.000124  1.02  0.0  0.105288  0.152842  -0.000168  1.021978  0.0
H  H21  1  0.50613068  0.34954874  0.39950179  1  0.156563  0.000152  1.021018  0.0  0.161853  0.000124  1.020067  0.0  0.105281  0.152797  0.000159  1.021942  0.0
C  C22  1  0.99793471  0.16246524  0.69702122  1  -0.03533  -0.000358  3.862741  0.0  -0.027793  -0.000262  3.872622  0.0  0.028059  -0.039941  -0.000469  3.855809  0.0
C  C23  1  0.99793045  0.66246197  0.80297604  1  -0.035361  0.000358  3.863034  0.0  -0.02788  0.000264  3.87306  0.0  0.027961  -0.039972  0.00047  3.856092  0.0
C  C24  1  0.00207826  0.83752973  0.30298321  1  -0.035289  -0.000358  3.862491  0.0  -0.027743  -0.000261  3.872344  0.0  0.028007  -0.039911  -0.000487  3.855583  0.0
C  C25  1  0.00206958  0.33753305  0.19701973  1  -0.035205  0.000358  3.862604  0.0  -0.027725  0.000261  3.872618  0.0  0.028115  -0.039802  0.000492  3.855615  0.0
C  C26  1  0.03063272  0.13489183  0.59467237  1  -0.136012  -6.8e-05  3.975516  0.0  -0.138342  3.1e-05  3.989464  0.0  -0.078884  -0.13479  -0.000129  3.966239  0.0
C  C27  1  0.03062513  0.63488507  0.90532449  1  -0.136075  6.8e-05  3.97591  0.0  -0.138469  -3.3e-05  3.989851  0.0  -0.078947  -0.134845  0.000138  3.966568  0.0
C  C28  1  0.96937815  0.86510407  0.40533599  1  -0.136105  -6.9e-05  3.975583  0.0  -0.138401  3e-05  3.989551  0.0  -0.078877  -0.134909  -0.000129  3.966286  0.0
C  C29  1  0.96937248  0.36510536  0.09466578  1  -0.136223  6.8e-05  3.975737  0.0  -0.138544  -3e-05  3.989721  0.0  -0.078975  -0.135015  0.000116  3.966422  0.0
C  C30  1  0.98498055  0.01483509  0.55488547  1  0.082421  -0.000238  3.999946  0.0  0.08677  -0.000199  4.018738  0.0  -0.002398  0.079729  -0.000203  3.986976  0.0
C  C31  1  0.98497409  0.51483447  0.94511236  1  0.082461  0.000238  4.000007  0.0  0.08688  0.000199  4.018682  0.0  -0.002281  0.079803  0.000227  3.987085  0.0
C  C32  1  0.01502394  0.98515900  0.44512211  1  0.08253  -0.000237  3.999792  0.0  0.086814  -0.000197  4.018639  0.0  -0.002314  0.079949  -0.000244  3.98675  0.0
C  C33  1  0.01501788  0.48515691  0.05487790  1  0.082605  0.000238  3.999863  0.0  0.086862  0.000197  4.018682  0.0  -0.002288  0.079987  0.000247  3.986874  0.0
C  C34  1  0.90795062  0.92542113  0.62662060  1  -0.144635  9.7e-05  3.97009  0.0  -0.148333  0.000102  3.985416  0.0  -0.080655  -0.142349  8.1e-05  3.959937  0.0
C  C35  1  0.90794369  0.42541855  0.87337982  1  -0.144548  -9.7e-05  3.970045  0.0  -0.148269  -0.000103  3.985341  0.0  -0.080551  -0.142227  -7.2e-05  3.959926  0.0
C  C36  1  0.09205487  0.07457663  0.37338146  1  -0.14452  9.6e-05  3.97011  0.0  -0.148199  0.000101  3.985451  0.0  -0.080558  -0.14225  5.7e-05  3.959897  0.0
C  C37  1  0.09205213  0.57457833  0.12661516  1  -0.144573  -9.7e-05  3.969961  0.0  -0.148266  -0.000101  3.985299  0.0  -0.080546  -0.142258  -6.1e-05  3.959799  0.0
C  C38  1  0.87639941  0.95610061  0.72853761  1  -0.048607  -0.000368  3.8841  0.0  -0.041492  -0.000294  3.894615  0.0  0.023383  -0.053089  -0.000395  3.876963  0.0
C  C39  1  0.87639342  0.45609693  0.77145712  1  -0.048622  0.000368  3.884293  0.0  -0.041478  0.000296  3.89469  0.0  0.023334  -0.053107  0.000368  3.877194  0.0
C  C40  1  0.12360062  0.04389441  0.27146839  1  -0.048708  -0.000369  3.884427  0.0  -0.04159  -0.000292  3.894934  0.0  0.023302  -0.05319  -0.000385  3.877287  0.0
C  C41  1  0.12360309  0.54389810  0.22853550  1  -0.048751  0.000369  3.884139  0.0  -0.041616  0.000293  3.894536  0.0  0.023289  -0.053228  0.000379  3.87703  0.0
C  C42  1  0.28890464  0.00378485  0.87983368  1  0.272876  -0.001729  4.069158  -0.005  0.299163  -0.002046  4.075407  -0.004  0.118009  0.255139  -0.001436  4.065056  -0.005
C  C43  1  0.28892269  0.50379479  0.62017771  1  0.273022  0.001729  4.069014  0.005  0.299309  0.002045  4.075311  0.004  0.118003  0.255204  0.001398  4.064944  0.005
C  C44  1  0.71108648  0.99621204  0.12017232  1  0.272819  -0.001728  4.069343  -0.005  0.299055  -0.002049  4.075613  -0.004  0.11799  0.255095  -0.001409  4.065192  -0.005
C  C45  1  0.71108956  0.49621489  0.37982199  1  0.272747  0.001728  4.069176  0.005  0.299002  0.002045  4.075487  0.004  0.117972  0.254989  0.001412  4.065107  0.005
C  C46  1  0.37092426  0.11413725  0.92374594  1  -0.393297  0.002179  4.03564  0.004  -0.418352  0.000819  4.055944  0.002  -0.148553  -0.376776  0.00355  4.022235  0.006
C  C47  1  0.37093525  0.61415030  0.57626590  1  -0.393318  -0.002177  4.035662  -0.004  -0.418368  -0.000819  4.055988  -0.002  -0.148544  -0.376804  -0.003576  4.022314  -0.006
C  C48  1  0.62906662  0.88585873  0.07626084  1  -0.393184  0.002178  4.035761  0.004  -0.418229  0.00082  4.056082  0.002  -0.148502  -0.376685  0.003573  4.022354  0.006
C  C49  1  0.62907910  0.38585846  0.42373144  1  -0.393006  -0.002178  4.03532  -0.004  -0.418058  -0.000819  4.055668  -0.002  -0.148527  -0.376505  -0.003574  4.02193  -0.006
C  C50  1  0.29765549  0.17915751  0.99682640  1  0.271381  -0.001622  4.076303  -0.005  0.2983  -0.001978  4.081228  -0.004  0.119458  0.253169  -0.001282  4.073168  -0.005
C  C51  1  0.29766272  0.67916468  0.50317852  1  0.271465  0.001619  4.076304  0.005  0.298594  0.001977  4.080771  0.004  0.11951  0.253166  0.001258  4.073123  0.005
C  C52  1  0.70233353  0.82084031  0.00317959  1  0.271299  -0.001622  4.076335  -0.005  0.298217  -0.00198  4.081268  -0.004  0.11938  0.253034  -0.001254  4.073193  -0.005
C  C53  1  0.70235107  0.32083765  0.49681725  1  0.271258  0.00162  4.076572  0.005  0.298389  0.001977  4.08105  0.004  0.119384  0.253016  0.001247  4.073371  0.005
C  C54  1  0.62542383  0.05409492  0.20803530  1  0.641398  0.006388  3.989342  0.008  0.668816  0.00419  3.961847  0.006  0.29902  0.62143  0.008228  4.00983  0.01
C  C55  1  0.62541389  0.55408991  0.29195582  1  0.641126  -0.006388  3.989535  -0.008  0.668404  -0.004192  3.962268  -0.006  0.298906  0.62114  -0.008241  4.010025  -0.01
C  C56  1  0.37457114  0.94590748  0.79196519  1  0.641464  0.006389  3.989147  0.008  0.66879  0.004191  3.961785  0.006  0.299067  0.621459  0.008227  4.009663  0.01
C  C57  1  0.37458777  0.44591982  0.70804860  1  0.641143  -0.006386  3.989519  -0.008  0.66838  -0.004192  3.962317  -0.006  0.298964  0.621338  -0.008231  4.009689  -0.01
C  C58  1  0.60340974  0.69996830  0.95762737  1  0.64271  0.006574  3.984489  0.008  0.669862  0.004302  3.957739  0.006  0.300847  0.623056  0.008473  4.004237  0.01
C  C59  1  0.60342531  0.19996989  0.54236543  1  0.642758  -0.006571  3.984829  -0.008  0.670402  -0.004303  3.957113  -0.006  0.300849  0.623168  -0.008496  4.004472  -0.01
C  C60  1  0.39657649  0.30003230  0.04237627  1  0.642965  0.006574  3.984166  0.008  0.670113  0.004303  3.957411  0.006  0.300976  0.623179  0.008484  4.004111  0.01
C  C61  1  0.39658476  0.80003613  0.45762405  1  0.64288  -0.006572  3.984606  -0.008  0.670525  -0.004303  3.95689  -0.006  0.300959  0.623344  -0.008494  4.004093  -0.01
N  N62  1  0.91965150  0.07441922  0.76404905  1  0.341383  -3.4e-05  4.003805  0.0  0.341795  1.5e-05  4.026432  0.0  -0.116126  0.340539  -9.3e-05  3.988317  0.0
N  N63  1  0.91964574  0.57441737  0.73594522  1  0.341488  3.2e-05  4.003852  0.0  0.341862  -1.6e-05  4.026611  0.0  -0.116019  0.340643  6.5e-05  3.988395  0.0
N  N64  1  0.08035726  0.92557761  0.23595694  1  0.341468  -3.5e-05  4.00372  0.0  0.34188  1.3e-05  4.026349  0.0  -0.116137  0.340617  -5.9e-05  3.988226  0.0
N  N65  1  0.08035101  0.42557858  0.26404661  1  0.341404  3.3e-05  4.003828  0.0  0.341779  -1.4e-05  4.026582  0.0  -0.116166  0.34055  0.000102  3.988334  0.0
O  O66  1  0.88786356  0.10354724  0.86053892  1  -0.543099  -0.001237  1.946916  -0.001  -0.567193  -0.001286  1.945057  -0.001  -0.261853  -0.525996  -0.001183  1.948181  -0.001
O  O67  1  0.88785519  0.60354335  0.63945203  1  -0.543103  0.00124  1.946942  0.001  -0.567219  0.001283  1.945157  0.001  -0.261861  -0.526002  0.001163  1.948177  0.001
O  O68  1  0.11214285  0.89644960  0.13946707  1  -0.543153  -0.001236  1.946861  -0.001  -0.567247  -0.001287  1.945004  -0.001  -0.261875  -0.526075  -0.001108  1.948125  -0.001
O  O69  1  0.11213760  0.39645538  0.36054059  1  -0.543119  0.001238  1.946951  0.001  -0.567231  0.001287  1.945156  0.001  -0.261832  -0.526011  0.001139  1.948191  0.001
O  O70  1  0.14765852  0.94474182  0.89897237  1  -0.426091  0.047923  2.407735  0.07  -0.462887  0.035599  2.404285  0.055  -0.275102  -0.40175  0.056423  2.410301  0.079
O  O71  1  0.14767611  0.44475401  0.60103447  1  -0.426068  -0.047917  2.407723  -0.07  -0.462857  -0.035595  2.404278  -0.055  -0.274993  -0.401665  -0.056413  2.4103  -0.078
O  O72  1  0.85233816  0.05524954  0.10103126  1  -0.426072  0.047925  2.407826  0.07  -0.462855  0.035603  2.404389  0.055  -0.27502  -0.401686  0.056345  2.410362  0.079
O  O73  1  0.85233899  0.55525751  0.39896838  1  -0.426085  -0.047926  2.407808  -0.07  -0.462864  -0.0356  2.404369  -0.055  -0.275064  -0.401737  -0.056382  2.410376  -0.079
O  O74  1  0.15563023  0.15259510  0.03280751  1  -0.438863  0.048648  2.453731  0.071  -0.476482  0.036004  2.450626  0.055  -0.276303  -0.41362  0.057397  2.455508  0.08
O  O75  1  0.15563168  0.65260257  0.46719584  1  -0.438906  -0.048651  2.453686  -0.071  -0.47635  -0.036003  2.450209  -0.055  -0.276372  -0.413695  -0.057402  2.455496  -0.08
O  O76  1  0.84436200  0.84739719  0.96720085  1  -0.438797  0.048648  2.453751  0.071  -0.476393  0.036004  2.450586  0.055  -0.27627  -0.41356  0.057374  2.455538  0.08
O  O77  1  0.84437925  0.34739793  0.53279521  1  -0.438747  -0.048641  2.453925  -0.071  -0.476165  -0.035998  2.450385  -0.055  -0.276259  -0.413544  -0.057419  2.455687  -0.08
F  F78  1  0.67930380  0.02346667  0.30344613  1  -0.208019  0.000167  1.327851  0.0  -0.218013  1.7e-05  1.31243  0.0  -0.101194  -0.200629  0.00035  1.338647  0.0
F  F79  1  0.67927680  0.52344955  0.19654800  1  -0.207886  -0.000168  1.327973  0.0  -0.217926  -1.6e-05  1.312729  0.0  -0.101155  -0.200569  -0.000236  1.33879  0.0
F  F80  1  0.32068806  0.97653298  0.69655593  1  -0.208008  0.000167  1.327862  0.0  -0.217981  1.6e-05  1.312473  0.0  -0.101157  -0.200577  0.000338  1.338653  0.0
F  F81  1  0.32070918  0.47655012  0.80345485  1  -0.207913  -0.000168  1.328087  0.0  -0.217944  -1.5e-05  1.312856  0.0  -0.101031  -0.200462  -0.00041  1.338788  0.0
F  F82  1  0.65720842  0.17866059  0.20160938  1  -0.210189  0.00012  1.357031  0.0  -0.220251  1.9e-05  1.341682  0.0  -0.098129  -0.202968  0.000352  1.367905  0.0
F  F83  1  0.65720137  0.67865645  0.29837315  1  -0.210144  -0.000119  1.356974  0.0  -0.21998  -2e-05  1.34155  0.0  -0.097983  -0.202728  -0.000308  1.3678  0.0
F  F84  1  0.34279477  0.82134177  0.79839189  1  -0.210215  0.000119  1.356935  0.0  -0.220257  1.9e-05  1.341617  0.0  -0.098051  -0.2029  0.000278  1.367797  0.0
F  F85  1  0.34281045  0.32135600  0.70162498  1  -0.210193  -0.000119  1.356906  0.0  -0.220019  -2e-05  1.341496  0.0  -0.097994  -0.202797  -0.000301  1.367657  0.0
F  F86  1  0.46330141  0.01531634  0.20597175  1  -0.202262  0.001101  1.363058  0.002  -0.212424  0.000693  1.347635  0.001  -0.092052  -0.194903  0.001661  1.373852  0.002
F  F87  1  0.46328996  0.51531409  0.29402675  1  -0.202191  -0.0011  1.3632  -0.002  -0.212443  -0.000693  1.347888  -0.001  -0.091831  -0.194618  -0.001505  1.373934  -0.002
F  F88  1  0.53669487  0.98469525  0.79402796  1  -0.202315  0.001101  1.363037  0.002  -0.212457  0.000694  1.347647  0.001  -0.091957  -0.194782  0.00153  1.373788  0.002
F  F89  1  0.53671320  0.48470115  0.70599105  1  -0.202243  -0.001101  1.363263  -0.002  -0.212483  -0.000692  1.347965  -0.001  -0.091799  -0.194676  -0.001515  1.373916  -0.002
F  F90  1  0.44633378  0.67928588  0.98714081  1  -0.202317  0.001165  1.326687  0.002  -0.21251  0.000735  1.311337  0.001  -0.095309  -0.194973  0.001634  1.337502  0.002
F  F91  1  0.44634923  0.17928770  0.51284588  1  -0.202305  -0.001165  1.326761  -0.002  -0.21222  -0.000735  1.311198  -0.001  -0.095276  -0.195035  -0.001462  1.337569  -0.002
F  F92  1  0.55365184  0.32072115  0.01285890  1  -0.202391  0.001164  1.32651  0.002  -0.212583  0.000735  1.311159  0.001  -0.095271  -0.194931  0.001564  1.33734  0.002
F  F93  1  0.55366184  0.82072200  0.48714438  1  -0.202375  -0.001165  1.326641  -0.002  -0.212288  -0.000736  1.311075  -0.001  -0.095249  -0.194946  -0.001591  1.337366  -0.002
F  F94  1  0.66484132  0.60237681  0.98927559  1  -0.201478  0.000138  1.361674  0.0  -0.211715  -9e-06  1.346491  0.0  -0.095936  -0.194069  0.000376  1.372331  0.0
F  F95  1  0.66484912  0.10237683  0.51072345  1  -0.20153  -0.000137  1.361891  0.0  -0.211481  8e-06  1.346483  0.0  -0.095981  -0.19417  -0.000232  1.372526  0.0
F  F96  1  0.33513730  0.39761737  0.01072726  1  -0.201556  0.000138  1.361632  0.0  -0.21179  -8e-06  1.346446  0.0  -0.095982  -0.194112  0.000372  1.372339  0.0
F  F97  1  0.33515389  0.89762921  0.48926524  1  -0.201546  -0.000135  1.361761  0.0  -0.211495  8e-06  1.346353  0.0  -0.095888  -0.194074  -0.000322  1.372327  0.0
F  F98  1  0.60883864  0.70314218  0.85041888  1  -0.208016  0.000119  1.325557  0.0  -0.21745  4e-06  1.309762  0.0  -0.101306  -0.201159  0.000283  1.336614  0.0
F  F99  1  0.60885158  0.20314208  0.64957242  1  -0.208046  -0.000121  1.325602  0.0  -0.219847  -3e-06  1.312381  0.0  -0.101424  -0.201277  -0.000192  1.336657  0.0
F  F100  1  0.39115045  0.29686024  0.14958397  1  -0.208088  0.000119  1.325565  0.0  -0.217517  3e-06  1.309769  0.0  -0.101339  -0.201196  0.000309  1.336654  0.0
F  F101  1  0.39115657  0.79686119  0.35041548  1  -0.208071  -0.00012  1.325584  0.0  -0.21988  -4e-06  1.312373  0.0  -0.101226  -0.201125  -0.000325  1.336546  0.0
