# generated using pymatgen
data_MgH6C12N2O3
_symmetry_space_group_name_H-M   'P 1'
_cell_length_a   6.86785810
_cell_length_b   33.30641879
_cell_length_c   33.29880996
_cell_angle_alpha   119.51875843
_cell_angle_beta   93.95854174
_cell_angle_gamma   93.91779613
_symmetry_Int_Tables_number   1
_chemical_formula_structural   MgH6C12N2O3
_chemical_formula_sum   'Mg6 H36 C72 N12 O18'
_cell_volume   6566.25922167
_cell_formula_units_Z   6
loop_
 _symmetry_equiv_pos_site_id
 _symmetry_equiv_pos_as_xyz
  1  'x, y, z'
loop_
 _atom_site_type_symbol
 _atom_site_label
 _atom_site_symmetry_multiplicity
 _atom_site_fract_x
 _atom_site_fract_y
 _atom_site_fract_z
 _atom_site_occupancy
 _atom_site_pbe_bader_charge
 _atom_site_pbe_bader_spin_density
 _atom_site_pbe_cm5_charge
 _atom_site_pbe_ddec_charge
 _atom_site_pbe_ddec_spin_density
 _atom_site_pbe_ddec_sum_bond_order
 _atom_site_pbe_magmom
Mg  Mg0  1  0.25709664  0.67622399  0.30745419  1  1.683775  0  0.90843  1.410845  0  1.324902  0
Mg  Mg1  1  0.94950226  0.69257002  0.36884009  1  1.684386  0  0.908529  1.411117  0  1.324116  0
Mg  Mg2  1  0.58097506  0.63119977  0.32378097  1  1.683638  0  0.908269  1.410497  0  1.32549  0
Mg  Mg3  1  0.67099275  0.32863666  0.69552214  1  1.683612  0  0.907692  1.40911  0  1.328688  0
Mg  Mg4  1  0.97539110  0.30453249  0.63317599  1  1.681523  0  0.907822  1.408584  0  1.330185  0
Mg  Mg5  1  0.34227230  0.36688823  0.67138606  1  1.683388  0  0.907667  1.40839  0  1.329564  0
H  H6  1  0.19509778  0.17263904  0.56761013  1  0.071307  0  0.105631  0.108459  0  1.010489  0
H  H7  1  0.62761890  0.43248923  0.60495205  1  0.103193  0  0.105889  0.108766  0  1.010445  0
H  H8  1  0.02309055  0.39486397  0.82748854  1  0.089627  0  0.106013  0.109254  0  1.01039  0
H  H9  1  0.37287672  0.10220205  0.53962834  1  0.09981  0  0.105541  0.114331  0  1.023699  0
H  H10  1  0.83364195  0.46053024  0.56260275  1  0.11174  0  0.105545  0.114403  0  1.023658  0
H  H11  1  0.27145971  0.43723033  0.89789051  1  0.128503  0  0.105458  0.114527  0  1.023832  0
H  H12  1  0.91495767  0.19128603  0.60984388  1  0.132738  0  0.110849  0.131794  0  1.013082  0
H  H13  1  0.30524143  0.39024265  0.58159788  1  0.09794  0  0.111047  0.132017  0  1.013005  0
H  H14  1  0.72402945  0.41844139  0.80868941  1  0.103511  0  0.111141  0.132131  0  1.012965  0
H  H15  1  0.54933366  0.98882462  0.47052241  1  0.105273  0  0.112904  0.119236  0  0.988051  0
H  H16  1  0.07961140  0.52948743  0.51819170  1  0.118938  0  0.112708  0.119064  0  0.987944  0
H  H17  1  0.56127508  0.48187509  0.01141700  1  0.114503  0  0.112643  0.119044  0  0.988376  0
H  H18  1  0.71075357  0.91527834  0.43598843  1  0.085973  0  0.110236  0.115945  0  0.998282  0
H  H19  1  0.27598914  0.56396546  0.47920285  1  0.087392  0  0.110472  0.116223  0  0.997839  0
H  H20  1  0.79662722  0.52090371  0.08488848  1  0.0917  0  0.110483  0.116172  0  0.997906  0
H  H21  1  0.56482154  0.89208748  0.48670999  1  0.130851  0  0.104967  0.112888  0  1.020521  0
H  H22  1  0.07877255  0.51305458  0.40517115  1  0.088251  0  0.105054  0.11368  0  1.019928  0
H  H23  1  0.67387477  0.59478396  0.10789851  1  0.097917  0  0.105058  0.113648  0  1.020039  0
H  H24  1  0.73337568  0.81991694  0.45096422  1  0.114941  0  0.106808  0.110319  0  1.013228  0
H  H25  1  0.28312569  0.54894848  0.36887009  1  0.121748  0  0.106685  0.110998  0  1.01157  0
H  H26  1  0.91437203  0.63117067  0.18012703  1  0.097327  0  0.106943  0.110869  0  1.012491  0
H  H27  1  0.02393988  0.81295990  0.40240683  1  0.108299  0  0.11008  0.131887  0  1.015406  0
H  H28  1  0.62211291  0.59742554  0.41044850  1  0.112981  0  0.109749  0.132177  0  1.01511  0
H  H29  1  0.21202892  0.58954817  0.18700156  1  0.115781  0  0.109666  0.131356  0  1.015647  0
H  H30  1  0.30823831  0.95267550  0.53811371  1  0.130961  0  0.101396  0.093775  0  1.070116  0
H  H31  1  0.77062782  0.46165703  0.41451668  1  0.121021  0  0.101394  0.093671  0  1.071137  0
H  H32  1  0.35522526  0.58574310  0.04731504  1  0.104456  0  0.101286  0.09368  0  1.070369  0
H  H33  1  0.46598732  0.02216751  0.60942397  1  0.067011  0  0.10393  0.100975  0  0.983232  0
H  H34  1  0.85616170  0.39020926  0.41257954  1  0.049141  0  0.104063  0.100949  0  0.983107  0
H  H35  1  0.44290014  0.58752767  0.97774651  1  0.071177  0  0.10374  0.100915  0  0.983646  0
H  H36  1  0.31048786  0.09610073  0.64193904  1  0.054836  0  0.103835  0.100389  0  0.984764  0
H  H37  1  0.66811447  0.35784341  0.45410799  1  0.060762  0  0.103795  0.099669  0  0.985115  0
H  H38  1  0.21389530  0.54580528  0.90375807  1  0.061742  0  0.103555  0.099581  0  0.984498  0
H  H39  1  0.99860875  0.09898300  0.60261987  1  0.102459  0  0.100796  0.093907  0  1.065382  0
H  H40  1  0.39630670  0.39736103  0.49645998  1  0.122692  0  0.100928  0.094242  0  1.064525  0
H  H41  1  0.89975336  0.50347168  0.90092601  1  0.08324  0  0.100719  0.093846  0  1.064627  0
C  C42  1  0.33512088  0.26086817  0.61942857  1  1.520887  0  0.23653  0.673172  0  4.12651  0
C  C43  1  0.71568792  0.38063519  0.64143425  1  1.511946  0  0.23693  0.675316  0  4.124421  0
C  C44  1  0.07445297  0.35858766  0.73922146  1  1.512846  0  0.236828  0.673751  0  4.12734  0
C  C45  1  0.45152976  0.22149836  0.60557136  1  -0.014389  0  -0.039775  -0.205699  0  3.937577  0
C  C46  1  0.84586415  0.39449103  0.61589980  1  -0.039701  0  -0.038472  -0.205786  0  3.93831  0
C  C47  1  0.23031911  0.38407773  0.77858520  1  -0.078776  0  -0.039032  -0.205426  0  3.938214  0
C  C48  1  0.35306428  0.17606510  0.57698737  1  -0.008669  0  -0.080414  -0.050995  0  4.00217  0
C  C49  1  0.77617585  0.42309477  0.59902225  1  -0.07233  0  -0.081347  -0.052362  0  4.002397  0
C  C50  1  0.17752541  0.40087024  0.82404426  1  0.026433  0  -0.081727  -0.053313  0  4.003286  0
C  C51  1  0.45002191  0.13701889  0.56102590  1  -0.04074  0  -0.098635  -0.180679  0  3.986919  0
C  C52  1  0.88925726  0.43909674  0.57600214  1  0.005335  0  -0.098489  -0.17991  0  3.986666  0
C  C53  1  0.31364797  0.42387076  0.86306173  1  -0.075291  0  -0.098073  -0.180102  0  3.986542  0
C  C54  1  0.65545261  0.14307341  0.57297101  1  0.324818  0  0.089997  0.196712  0  4.06541  0
C  C55  1  0.08270037  0.42711837  0.57014546  1  0.324518  0  0.090652  0.197548  0  4.064804  0
C  C56  1  0.51294305  0.42979764  0.85699174  1  0.348432  0  0.090259  0.198168  0  4.062746  0
C  C57  1  0.75653462  0.18745933  0.60106298  1  -0.034063  0  -0.095604  -0.274314  0  3.895186  0
C  C58  1  0.15550627  0.39900620  0.58646468  1  -0.006335  0  -0.095833  -0.274975  0  3.894902  0
C  C59  1  0.56946238  0.41352303  0.81256849  1  -0.051899  0  -0.096463  -0.276284  0  3.893102  0
C  C60  1  0.65915379  0.22755484  0.61888564  1  0.575404  0  0.094649  0.374245  0  4.083418  0
C  C61  1  0.04010408  0.38116347  0.60868609  1  0.582754  0  0.093733  0.374103  0  4.084886  0
C  C62  1  0.43180999  0.39129640  0.77249773  1  0.609234  0  0.095447  0.375809  0  4.081551  0
C  C63  1  0.78807230  0.02842053  0.52367691  1  0.333375  0  0.102918  0.133365  0  4.010567  0
C  C64  1  0.26495834  0.47629569  0.50469963  1  0.388333  0  0.102402  0.133612  0  4.010792  0
C  C65  1  0.76003590  0.49532263  0.97167399  1  0.351256  0  0.102746  0.132981  0  4.009631  0
C  C66  1  0.69322652  0.98751609  0.48549758  1  0.012806  0  -0.077393  -0.131546  0  3.982908  0
C  C67  1  0.20849001  0.51447976  0.50192923  1  -0.022141  0  -0.076664  -0.131041  0  3.982356  0
C  C68  1  0.70641300  0.49811366  0.01264715  1  -0.007431  0  -0.076079  -0.130569  0  3.982065  0
C  C69  1  0.78177291  0.94675382  0.46665809  1  -0.041436  0  -0.078996  -0.134663  0  3.995274  0
C  C70  1  0.31621045  0.53329809  0.48003673  1  -0.082357  0  -0.079416  -0.134767  0  3.995396  0
C  C71  1  0.83589789  0.52008031  0.05338746  1  -0.054848  0  -0.079865  -0.134997  0  3.995768  0
C  C72  1  0.96591063  0.94484739  0.48595264  1  0.409688  0  0.099545  0.130384  0  3.994047  0
C  C73  1  0.48089974  0.51393346  0.45882889  1  0.431501  0  0.100113  0.130436  0  3.995476  0
C  C74  1  0.02167282  0.54130498  0.05521696  1  0.38161  0  0.099828  0.130191  0  3.996404  0
C  C75  1  0.28632925  0.85661688  0.44637265  1  0.344162  0  0.090118  0.196752  0  4.072114  0
C  C76  1  0.84061397  0.55342391  0.41008870  1  0.325146  0  0.089901  0.196118  0  4.071682  0
C  C77  1  0.43073679  0.58988122  0.14335250  1  0.280195  0  0.090053  0.195731  0  4.071649  0
C  C78  1  0.48647420  0.85870763  0.46061569  1  -0.103998  0  -0.095886  -0.177262  0  3.999569  0
C  C79  1  0.02650303  0.53918406  0.39792236  1  0.016979  0  -0.095865  -0.177589  0  3.999803  0
C  C80  1  0.62878615  0.60203838  0.14127085  1  -0.007592  0  -0.095863  -0.177621  0  3.998849  0
C  C81  1  0.57802894  0.81887858  0.44094893  1  -0.065158  0  -0.083452  -0.05766  0  4.021298  0
C  C82  1  0.13776191  0.55893826  0.37784164  1  -0.057075  0  -0.082981  -0.058623  0  4.019943  0
C  C83  1  0.76008027  0.62218568  0.18112589  1  -0.086515  0  -0.083185  -0.057371  0  4.020582  0
C  C84  1  0.47517221  0.77599052  0.40686243  1  -0.014867  0  -0.035413  -0.197199  0  3.92992  0
C  C85  1  0.06890184  0.59307574  0.36910642  1  -0.074214  0  -0.035365  -0.196041  0  3.929545  0
C  C86  1  0.69992433  0.63095768  0.22400250  1  -0.004642  0  -0.035569  -0.198503  0  3.933536  0
C  C87  1  0.58909685  0.73595110  0.38757510  1  1.531285  0  0.238266  0.678058  0  4.123115  0
C  C88  1  0.20199597  0.61245529  0.34844378  1  1.506226  0  0.238257  0.677545  0  4.124175  0
C  C89  1  0.85361630  0.65166320  0.26406835  1  1.484778  0  0.237708  0.676905  0  4.123917  0
C  C90  1  0.26926084  0.77316995  0.39271232  1  0.655749  0  0.095879  0.373322  0  4.078709  0
C  C91  1  0.87710175  0.60720604  0.38042118  1  0.603829  0  0.096232  0.373493  0  4.077074  0
C  C92  1  0.49696830  0.61961339  0.22682712  1  0.595142  0  0.095186  0.373769  0  4.078309  0
C  C93  1  0.17876772  0.81432209  0.41317666  1  -0.058174  0  -0.101887  -0.282127  0  3.888368  0
C  C94  1  0.76622320  0.58667904  0.40105450  1  -0.011308  0  -0.1018  -0.282923  0  3.887202  0
C  C95  1  0.36549430  0.59895294  0.18565472  1  0.042901  0  -0.101148  -0.280942  0  3.887328  0
C  C96  1  0.06304097  0.98517048  0.52791457  1  -0.037375  0  0.001278  0.021519  0  3.902949  0
C  C97  1  0.53575062  0.47193897  0.45719645  1  -0.041604  0  0.001157  0.022903  0  3.902719  0
C  C98  1  0.07795025  0.54292710  0.01484139  1  -0.038645  0  0.001653  0.022638  0  3.905435  0
C  C99  1  0.24029002  0.98462792  0.55208355  1  -0.045294  0  -0.091792  -0.123197  0  3.993915  0
C  C100  1  0.68855763  0.44768678  0.43247626  1  0.014202  0  -0.092399  -0.124448  0  3.994813  0
C  C101  1  0.25534686  0.56769547  0.01535364  1  -0.040603  0  -0.092348  -0.124538  0  3.995854  0
C  C102  1  0.32868852  0.02377158  0.59202846  1  -0.034545  0  -0.089452  -0.07377  0  4.034709  0
C  C103  1  0.73655893  0.40769113  0.43164657  1  -0.079829  0  -0.089352  -0.073253  0  4.03333  0
C  C104  1  0.30434937  0.56843409  0.97615522  1  -0.032111  0  -0.088929  -0.072917  0  4.035023  0
C  C105  1  0.24141500  0.06523257  0.61028759  1  -0.027705  0  -0.088956  -0.073782  0  4.036043  0
C  C106  1  0.63094162  0.38951340  0.45490033  1  -0.074443  0  -0.088728  -0.072678  0  4.034084  0
C  C107  1  0.17583616  0.54505742  0.93466618  1  -0.049361  0  -0.088796  -0.073362  0  4.034547  0
C  C108  1  0.06632855  0.06696295  0.58842337  1  -0.010228  0  -0.091919  -0.123264  0  3.992762  0
C  C109  1  0.47809606  0.41148488  0.47855583  1  0.001964  0  -0.0918  -0.123023  0  3.99162  0
C  C110  1  0.99933128  0.52140953  0.93297464  1  0.023032  0  -0.091311  -0.122843  0  3.990923  0
C  C111  1  0.97287347  0.02781970  0.54689355  1  -0.06141  0  0.001275  0.020368  0  3.909306  0
C  C112  1  0.42645073  0.45301813  0.48089328  1  -0.047461  0  0.001174  0.018348  0  3.911144  0
C  C113  1  0.94518475  0.51915047  0.97219727  1  -0.026503  0  0.001123  0.020604  0  3.909955  0
N  N114  1  0.77513660  0.10667432  0.55897548  1  -0.483317  0  -0.145023  -0.125097  0  3.266999  0
N  N115  1  0.21657737  0.44111225  0.54778429  1  -0.477071  0  -0.145109  -0.125558  0  3.265746  0
N  N116  1  0.66895539  0.45218669  0.89340628  1  -0.464945  0  -0.14518  -0.125718  0  3.265672  0
N  N117  1  0.68117305  0.06615973  0.53623901  1  -0.499727  0  -0.143633  -0.118805  0  3.32412  0
N  N118  1  0.14540823  0.46376957  0.52987896  1  -0.507768  0  -0.143683  -0.118807  0  3.322457  0
N  N119  1  0.61546460  0.47009720  0.93393939  1  -0.507459  0  -0.144204  -0.11916  0  3.321782  0
N  N120  1  0.03252628  0.90113834  0.46204125  1  -0.501596  0  -0.14714  -0.125325  0  3.290109  0
N  N121  1  0.57144061  0.53783506  0.43903195  1  -0.507052  0  -0.147871  -0.126139  0  3.292792  0
N  N122  1  0.13234754  0.56108111  0.09888749  1  -0.504367  0  -0.148303  -0.126904  0  3.292726  0
N  N123  1  0.21678454  0.90042248  0.46801591  1  -0.474566  0  -0.146236  -0.121558  0  3.299982  0
N  N124  1  0.74950728  0.53171753  0.43220256  1  -0.486235  0  -0.145684  -0.120658  0  3.300249  0
N  N125  1  0.31728111  0.56776364  0.09954797  1  -0.466881  0  -0.145234  -0.119968  0  3.299465  0
O  O126  1  0.76829804  0.74009019  0.40314364  1  -1.245838  0  -0.355304  -0.641418  0  2.150267  0
O  O127  1  0.36568984  0.59692320  0.33702075  1  -1.240918  0  -0.355734  -0.641307  0  2.151426  0
O  O128  1  0.02866477  0.66313029  0.25997553  1  -1.24033  0  -0.355218  -0.64046  0  2.150589  0
O  O129  1  0.50374749  0.69655267  0.35396580  1  -1.307678  0  -0.405392  -0.770157  0  2.425759  0
O  O130  1  0.14999103  0.64607465  0.34267969  1  -1.298973  0  -0.405512  -0.770206  0  2.424955  0
O  O131  1  0.80746940  0.65736462  0.30343821  1  -1.295727  0  -0.4056  -0.769605  0  2.424476  0
O  O132  1  0.16114904  0.73324762  0.36099196  1  -1.320093  0  -0.4445  -0.77621  0  2.292382  0
O  O133  1  0.80069245  0.63900151  0.37229730  1  -1.305521  0  -0.444595  -0.776365  0  2.291166  0
O  O134  1  0.42863234  0.62775098  0.26673771  1  -1.305723  0  -0.443923  -0.776427  0  2.290259  0
O  O135  1  0.15469227  0.25464747  0.60364005  1  -1.24397  0  -0.35515  -0.642131  0  2.149461  0
O  O136  1  0.55107728  0.39644673  0.65102439  1  -1.242255  0  -0.354923  -0.642759  0  2.147334  0
O  O137  1  0.90033796  0.34898009  0.74545189  1  -1.240604  0  -0.354566  -0.642084  0  2.148972  0
O  O138  1  0.42097815  0.30227094  0.64839843  1  -1.302128  0  -0.403061  -0.767747  0  2.415699  0
O  O139  1  0.77259999  0.35166481  0.65389090  1  -1.290577  0  -0.40352  -0.769105  0  2.415521  0
O  O140  1  0.11875767  0.34617407  0.69779711  1  -1.29194  0  -0.403651  -0.768279  0  2.416227  0
O  O141  1  0.76541597  0.26891936  0.64699865  1  -1.305312  0  -0.448895  -0.777176  0  2.305437  0
O  O142  1  0.11825735  0.35303940  0.62194917  1  -1.305901  0  -0.448786  -0.776505  0  2.304926  0
O  O143  1  0.49665778  0.37806550  0.73111905  1  -1.311294  0  -0.449148  -0.777188  0  2.304083  0
