# generated using pymatgen
data_CoH18C16S2(NO)6
_symmetry_space_group_name_H-M   'P 1'
_cell_length_a   7.10527823
_cell_length_b   8.32252411
_cell_length_c   10.29839815
_cell_angle_alpha   112.51203194
_cell_angle_beta   100.35533303
_cell_angle_gamma   87.43848252
_symmetry_Int_Tables_number   1
_chemical_formula_structural   CoH18C16S2(NO)6
_chemical_formula_sum   'Co1 H18 C16 S2 N6 O6'
_cell_volume   553.22034645
_cell_formula_units_Z   1
loop_
 _symmetry_equiv_pos_site_id
 _symmetry_equiv_pos_as_xyz
  1  'x, y, z'
loop_
 _atom_site_type_symbol
 _atom_site_label
 _atom_site_symmetry_multiplicity
 _atom_site_fract_x
 _atom_site_fract_y
 _atom_site_fract_z
 _atom_site_occupancy
 _atom_site_hle17_ddec_charge
 _atom_site_hle17_ddec_spin_density
 _atom_site_hle17_ddec_sum_bond_order
 _atom_site_hle17_magmom
 _atom_site_hse06_10hf_ddec_charge
 _atom_site_hse06_10hf_ddec_spin_density
 _atom_site_hse06_10hf_ddec_sum_bond_order
 _atom_site_hse06_10hf_magmom
 _atom_site_hse06_ddec_charge
 _atom_site_hse06_ddec_spin_density
 _atom_site_hse06_ddec_sum_bond_order
 _atom_site_hse06_magmom
 _atom_site_pbe_cm5_charge
 _atom_site_pbe_ddec_charge
 _atom_site_pbe_ddec_spin_density
 _atom_site_pbe_ddec_sum_bond_order
 _atom_site_pbe_magmom
Co  Co0  1  0.50000268  0.99999930  0.00000244  1  1.099931  2.897921  2.058472  2.585  1.089657  2.859954  2.460983  2.631  1.154939  2.911817  2.387604  2.718  0.688423  1.034861  2.796578  2.516983  2.525
H  H1  1  0.42594245  0.18771542  0.35824031  1  0.125585  -0.000978  0.93457  -0.001  0.132428  -0.000281  0.996331  0.0  0.136834  -0.000289  0.991681  0.0  0.133827  0.129187  -0.000213  0.999803  0.0
H  H2  1  0.57406704  0.81227769  0.64175515  1  0.12563  -0.000977  0.934562  -0.001  0.132412  -0.000281  0.996397  0.0  0.136815  -0.000289  0.991752  0.0  0.133839  0.129177  -0.000213  0.999868  0.0
H  H3  1  0.35483911  0.05432937  0.52641270  1  0.11543  -4e-06  0.970177  0.001  0.119455  -0.000168  1.039549  0.0  0.122304  -0.000171  1.038667  0.0  0.109762  0.117462  -9.6e-05  1.040213  0.0
H  H4  1  0.64517211  0.94566631  0.47358462  1  0.115401  -4e-06  0.970216  0.001  0.119423  -0.000168  1.039584  0.0  0.122271  -0.000171  1.038703  0.0  0.109768  0.117437  -9.6e-05  1.040252  0.0
H  H5  1  0.93715573  0.71644289  0.17953791  1  0.11807  1.8e-05  0.941807  0.001  0.12872  -0.00015  0.996994  0.0  0.131699  -0.000142  0.99567  0.0  0.117865  0.126581  -0.000152  0.998101  0.0
H  H6  1  0.06283194  0.28357149  0.82047117  1  0.11808  1.7e-05  0.941796  0.001  0.128768  -0.00015  0.996942  0.0  0.131745  -0.000141  0.995619  0.0  0.117868  0.126629  -0.000152  0.998048  0.0
H  H7  1  0.01329703  0.87070770  0.03025410  1  0.131916  -0.000769  0.937886  -0.001  0.137419  -3.8e-05  0.999843  0.0  0.142396  -0.00011  0.995387  0.0  0.134162  0.133535  1.9e-05  1.003604  0.0
H  H8  1  0.98668855  0.12930142  0.96975038  1  0.13186  -0.000768  0.937904  -0.001  0.137419  -3.8e-05  0.999819  0.0  0.142398  -0.00011  0.995361  0.0  0.134179  0.133536  1.9e-05  1.003578  0.0
H  H9  1  0.78679318  0.54386538  0.49218711  1  0.07567  -3.2e-05  0.91969  0.0  0.092189  -1e-05  0.978958  0.0  0.093119  -2e-06  0.97804  0.0  0.108339  0.091337  2e-05  0.979849  0.0
H  H10  1  0.21320085  0.45612390  0.50779217  1  0.0755  -3.2e-05  0.919791  0.0  0.092069  -1e-05  0.979049  0.0  0.092983  -2e-06  0.978149  0.0  0.108259  0.091248  2e-05  0.979905  0.0
H  H11  1  0.97588246  0.66411787  0.63047978  1  0.075075  0.000239  0.928712  0.0  0.089843  0.000307  0.990851  0.0  0.091029  0.000219  0.989894  0.0  0.108305  0.08875  0.000418  0.991772  0.0
H  H12  1  0.02410605  0.33586827  0.36950685  1  0.075061  0.000238  0.928675  0.0  0.089851  0.000307  0.990814  0.0  0.091037  0.000218  0.989855  0.0  0.108288  0.088757  0.000418  0.991743  0.0
H  H13  1  0.85923940  0.66876070  0.34785877  1  0.259218  -7.6e-05  0.977424  0.0  0.235239  -2.4e-05  1.05922  0.0  0.242427  -1.9e-05  1.054896  0.0  0.278928  0.230184  4e-06  1.062285  0.0
H  H14  1  0.14076480  0.33124025  0.65213353  1  0.259286  -7.7e-05  0.977318  0.0  0.235269  -2.4e-05  1.059131  0.0  0.242455  -1.9e-05  1.054809  0.0  0.278936  0.230204  4e-06  1.0622  0.0
H  H15  1  0.27995295  0.79913565  0.74318008  1  0.424509  -0.000291  0.875886  0.0  0.395905  0.000163  0.937579  0.0  0.406565  3e-05  0.922035  0.0  0.291158  0.38807  0.000288  0.948989  0.001
H  H16  1  0.72004510  0.20086889  0.25682430  1  0.424445  -0.00029  0.875967  0.0  0.395846  0.000163  0.937656  0.0  0.406505  3e-05  0.922113  0.0  0.291144  0.388012  0.000288  0.949062  0.001
H  H17  1  0.34808456  0.68614763  0.83744358  1  0.395909  -0.000766  0.897911  0.0  0.368811  -7e-05  0.966041  0.0  0.378093  -0.000191  0.952628  0.0  0.276582  0.361881  5e-05  0.97607  0.001
H  H18  1  0.65191152  0.31385294  0.16255658  1  0.395797  -0.000765  0.897997  0.0  0.368693  -7e-05  0.966194  0.0  0.377975  -0.000191  0.952779  0.0  0.27654  0.361763  5.1e-05  0.976222  0.001
C  C19  1  0.31739284  0.08607308  0.32791878  1  0.019742  0.013337  3.584726  0.018  -0.02518  0.008643  3.853764  0.011  -0.019762  0.007561  3.864866  0.01  0.044955  -0.02865  0.010625  3.846676  0.013
C  C20  1  0.68261298  0.91392436  0.67208143  1  0.019763  0.013334  3.584708  0.018  -0.025133  0.008644  3.853715  0.011  -0.019712  0.007556  3.86482  0.01  0.044977  -0.02861  0.010624  3.846641  0.013
C  C21  1  0.27860480  0.00833701  0.41683620  1  -0.094617  -0.017697  3.744798  -0.012  -0.119446  -0.007177  4.005178  -0.005  -0.122249  -0.008722  4.024234  -0.006  -0.073278  -0.117797  -0.006071  3.992449  -0.005
C  C22  1  0.72140096  0.99166038  0.58316302  1  -0.094687  -0.017692  3.744801  -0.012  -0.119437  -0.007177  4.005139  -0.005  -0.122242  -0.008721  4.024192  -0.006  -0.073286  -0.117799  -0.006071  3.992427  -0.005
C  C23  1  0.14402175  0.87101246  0.36686477  1  -0.026212  0.014069  3.756117  0.018  -0.016497  0.010266  4.003594  0.013  -0.018723  0.008589  4.023064  0.011  -0.004312  -0.014767  0.013102  3.99036  0.016
C  C24  1  0.85598015  0.12898790  0.63313784  1  -0.026118  0.014066  3.756062  0.018  -0.016525  0.010265  4.003726  0.013  -0.018754  0.008594  4.023203  0.011  -0.004348  -0.01479  0.013101  3.990485  0.016
C  C25  1  0.04528761  0.82100566  0.22625266  1  -0.084015  -0.01862  3.691659  -0.013  -0.107226  -0.007619  3.943821  -0.005  -0.10962  -0.009162  3.961468  -0.006  -0.066046  -0.10603  -0.006449  3.932523  -0.005
C  C26  1  0.95470527  0.17900562  0.77375215  1  -0.084076  -0.018609  3.691631  -0.013  -0.107263  -0.007619  3.943854  -0.005  -0.109654  -0.009165  3.961503  -0.006  -0.066024  -0.106067  -0.00645  3.932553  -0.005
C  C27  1  0.08597555  0.90245950  0.13966537  1  0.042238  0.014384  3.527654  0.019  0.001212  0.00941  3.785001  0.012  0.007349  0.008154  3.795022  0.011  0.053863  -0.003022  0.011436  3.779614  0.014
C  C28  1  0.91401840  0.09754781  0.86033842  1  0.042431  0.01438  3.527344  0.019  0.001317  0.009411  3.784754  0.012  0.007449  0.008153  3.794777  0.011  0.053896  -0.002917  0.011437  3.779368  0.014
C  C29  1  0.12252461  0.78300817  0.46511370  1  0.540832  -0.001225  3.848601  -0.002  0.489976  8.1e-05  4.138865  -0.001  0.519242  -0.000383  4.13742  -0.001  0.241448  0.469934  0.000876  4.139612  0.0
C  C30  1  0.87747592  0.21699591  0.53488495  1  0.540965  -0.001226  3.848315  -0.002  0.490071  8e-05  4.138645  -0.001  0.519334  -0.000388  4.1372  -0.001  0.241553  0.470021  0.000875  4.139378  0.0
C  C31  1  0.93907973  0.58145408  0.51649622  1  0.02704  0.000244  3.662152  0.0  -0.032722  0.000442  3.926318  0.0  -0.027826  0.000305  3.9357  0.0  -0.061199  -0.035825  0.00061  3.919957  0.001
C  C32  1  0.06091347  0.41853817  0.48348966  1  0.027197  0.000246  3.662135  0.0  -0.032701  0.000443  3.926352  0.0  -0.0278  0.000304  3.935745  0.0  -0.061191  -0.03584  0.000611  3.919975  0.001
C  C33  1  0.55218116  0.73427540  0.15458445  1  0.293485  -0.028025  4.029625  -0.016  0.284862  -0.00733  4.333078  -0.001  0.306851  -0.005751  4.346757  0.0  0.138411  0.268989  -0.009134  4.323982  -0.002
C  C34  1  0.44782668  0.26572726  0.84541937  1  0.29342  -0.028035  4.029599  -0.016  0.284791  -0.007332  4.333075  -0.001  0.306781  -0.005751  4.346756  0.0  0.138451  0.268917  -0.009136  4.323987  -0.002
S  S35  1  0.54256693  0.60266118  0.23697010  1  -0.386287  -0.001548  2.04049  0.005  -0.356525  -0.000768  2.318052  0.003  -0.369697  -0.001307  2.310454  0.002  -0.163823  -0.347303  -0.000188  2.3237  0.004
S  S36  1  0.45743950  0.39733916  0.76303682  1  -0.386252  -0.001553  2.040683  0.005  -0.356484  -0.00077  2.318227  0.003  -0.369651  -0.001307  2.310629  0.002  -0.163809  -0.347268  -0.00019  2.323885  0.004
N  N37  1  0.22305545  0.03155125  0.19047239  1  0.27167  -0.019253  3.699156  -0.018  0.327637  -0.00739  3.964668  -0.006  0.330049  -0.010103  3.988515  -0.008  -0.10906  0.324061  -0.003806  3.947583  -0.003
N  N38  1  0.77694621  0.96844772  0.80952785  1  0.271482  -0.019255  3.698903  -0.018  0.327461  -0.007393  3.964418  -0.006  0.32987  -0.010121  3.988259  -0.008  -0.109147  0.323888  -0.003808  3.947338  -0.003
N  N39  1  0.96875327  0.67718946  0.43059401  1  -0.419745  0.001467  3.397369  0.003  -0.356762  0.001424  3.642527  0.002  -0.379787  0.000976  3.65478  0.002  -0.420068  -0.341139  0.002047  3.633977  0.003
N  N40  1  0.03124785  0.32280786  0.56939891  1  -0.419906  0.001467  3.397222  0.003  -0.356793  0.001424  3.64236  0.002  -0.379812  0.000977  3.654604  0.002  -0.420115  -0.341142  0.002047  3.633785  0.003
N  N41  1  0.55700544  0.83445396  0.09882993  1  -0.548321  0.034298  3.023213  0.06  -0.521688  0.020925  3.312367  0.031  -0.544072  0.018475  3.312417  0.027  -0.398621  -0.505341  0.02276  3.313746  0.034
N  N42  1  0.44300335  0.16554103  0.90117571  1  -0.548292  0.034308  3.023012  0.06  -0.521661  0.020928  3.312177  0.031  -0.544048  0.018475  3.312231  0.027  -0.398685  -0.505313  0.022762  3.313559  0.034
O  O43  1  0.27014377  0.10313728  0.10567467  1  -0.518068  0.034357  1.842116  0.062  -0.506813  0.022209  2.102967  0.037  -0.541038  0.015277  2.101858  0.026  -0.221568  -0.476788  0.031054  2.100903  0.05
O  O44  1  0.72985480  0.89685923  0.89432459  1  -0.518044  0.034365  1.84208  0.062  -0.50677  0.022213  2.102905  0.037  -0.540999  0.015294  2.101803  0.026  -0.221565  -0.476747  0.031059  2.100844  0.05
O  O45  1  0.24659535  0.80841992  0.57494319  1  -0.572001  0.001013  1.972506  0.002  -0.519784  0.001211  2.196151  0.002  -0.541768  0.000865  2.189338  0.002  -0.295029  -0.504756  0.002071  2.201022  0.004
O  O46  1  0.75340103  0.19158209  0.42506032  1  -0.572011  0.001012  1.972377  0.002  -0.519812  0.001211  2.19608  0.002  -0.541791  0.000863  2.189259  0.002  -0.295059  -0.504797  0.00207  2.20096  0.004
O  O47  1  0.30233239  0.80131916  0.84204457  1  -0.817068  0.026894  1.947575  0.045  -0.78584  0.025965  2.1415  0.041  -0.810832  0.019999  2.10838  0.032  -0.568771  -0.765935  0.032441  2.165335  0.049
O  O48  1  0.69766667  0.19868135  0.15795781  1  -0.816917  0.026895  1.947692  0.045  -0.785683  0.025966  2.141665  0.041  -0.810677  0.02  2.108548  0.032  -0.568722  -0.765778  0.032442  2.165497  0.049
