# generated using pymatgen
data_FeH21C31S2N11O
_symmetry_space_group_name_H-M   'P 1'
_cell_length_a   11.73320557
_cell_length_b   12.66076188
_cell_length_c   12.89400000
_cell_angle_alpha   84.53030661
_cell_angle_beta   67.96677454
_cell_angle_gamma   87.47613792
_symmetry_Int_Tables_number   1
_chemical_formula_structural   FeH21C31S2N11O
_chemical_formula_sum   'Fe2 H42 C62 S4 N22 O2'
_cell_volume   1767.37527041
_cell_formula_units_Z   2
loop_
 _symmetry_equiv_pos_site_id
 _symmetry_equiv_pos_as_xyz
  1  'x, y, z'
loop_
 _atom_site_type_symbol
 _atom_site_label
 _atom_site_symmetry_multiplicity
 _atom_site_fract_x
 _atom_site_fract_y
 _atom_site_fract_z
 _atom_site_occupancy
 _atom_site_hle17_bader_spin_density
 _atom_site_hle17_ddec_charge
 _atom_site_hle17_ddec_spin_density
 _atom_site_hle17_ddec_sum_bond_order
 _atom_site_hle17_magmom
 _atom_site_hse06_10hf_bader_spin_density
 _atom_site_hse06_10hf_ddec_charge
 _atom_site_hse06_10hf_ddec_spin_density
 _atom_site_hse06_10hf_ddec_sum_bond_order
 _atom_site_hse06_10hf_magmom
 _atom_site_hse06_bader_spin_density
 _atom_site_hse06_ddec_charge
 _atom_site_hse06_ddec_spin_density
 _atom_site_hse06_ddec_sum_bond_order
 _atom_site_hse06_magmom
 _atom_site_pbe_bader_charge
 _atom_site_pbe_bader_spin_density
 _atom_site_pbe_cm5_charge
 _atom_site_pbe_ddec_charge
 _atom_site_pbe_ddec_spin_density
 _atom_site_pbe_ddec_sum_bond_order
 _atom_site_pbe_magmom
Fe  Fe0  1  0.99986550  0.00066097  0.99985034  1  0  0.529047  0  3.31866  0  0  0.502669  0  3.795665  0  0  0.531756  0  3.753441  0  1.173604  0  0.844713  0.491629  0  3.814534  0
Fe  Fe1  1  0.51651893  0.49545779  0.48951312  1  0  0.56193  0  3.014515  0  0  0.514028  0  3.515801  0  0  0.563963  0  3.456071  0  1.173385  0  0.738661  0.48876  0  3.547251  0
H  H2  1  0.98055460  0.78262694  0.94980243  1  0  0.087111  0  0.943296  0  0  0.096063  0  1.001444  0  0  0.097574  0  1.000015  0  0.117786  0  0.123282  0.095021  0  1.002519  0
H  H3  1  0.01971820  0.21848098  0.04983726  1  0  0.087947  0  0.942555  0  0  0.097151  0  1.000041  0  0  0.099026  0  0.99825  0  0.1152  0  0.124054  0.095808  0  1.001445  0
H  H4  1  0.14318396  0.04042497  0.13363656  1  0  0.082046  0  0.990092  0  0  0.087142  0  1.05926  0  0  0.088617  0  1.05816  0  0.148587  0  0.117539  0.08606  0  1.060163  0
H  H5  1  0.85648757  0.96006006  0.86619767  1  0  0.082719  0  0.989959  0  0  0.087398  0  1.059502  0  0  0.089091  0  1.058154  0  0.14389  0  0.117633  0.086188  0  1.060528  0
H  H6  1  0.40705082  0.15893933  0.74739313  1  0  0.11733  0  0.979075  0  0  0.12074  0  1.050048  0  0  0.124024  0  1.048743  0  0.122492  0  0.103167  0.118303  0  1.051241  0
H  H7  1  0.59344402  0.84150523  0.25278737  1  0  0.116566  0  0.982266  0  0  0.120143  0  1.05318  0  0  0.123391  0  1.052107  0  0.123475  0  0.102686  0.117702  0  1.054204  0
H  H8  1  0.29221616  0.94377058  0.60460470  1  0  0.125556  0  0.976823  0  0  0.128467  0  1.047519  0  0  0.131748  0  1.046201  0  0.157285  0  0.103007  0.125895  0  1.048989  0
H  H9  1  0.70786287  0.05775789  0.39527584  1  0  0.124553  0  0.980938  0  0  0.126943  0  1.052649  0  0  0.130285  0  1.051508  0  0.16485  0  0.10271  0.124345  0  1.053914  0
H  H10  1  0.98810793  0.05575830  0.39687302  1  0  0.115736  0  0.95466  0  0  0.123492  0  1.019899  0  0  0.126455  0  1.019329  0  0.120614  0  0.10385  0.12146  0  1.020343  0
H  H11  1  0.01191970  0.94505365  0.60252286  1  0  0.116103  0  0.954389  0  0  0.123438  0  1.020026  0  0  0.126614  0  1.01917  0  0.124333  0  0.103874  0.121187  0  1.020735  0
H  H12  1  0.47863839  0.18833325  0.90470769  1  0  0.09434  0  0.929502  0  0  0.110061  0  0.978841  0  0  0.112684  0  0.976517  0  0.078931  0  0.110161  0.1079  0  0.980984  0
H  H13  1  0.52177996  0.81133211  0.09566336  1  0  0.095136  0  0.929186  0  0  0.110653  0  0.978695  0  0  0.113441  0  0.976271  0  0.080644  0  0.110302  0.108316  0  0.980937  0
H  H14  1  0.06973494  0.90148647  0.28392393  1  0  0.092314  0  0.979179  0  0  0.097878  0  1.047415  0  0  0.099741  0  1.047614  0  0.086989  0  0.095237  0.096448  0  1.047504  0
H  H15  1  0.93058834  0.09909854  0.71585605  1  0  0.092613  0  0.980826  0  0  0.097771  0  1.049609  0  0  0.099741  0  1.049794  0  0.089317  0  0.095283  0.096244  0  1.049688  0
H  H16  1  0.12251913  0.40218344  0.86154055  1  0  0.124866  0  0.946212  0  0  0.129626  0  1.012802  0  0  0.132762  0  1.011741  0  0.119323  0  0.1093  0.127495  0  1.013538  0
H  H17  1  0.87267164  0.60231822  0.13255809  1  0  0.127486  0  0.940167  0  0  0.132317  0  1.005857  0  0  0.136042  0  1.004157  0  0.121791  0  0.110922  0.129531  0  1.00737  0
H  H18  1  0.34163661  0.12341335  0.10340471  1  0  0.110354  0  0.94722  0  0  0.121028  0  1.001799  0  0  0.123218  0  1.002858  0  0.071335  0  0.109629  0.119572  0  1.001038  0
H  H19  1  0.65834522  0.87623217  0.89684578  1  0  0.110027  0  0.947117  0  0  0.120761  0  1.001615  0  0  0.123101  0  1.002479  0  0.072438  0  0.109627  0.119192  0  1.001008  0
H  H20  1  0.53833187  0.55292050  0.71405324  1  0  0.093188  0  0.916219  0  0  0.102413  0  0.972472  0  0  0.104003  0  0.971309  0  0.127975  0  0.126551  0.101368  0  0.973343  0
H  H21  1  0.46427612  0.43802999  0.29855600  1  0  0.099576  0  0.920704  0  0  0.106643  0  0.979419  0  0  0.109353  0  0.976114  0  0.136376  0  0.12776  0.104478  0  0.982276  0
H  H22  1  0.02768270  0.50026711  0.63470228  1  0  0.122537  0  0.936079  0  0  0.133175  0  0.993104  0  0  0.13568  0  0.992952  0  0.101928  0  0.11247  0.13141  0  0.993264  0
H  H23  1  0.97559298  0.49986640  0.37483723  1  0  0.126024  0  0.931496  0  0  0.13578  0  0.988735  0  0  0.139005  0  0.987875  0  0.114852  0  0.114035  0.13337  0  0.989563  0
H  H24  1  0.29136792  0.85483343  0.21933513  1  0  0.079512  0  0.964298  0  0  0.08879  0  1.028985  0  0  0.09181  0  1.027412  0  0.063378  0  0.092393  0.086591  0  1.030278  0
H  H25  1  0.70861701  0.14495651  0.78188573  1  0  0.079055  0  0.96711  0  0  0.088627  0  1.031183  0  0  0.091497  0  1.029801  0  0.05837  0  0.092563  0.08656  0  1.032296  0
H  H26  1  0.23487502  0.75596579  0.60892382  1  0  0.099891  0  0.945844  0  0  0.108493  0  1.007155  0  0  0.110698  0  1.006142  0  0.111081  0  0.106219  0.106708  0  1.008206  0
H  H27  1  0.76655629  0.24540477  0.39092246  1  0  0.098761  0  0.948407  0  0  0.108544  0  1.008293  0  0  0.110115  0  1.008062  0  0.111778  0  0.106459  0.107315  0  1.008681  0
H  H28  1  0.40226964  0.66244784  0.35260981  1  0  0.083466  0  0.930086  0  0  0.093694  0  0.988461  0  0  0.09458  0  0.988301  0  0.107374  0  0.121015  0.093101  0  0.988841  0
H  H29  1  0.59005975  0.33772932  0.63657520  1  0  0.089907  0  0.938019  0  0  0.098571  0  0.997222  0  0  0.100468  0  0.995208  0  0.108138  0  0.122886  0.097008  0  0.999272  0
H  H30  1  0.35054151  0.11003596  0.39283140  1  0  0.107356  0  0.978154  0  0  0.113522  0  1.045149  0  0  0.116963  0  1.043756  0  0.10825  0  0.094559  0.110914  0  1.046373  0
H  H31  1  0.64922597  0.89094818  0.60700246  1  0  0.109075  0  0.974411  0  0  0.114551  0  1.042074  0  0  0.118036  0  1.040604  0  0.100384  0  0.095273  0.111872  0  1.043412  0
H  H32  1  0.07337871  0.67264256  0.78771278  1  0  0.101581  0  0.943994  0  0  0.112378  0  1.000058  0  0  0.114784  0  1.000499  0  0.084923  0  0.105528  0.110678  0  0.999907  0
H  H33  1  0.92770727  0.32842648  0.21202134  1  0  0.101937  0  0.94248  0  0  0.113133  0  0.997825  0  0  0.115492  0  0.998203  0  0.074  0  0.106144  0.111543  0  0.997641  0
H  H34  1  0.20961533  0.46053486  0.99917931  1  0  0.096998  0  0.928515  0  0  0.110134  0  0.980656  0  0  0.112598  0  0.979064  0  0.073335  0  0.110532  0.108411  0  0.981753  0
H  H35  1  0.77548018  0.54342644  0.00193793  1  0  0.098249  0  0.928792  0  0  0.111067  0  0.981144  0  0  0.114768  0  0.977087  0  0.079869  0  0.109288  0.108038  0  0.984655  0
H  H36  1  0.19780497  0.72716857  0.35035254  1  0  0.102186  0  0.992227  0  0  0.108267  0  1.05964  0  0  0.11028  0  1.060419  0  0.120126  0  0.100199  0.106845  0  1.059208  0
H  H37  1  0.78670025  0.27484789  0.65502600  1  0  0.103082  0  0.990215  0  0  0.108453  0  1.057982  0  0  0.110911  0  1.058312  0  0.120607  0  0.100225  0.106668  0  1.057896  0
H  H38  1  0.42153927  0.53859093  0.92299559  1  0  0.10403  0  0.940079  0  0  0.11688  0  0.991517  0  0  0.119208  0  0.991897  0  0.073176  0  0.111585  0.115261  0  0.991439  0
H  H39  1  0.56637485  0.45894868  0.08926585  1  0  0.105931  0  0.935926  0  0  0.118411  0  0.987401  0  0  0.121491  0  0.986844  0  0.081031  0  0.111684  0.116033  0  0.988319  0
H  H40  1  0.00547022  0.64524188  0.49494223  1  0  0.106897  0  0.973062  0  0  0.111737  0  1.040708  0  0  0.114825  0  1.038077  0  0.13803  0  0.106951  0.109637  0  1.042435  0
H  H41  1  0.98622918  0.35495274  0.51983080  1  0  0.108878  0  0.969233  0  0  0.112339  0  1.038826  0  0  0.116196  0  1.034562  0  0.154471  0  0.105729  0.109306  0  1.042344  0
H  H42  1  0.43180927  0.95841120  0.27801499  1  0  0.080297  0  0.985178  0  0  0.089607  0  1.04959  0  0  0.091772  0  1.049185  0  0.071968  0  0.090872  0.088057  0  1.049956  0
H  H43  1  0.56804381  0.04194529  0.72293030  1  0  0.079921  0  0.9866  0  0  0.089159  0  1.051137  0  0  0.091372  0  1.050768  0  0.071803  0  0.090628  0.087509  0  1.051523  0
C  C44  1  0.15246583  0.20201455  0.54146779  1  0  0.662567  0  3.803244  0  0  0.613638  0  4.098127  0  0  0.644437  0  4.095543  0  1.658527  0  0.350908  0.592947  0  4.099467  0
C  C45  1  0.84943945  0.79895769  0.45715888  1  0  0.663399  0  3.800408  0  0  0.614114  0  4.095312  0  0  0.645544  0  4.091438  0  1.710714  0  0.351042  0.592823  0  4.097949  0
C  C46  1  0.19332622  0.14717748  0.69404847  1  0  0.595292  0  3.81725  0  0  0.544289  0  4.105148  0  0  0.572905  0  4.109036  0  1.573738  0  0.364358  0.524899  0  4.102416  0
C  C47  1  0.80840907  0.85387331  0.30475840  1  0  0.599403  0  3.808811  0  0  0.546161  0  4.09881  0  0  0.575054  0  4.102151  0  1.574524  0  0.365704  0.526528  0  4.096577  0
C  C48  1  0.16284897  0.96212313  0.77217490  1  0  0.364431  0  3.677018  0  0  0.341533  0  3.932152  0  0  0.357699  0  3.946085  0  0.792261  0  0.230082  0.330485  0  3.923173  0
C  C49  1  0.83699128  0.03928949  0.22760100  1  0  0.364674  0  3.677577  0  0  0.340891  0  3.933059  0  0  0.357097  0  3.946757  0  0.831748  0  0.230824  0.329837  0  3.924255  0
C  C50  1  0.20583169  0.31964100  0.63324143  1  0  0.602436  0  3.817997  0  0  0.551571  0  4.10809  0  0  0.579924  0  4.111676  0  1.603409  0  0.363374  0.532439  0  4.105602  0
C  C51  1  0.80142102  0.68088768  0.36244883  1  0  0.604945  0  3.812169  0  0  0.553679  0  4.102769  0  0  0.581936  0  4.10684  0  1.568593  0  0.364676  0.534637  0  4.099794  0
C  C52  1  0.22486077  0.50437579  0.56121647  1  0  0.364534  0  3.748771  0  0  0.337379  0  4.014259  0  0  0.352059  0  4.030432  0  0.859542  0  0.229009  0.3278  0  4.002918  0
C  C53  1  0.77949127  0.49605053  0.43508579  1  0  0.357497  0  3.718342  0  0  0.331517  0  3.980382  0  0  0.349396  0  3.993725  0  0.829138  0  0.224145  0.319656  0  3.971465  0
C  C54  1  0.23775037  0.08968144  0.86051642  1  0  0.370006  0  3.683741  0  0  0.346184  0  3.939535  0  0  0.363268  0  3.952607  0  0.810195  0  0.230824  0.334236  0  3.931483  0
C  C55  1  0.76229879  0.91135824  0.13931458  1  0  0.369775  0  3.687038  0  0  0.34512  0  3.942777  0  0  0.362018  0  3.956056  0  0.794815  0  0.231253  0.333395  0  3.934439  0
C  C56  1  0.04750490  0.81568677  0.87065132  1  0  0.119655  0  3.681113  0  0  0.088471  0  3.937535  0  0  0.097494  0  3.953867  0  0.429897  0  0.044393  0.082015  0  3.927275  0
C  C57  1  0.95275055  0.18549812  0.12901811  1  0  0.118957  0  3.681837  0  0  0.087453  0  3.938126  0  0  0.096712  0  3.953913  0  0.4259  0  0.042955  0.080536  0  3.928746  0
C  C58  1  0.28648471  0.44626242  0.71955643  1  0  0.376311  0  3.71845  0  0  0.351599  0  3.977686  0  0  0.366323  0  3.994005  0  0.875386  0  0.235426  0.341407  0  3.967068  0
C  C59  1  0.71791339  0.55309428  0.27934690  1  0  0.368255  0  3.689651  0  0  0.342229  0  3.948787  0  0  0.360955  0  3.961592  0  0.87243  0  0.228022  0.329055  0  3.941134  0
C  C60  1  0.92738619  0.20257157  0.88449511  1  0  0.278928  0  4.012684  0  0  0.272787  0  4.318796  0  0  0.294821  0  4.329904  0  0.538731  0  0.130008  0.258029  0  4.310503  0
C  C61  1  0.07389714  0.79870615  0.11379179  1  0  0.278496  0  4.013585  0  0  0.272436  0  4.319767  0  0  0.294317  0  4.331271  0  0.526953  0  0.130574  0.257834  0  4.311113  0
C  C62  1  0.20364447  0.07009423  0.05021397  1  0  0.123831  0  3.673029  0  0  0.090272  0  3.930944  0  0  0.100154  0  3.946236  0  0.368462  0  0.042823  0.083467  0  3.921419  0
C  C63  1  0.79619854  0.93043445  0.94969025  1  0  0.12308  0  3.674072  0  0  0.089572  0  3.931747  0  0  0.099459  0  3.946806  0  0.373225  0  0.042537  0.082602  0  3.922661  0
C  C64  1  0.35145804  0.13685263  0.83524517  1  0  -0.170733  0  3.704762  0  0  -0.191767  0  3.960087  0  0  -0.199444  0  3.977178  0  0.088058  0  -0.080485  -0.187209  0  3.94949  0
C  C65  1  0.64882903  0.86367842  0.16483220  1  0  -0.169886  0  3.703418  0  0  -0.190812  0  3.958237  0  0  -0.198867  0  3.976041  0  0.088422  0  -0.080321  -0.185846  0  3.946917  0
C  C66  1  0.16524111  0.09199604  0.39895264  1  0  0.276858  0  3.776569  0  0  0.270032  0  4.034471  0  0  0.279638  0  4.050375  0  0.346757  0  0.081713  0.263281  0  4.023605  0
C  C67  1  0.83457423  0.90889526  0.60080222  1  0  0.276506  0  3.773763  0  0  0.268691  0  4.03319  0  0  0.278185  0  4.049066  0  0.366352  0  0.081545  0.262027  0  4.022414  0
C  C68  1  0.22101732  0.90590302  0.67813743  1  0  -0.165781  0  3.699251  0  0  -0.187533  0  3.952525  0  0  -0.195156  0  3.969621  0  0.044023  0  -0.075048  -0.183005  0  3.942064  0
C  C69  1  0.77923870  0.09549294  0.32171991  1  0  -0.165348  0  3.697015  0  0  -0.18713  0  3.950039  0  0  -0.194679  0  3.967081  0  0.026168  0  -0.075265  -0.18268  0  3.93961  0
C  C70  1  0.08509875  0.03415722  0.36996000  1  0  -0.172406  0  3.731355  0  0  -0.196555  0  3.985232  0  0  -0.200907  0  4.004373  0  0.016591  0  -0.101166  -0.19335  0  3.971964  0
C  C71  1  0.91489960  0.96664045  0.62969462  1  0  -0.170948  0  3.730506  0  0  -0.194928  0  3.985162  0  0  -0.198987  0  4.003908  0  -0.063175  0  -0.101085  -0.191995  0  3.972304  0
C  C72  1  0.39009254  0.15189079  0.92233346  1  0  -0.009825  0  3.751513  0  0  -0.028013  0  3.999099  0  0  -0.021672  0  4.015172  0  -0.121209  0  -0.073633  -0.032233  0  3.988322  0
C  C73  1  0.61015055  0.84818401  0.07787375  1  0  -0.011337  0  3.751681  0  0  -0.029453  0  3.999469  0  0  -0.023402  0  4.015831  0  -0.064726  0  -0.074026  -0.033327  0  3.988305  0
C  C74  1  0.13162084  0.94749441  0.30679870  1  0  -0.051907  0  3.771429  0  0  -0.063059  0  4.021995  0  0  -0.063166  0  4.042494  0  -0.118791  0  -0.095649  -0.062804  0  4.007941  0
C  C75  1  0.86854784  0.05310409  0.69318635  1  0  -0.050399  0  3.771006  0  0  -0.061366  0  4.020773  0  0  -0.061697  0  4.041572  0  0.007031  0  -0.094863  -0.060912  0  4.006447  0
C  C76  1  0.21468875  0.43470528  0.83433520  1  0  -0.172345  0  3.688536  0  0  -0.190658  0  3.938473  0  0  -0.19875  0  3.95843  0  0.032478  0  -0.075299  -0.18528  0  3.925  0
C  C77  1  0.78151915  0.56729610  0.16357298  1  0  -0.167749  0  3.697482  0  0  -0.187941  0  3.952898  0  0  -0.195842  0  3.967915  0  0.004356  0  -0.076398  -0.183162  0  3.944006  0
C  C78  1  0.31500331  0.11661476  0.03198195  1  0  -0.129249  0  3.759829  0  0  -0.140654  0  4.007942  0  0  -0.14849  0  4.02842  0  0.08993  0  -0.087163  -0.135529  0  3.994005  0
C  C79  1  0.68501938  0.88343386  0.96816645  1  0  -0.129005  0  3.75992  0  0  -0.140538  0  4.008154  0  0  -0.148295  0  4.028493  0  0.038458  0  -0.087385  -0.135449  0  3.994268  0
C  C80  1  0.44679195  0.51855143  0.75181292  1  0  0.124861  0  3.700747  0  0  0.0945  0  3.958769  0  0  0.101398  0  3.978054  0  0.466813  0  0.052842  0.089788  0  3.945762  0
C  C81  1  0.55348385  0.47572219  0.25696393  1  0  0.123429  0  3.655842  0  0  0.090745  0  3.91642  0  0  0.102657  0  3.929458  0  0.34119  0  0.046011  0.0815  0  3.910034  0
C  C82  1  0.10734834  0.53851158  0.56949414  1  0  -0.179587  0  3.703221  0  0  -0.197537  0  3.951698  0  0  -0.206021  0  3.972635  0  0.009553  0  -0.076112  -0.191483  0  3.936674  0
C  C83  1  0.89329784  0.46179095  0.43624904  1  0  -0.17289  0  3.70625  0  0  -0.193487  0  3.959351  0  0  -0.201671  0  3.975251  0  0.019789  0  -0.076026  -0.18823  0  3.94909  0
C  C84  1  0.25634085  0.92077375  0.27172687  1  0  -0.102479  0  3.800124  0  0  -0.118549  0  4.052003  0  0  -0.122288  0  4.074312  0  -0.035814  0  -0.104282  -0.115939  0  4.036703  0
C  C85  1  0.74369789  0.07950022  0.72884091  1  0  -0.102375  0  3.803764  0  0  -0.117975  0  4.054898  0  0  -0.122024  0  4.077868  0  -0.110872  0  -0.103744  -0.115043  0  4.038952  0
C  C86  1  0.48780507  0.25521068  0.50237893  1  0  0.261201  0  4.030672  0  0  0.252642  0  4.341657  0  0  0.276284  0  4.354446  0  0.4184  0  0.130135  0.237188  0  4.330917  0
C  C87  1  0.52230256  0.73725934  0.48961883  1  0  0.263934  0  4.030265  0  0  0.25533  0  4.340648  0  0  0.278959  0  4.352884  0  0.527849  0  0.128911  0.239842  0  4.330782  0
C  C88  1  0.18893019  0.80089459  0.68154768  1  0  0.00774  0  3.718787  0  0  -0.010482  0  3.96694  0  0  -0.003533  0  3.982004  0  0.029723  0  -0.06813  -0.015352  0  3.957407  0
C  C89  1  0.81186302  0.20038869  0.31825858  1  0  0.008335  0  3.716761  0  0  -0.009613  0  3.96386  0  0  -0.00304  0  3.980064  0  -0.044907  0  -0.067144  -0.013983  0  3.953084  0
C  C90  1  0.31649065  0.62739240  0.41142973  1  0  0.121257  0  3.700679  0  0  0.091725  0  3.957065  0  0  0.097922  0  3.977203  0  0.387497  0  0.050882  0.086791  0  3.944025  0
C  C91  1  0.67755541  0.37295298  0.58259868  1  0  0.114044  0  3.662467  0  0  0.082481  0  3.920666  0  0  0.093465  0  3.935132  0  0.452522  0  0.042554  0.072708  0  3.91467  0
C  C92  1  0.28967916  0.06533410  0.36700709  1  0  -0.180748  0  3.757036  0  0  -0.200035  0  4.00134  0  0  -0.204929  0  4.020932  0  -0.024682  0  -0.104552  -0.196678  0  3.988358  0
C  C93  1  0.71013108  0.93551673  0.63294099  1  0  -0.180649  0  3.755217  0  0  -0.199432  0  4.000198  0  0  -0.204238  0  4.019767  0  -0.011258  0  -0.104276  -0.196134  0  3.987276  0
C  C94  1  0.10049722  0.75509613  0.78006720  1  0  -0.127016  0  3.763039  0  0  -0.140266  0  4.014652  0  0  -0.147713  0  4.034758  0  -0.083785  0  -0.087537  -0.135514  0  4.001456  0
C  C95  1  0.90023185  0.24607844  0.21965247  1  0  -0.12691  0  3.763393  0  0  -0.140456  0  4.014861  0  0  -0.148196  0  4.035433  0  -0.013152  0  -0.086868  -0.135308  0  4.000975  0
C  C96  1  0.26364311  0.46662328  0.90922052  1  0  0.000684  0  3.748694  0  0  -0.016921  0  3.995286  0  0  -0.013548  0  4.015467  0  -0.020468  0  -0.065182  -0.019045  0  3.981339  0
C  C97  1  0.72729496  0.53499009  0.09278990  1  0  -0.004376  0  3.750472  0  0  -0.025193  0  4.003193  0  0  -0.015655  0  4.015186  0  -0.001607  0  -0.071506  -0.03244  0  3.996438  0
C  C98  1  0.20287157  0.66404751  0.41186751  1  0  -0.117498  0  3.732515  0  0  -0.12911  0  3.977356  0  0  -0.136311  0  4.000485  0  0.002566  0  -0.081951  -0.124283  0  3.962142  0
C  C99  1  0.78759568  0.33757300  0.59099010  1  0  -0.115675  0  3.739678  0  0  -0.12817  0  3.988477  0  0  -0.135655  0  4.0067  0  -0.05969  0  -0.08343  -0.123348  0  3.977872  0
C  C100  1  0.38145885  0.51016269  0.86717252  1  0  -0.129365  0  3.767352  0  0  -0.142796  0  4.015876  0  0  -0.150629  0  4.039571  0  -0.00635  0  -0.082258  -0.137535  0  3.999726  0
C  C101  1  0.61142167  0.48785460  0.14103379  1  0  -0.127542  0  3.770722  0  0  -0.142285  0  4.024751  0  0  -0.149878  0  4.042361  0  0.071464  0  -0.084923  -0.137666  0  4.014365  0
C  C102  1  0.09607458  0.61871245  0.49234784  1  0  0.009451  0  3.700204  0  0  -0.006206  0  3.943377  0  0  -0.003064  0  3.962449  0  0.023821  0  -0.0644  -0.008413  0  3.930089  0
C  C103  1  0.89821317  0.38190986  0.51626502  1  0  0.008905  0  3.697788  0  0  -0.009434  0  3.946469  0  0  -2e-06  0  3.957687  0  -0.05511  0  -0.069277  -0.017174  0  3.940522  0
C  C104  1  0.33478502  0.97923070  0.30292355  1  0  -0.05805  0  3.808622  0  0  -0.0681  0  4.054219  0  0  -0.068717  0  4.076402  0  -0.06517  0  -0.097212  -0.067528  0  4.038949  0
C  C105  1  0.66512429  0.02128766  0.69760427  1  0  -0.058698  0  3.81081  0  0  -0.068852  0  4.056217  0  0  -0.069602  0  4.078701  0  -0.059498  0  -0.097144  -0.068146  0  4.040713  0
S  S106  1  0.48772326  0.12738951  0.52635803  1  0  -0.338038  0  2.08694  0  0  -0.323883  0  2.392555  0  0  -0.339804  0  2.387895  0  0.10394  0  -0.159205  -0.310448  0  2.394462  0
S  S107  1  0.51029561  0.86517732  0.47331257  1  0  -0.352252  0  2.079189  0  0  -0.337463  0  2.384307  0  0  -0.352824  0  2.379094  0  0.048053  0  -0.167807  -0.324797  0  2.386789  0
S  S108  1  0.88582419  0.31562120  0.83801545  1  0  -0.440038  0  1.894964  0  0  -0.428455  0  2.147672  0  0  -0.444927  0  2.141148  0  -0.004219  0  -0.244264  -0.415317  0  2.151525  0
S  S109  1  0.11717974  0.68553433  0.15835924  1  0  -0.438394  0  1.893849  0  0  -0.427965  0  2.1459  0  0  -0.443797  0  2.139634  0  -0.010567  0  -0.245494  -0.415427  0  2.149618  0
N  N110  1  0.15998344  0.11989424  0.61130834  1  0  -0.571447  0  3.010644  0  0  -0.537448  0  3.288052  0  0  -0.560239  0  3.295929  0  -1.186885  0  -0.330714  -0.522226  0  3.282841  0
N  N111  1  0.83968222  0.88133191  0.38862061  1  0  -0.570069  0  3.008813  0  0  -0.535656  0  3.286792  0  0  -0.557859  0  3.293847  0  -1.207693  0  -0.330086  -0.520967  0  3.282231  0
N  N112  1  0.17080460  0.30384824  0.54768967  1  0  -0.569343  0  2.961536  0  0  -0.542681  0  3.238531  0  0  -0.563935  0  3.242799  0  -1.185133  0  -0.340071  -0.528511  0  3.235566  0
N  N113  1  0.83503934  0.69678756  0.44864674  1  0  -0.565812  0  2.965425  0  0  -0.539668  0  3.243531  0  0  -0.560439  0  3.247019  0  -1.22655  0  -0.337772  -0.525991  0  3.241289  0
N  N114  1  0.21836444  0.24533891  0.70890872  1  0  -0.560472  0  3.02998  0  0  -0.528353  0  3.310623  0  0  -0.55072  0  3.319037  0  -1.242513  0  -0.332967  -0.513322  0  3.304958  0
N  N115  1  0.78705792  0.75525483  0.28783613  1  0  -0.559671  0  3.027598  0  0  -0.526853  0  3.308795  0  0  -0.549454  0  3.317514  0  -1.205601  0  -0.331745  -0.511767  0  3.30308  0
N  N116  1  0.07579098  0.91911378  0.86741474  1  0  -0.277617  0  3.314821  0  0  -0.23163  0  3.584116  0  0  -0.252494  0  3.60117  0  -1.165697  0  -0.328575  -0.218603  0  3.571806  0
N  N117  1  0.92408085  0.08218061  0.13228078  1  0  -0.277042  0  3.315521  0  0  -0.230936  0  3.584753  0  0  -0.251537  0  3.601511  0  -1.165928  0  -0.328721  -0.218005  0  3.572587  0
N  N118  1  0.32762240  0.54705505  0.48363651  1  0  -0.301238  0  3.17944  0  0  -0.253631  0  3.44539  0  0  -0.276026  0  3.463183  0  -1.217283  0  -0.284215  -0.238242  0  3.432589  0
N  N119  1  0.67159043  0.45280154  0.50614943  1  0  -0.275183  0  3.315942  0  0  -0.229556  0  3.598685  0  0  -0.254895  0  3.614156  0  -1.157014  0  -0.32773  -0.213664  0  3.587352  0
N  N120  1  0.19862270  0.06760109  0.77333191  1  0  -0.320147  0  3.415261  0  0  -0.249421  0  3.645953  0  0  -0.270845  0  3.658387  0  -1.200444  0  -0.227846  -0.234598  0  3.637294  0
N  N121  1  0.80132961  0.93373456  0.22647498  1  0  -0.320463  0  3.414374  0  0  -0.247667  0  3.643924  0  0  -0.268865  0  3.655982  0  -1.22229  0  -0.228063  -0.233024  0  3.635532  0
N  N122  1  0.40089118  0.48520277  0.67930667  1  0  -0.297421  0  3.167855  0  0  -0.249296  0  3.431309  0  0  -0.27149  0  3.448712  0  -1.218907  0  -0.284166  -0.234508  0  3.419494  0
N  N123  1  0.60414378  0.50976039  0.32694960  1  0  -0.271578  0  3.308198  0  0  -0.22398  0  3.587793  0  0  -0.249265  0  3.60321  0  -1.17886  0  -0.32723  -0.208536  0  3.57704  0
N  N124  1  0.23729990  0.42165481  0.63943783  1  0  -0.343032  0  3.419534  0  0  -0.273035  0  3.656515  0  0  -0.294115  0  3.669494  0  -1.221843  0  -0.234337  -0.258537  0  3.647293  0
N  N125  1  0.77359828  0.57790740  0.35413828  1  0  -0.340047  0  3.432096  0  0  -0.269139  0  3.667867  0  0  -0.290596  0  3.678845  0  -1.239138  0  -0.237694  -0.254345  0  3.660268  0
N  N126  1  0.16277816  0.05880450  0.96653966  1  0  -0.278545  0  3.33291  0  0  -0.2347  0  3.60601  0  0  -0.255191  0  3.621695  0  -1.165803  0  -0.33497  -0.222045  0  3.594626  0
N  N127  1  0.83707865  0.94225343  0.03323663  1  0  -0.279035  0  3.334695  0  0  -0.234169  0  3.606685  0  0  -0.254554  0  3.622432  0  -1.140956  0  -0.335062  -0.221518  0  3.595166  0
N  N128  1  0.95924521  0.11935229  0.91587312  1  0  -0.479245  0  3.199865  0  0  -0.461591  0  3.506046  0  0  -0.480358  0  3.512716  0  -1.304434  0  -0.422297  -0.449638  0  3.499771  0
N  N129  1  0.04073519  0.88193417  0.08371783  1  0  -0.479806  0  3.199017  0  0  -0.461999  0  3.505011  0  0  -0.481098  0  3.512028  0  -1.28462  0  -0.422609  -0.44977  0  3.498448  0
N  N130  1  0.48565982  0.34926185  0.48705245  1  0  -0.494959  0  3.213803  0  0  -0.476615  0  3.536498  0  0  -0.500059  0  3.540343  0  -1.251229  0  -0.434743  -0.460829  0  3.53064  0
N  N131  1  0.53246776  0.64349859  0.50021587  1  0  -0.494077  0  3.208157  0  0  -0.475889  0  3.528282  0  0  -0.498713  0  3.531739  0  -1.310227  0  -0.433699  -0.460959  0  3.523461  0
O  O132  1  0.11968171  0.18378895  0.45431632  1  0  -0.330563  0  2.288308  0  0  -0.261907  0  2.510819  0  0  -0.280527  0  2.507247  0  -1.098016  0  -0.140466  -0.248543  0  2.512733  0
O  O133  1  0.88019625  0.81700395  0.54542560  1  0  -0.329489  0  2.291122  0  0  -0.260288  0  2.513733  0  0  -0.278567  0  2.509771  0  -1.097369  0  -0.138426  -0.247334  0  2.516099  0
