# generated using pymatgen
data_MnCrH22C31Br2(N4O)2
_symmetry_space_group_name_H-M   'P 1'
_cell_length_a   10.19736087
_cell_length_b   11.71019288
_cell_length_c   14.77847271
_cell_angle_alpha   68.96588366
_cell_angle_beta   84.97346528
_cell_angle_gamma   86.08209639
_symmetry_Int_Tables_number   1
_chemical_formula_structural   MnCrH22C31Br2(N4O)2
_chemical_formula_sum   'Mn2 Cr2 H44 C62 Br4 N16 O4'
_cell_volume   1639.52655486
_cell_formula_units_Z   2
loop_
 _symmetry_equiv_pos_site_id
 _symmetry_equiv_pos_as_xyz
  1  'x, y, z'
loop_
 _atom_site_type_symbol
 _atom_site_label
 _atom_site_symmetry_multiplicity
 _atom_site_fract_x
 _atom_site_fract_y
 _atom_site_fract_z
 _atom_site_occupancy
 _atom_site_pbe_bader_charge
 _atom_site_pbe_bader_spin_density
 _atom_site_pbe_cm5_charge
 _atom_site_pbe_ddec_charge
 _atom_site_pbe_ddec_spin_density
 _atom_site_pbe_ddec_sum_bond_order
 _atom_site_pbe_magmom
Mn  Mn0  1  0.61323557  0.00525728  0.24451101  1  1.665441  3.525777  0.835661  0.976439  3.748427  3.083876  3.51
Mn  Mn1  1  0.38618474  0.99455413  0.75517901  1  1.66565  -3.529207  0.834678  0.975725  -3.751403  3.080522  -3.513
Cr  Cr2  1  0.11352057  0.00400272  0.23966610  1  1.53777  -2.531529  0.848667  0.820335  -2.702677  3.685859  -2.552
Cr  Cr3  1  0.88615231  0.99683703  0.76036384  1  1.537055  2.534138  0.848113  0.819179  2.705723  3.685074  2.554
H  H4  1  0.57289020  0.65108996  0.31332445  1  0.09067  -0.002804  0.11063  0.071219  -0.001917  1.008817  -0.002
H  H5  1  0.42955598  0.34837875  0.68631918  1  0.096069  0.002811  0.110637  0.071423  0.001917  1.008945  0.002
H  H6  1  0.54760690  0.90999870  0.56316480  1  0.140022  -0.000228  0.109747  0.137402  0.0  1.025618  0.0
H  H7  1  0.45090501  0.09013044  0.43625136  1  0.133368  0.000228  0.10986  0.137318  4e-06  1.02499  0.0
H  H8  1  0.60370928  0.71092070  0.68868003  1  0.104951  -0.000178  0.103463  0.116611  -0.000112  1.007332  0.0
H  H9  1  0.39531351  0.28960725  0.31103677  1  0.101619  0.000184  0.103262  0.11613  0.000121  1.006639  0.0
H  H10  1  0.12439969  0.17039630  0.51301557  1  0.124328  0.000132  0.113109  0.127805  0.000257  1.010471  0.0
H  H11  1  0.87452532  0.82875026  0.48810435  1  0.101745  -0.00015  0.11329  0.127773  -0.000269  1.009648  0.0
H  H12  1  0.72844380  0.38215453  0.92227825  1  0.102402  -7.1e-05  0.104767  0.120127  -0.000179  1.021628  0.0
H  H13  1  0.27320898  0.61766836  0.07775417  1  0.102353  7.4e-05  0.104829  0.119896  0.000185  1.021565  0.0
H  H14  1  0.64290234  0.54096794  0.47212110  1  0.052446  2.3e-05  0.096689  0.103665  -0.000106  1.027225  0.0
H  H15  1  0.35918881  0.45902697  0.52791669  1  0.054621  -2.1e-05  0.096568  0.103703  0.000108  1.027755  0.0
H  H16  1  0.76975254  0.17303276  0.98001019  1  0.177367  -0.003101  0.125284  0.102091  -0.001887  1.024281  -0.003
H  H17  1  0.23138999  0.82665310  0.02023783  1  0.174077  0.003127  0.125007  0.101997  0.001892  1.025768  0.003
H  H18  1  0.29771826  0.65172131  0.53462517  1  0.067965  4.8e-05  0.105133  0.106025  0.000109  1.00758  0.0
H  H19  1  0.69978578  0.34759677  0.46507308  1  0.067001  -4.9e-05  0.105203  0.105835  -0.000111  1.007793  0.0
H  H20  1  0.20558446  0.99490968  0.57497806  1  0.143206  0.000394  0.115067  0.127599  0.000749  1.040792  0.0
H  H21  1  0.79528897  0.00468086  0.42509702  1  0.143746  -0.000392  0.114878  0.12669  -0.000743  1.041273  0.0
H  H22  1  0.63013720  0.57588201  0.11986872  1  0.089593  -0.000219  0.100154  0.106055  -0.000236  1.015591  0.0
H  H23  1  0.37006340  0.42386990  0.88008361  1  0.087618  0.000215  0.100142  0.106017  0.000232  1.015124  0.0
H  H24  1  0.04160070  0.38257029  0.42283711  1  0.078864  -7.9e-05  0.111577  0.108044  -3.2e-05  0.975089  0.0
H  H25  1  0.95779604  0.61692802  0.57879419  1  0.078519  8.9e-05  0.111333  0.107227  3.1e-05  0.974416  0.0
H  H26  1  0.61027330  0.37855450  0.25763191  1  0.037601  0.000243  0.097336  0.109697  6.7e-05  1.02922  0.0
H  H27  1  0.38908591  0.62111187  0.74222657  1  0.036553  -0.000242  0.097346  0.109648  -6.7e-05  1.028823  0.0
H  H28  1  0.21661397  0.74588189  0.36792705  1  0.123256  0.000639  0.109484  0.081061  0.000489  1.055243  0.0
H  H29  1  0.78112550  0.25444675  0.63178569  1  0.121323  -0.000648  0.10967  0.081138  -0.000499  1.055391  0.0
H  H30  1  0.82443885  0.89379907  0.13686716  1  0.086555  1.3e-05  0.114284  0.10358  5.8e-05  0.970194  0.0
H  H31  1  0.17582729  0.10636909  0.86291845  1  0.084865  -5e-06  0.114209  0.103498  -5.9e-05  0.970492  0.0
H  H32  1  0.81852548  0.98520882  0.01316216  1  0.092884  -0.001967  0.112621  0.103863  -0.001819  0.991495  -0.001
H  H33  1  0.18145886  0.01518505  0.98666770  1  0.092751  0.001976  0.112844  0.104598  0.001822  0.991227  0.001
H  H34  1  0.29228678  0.78378027  0.63943707  1  0.133203  -0.000394  0.110953  0.111783  -0.000121  1.045798  0.0
H  H35  1  0.70706938  0.21527306  0.36042499  1  0.129413  0.000402  0.111021  0.112235  0.000124  1.045708  0.0
H  H36  1  0.00869032  0.27489984  0.17519995  1  0.163637  0.000623  0.125649  0.105922  0.000428  1.000006  0.001
H  H37  1  0.99281313  0.72679476  0.82506557  1  0.159159  -0.000614  0.125266  0.106174  -0.000429  0.999352  -0.001
H  H38  1  0.98332763  0.43744558  0.24939359  1  0.093363  1.6e-05  0.121479  0.132479  8.6e-05  0.963782  0.0
H  H39  1  0.01837261  0.56362999  0.75152423  1  0.095862  -1.4e-05  0.121274  0.132023  -8.6e-05  0.963764  0.0
H  H40  1  0.51602985  0.73400831  0.16654633  1  0.034115  -0.00152  0.099161  0.072217  -0.001177  1.005728  -0.001
H  H41  1  0.48597306  0.26459416  0.83355739  1  0.042917  0.001487  0.099127  0.072933  0.001161  1.004012  0.001
H  H42  1  0.45723547  0.88741643  0.13214831  1  0.113075  -0.000447  0.112599  0.098329  -0.000404  0.991972  0.0
H  H43  1  0.54265255  0.11053855  0.86794611  1  0.082221  0.000432  0.112435  0.098315  0.000354  0.992912  0.0
H  H44  1  0.60787911  0.91156131  0.00109529  1  0.064726  -8e-06  0.094575  0.102678  3.6e-05  0.992631  0.0
H  H45  1  0.39198684  0.08920367  0.99877732  1  0.065491  4e-06  0.094444  0.10293  -4.6e-05  0.992913  0.0
H  H46  1  0.70961971  0.78540794  0.06272440  1  0.064924  0.000183  0.09393  0.097646  0.000126  1.004981  0.0
H  H47  1  0.29080015  0.21523605  0.93617713  1  0.063503  -0.00019  0.093605  0.097363  -0.000132  1.00484  0.0
C  C48  1  0.65389169  0.26658077  0.16922869  1  0.608385  0.00187  0.098151  0.302089  0.002691  4.080292  0.002
C  C49  1  0.34574403  0.73323593  0.83063425  1  0.61248  -0.001949  0.098191  0.302332  -0.002764  4.07968  -0.002
C  C50  1  0.57356868  0.84337359  0.44341295  1  0.688975  0.00452  0.100753  0.304797  0.004861  4.08042  0.004
C  C51  1  0.42593348  0.15639707  0.55622429  1  0.627023  -0.004551  0.100745  0.303769  -0.004892  4.080664  -0.004
C  C52  1  0.58547381  0.73944395  0.32123680  1  0.580094  0.02325  0.088447  0.117676  0.020211  3.914723  0.016
C  C53  1  0.41578073  0.26010983  0.67852675  1  0.580447  -0.023468  0.088491  0.117843  -0.02041  3.911969  -0.016
C  C54  1  0.57198634  0.83003678  0.54263930  1  -0.042646  0.004761  -0.100464  -0.191876  0.003389  3.930945  0.002
C  C55  1  0.42712850  0.17003943  0.45696204  1  0.023669  -0.00476  -0.09983  -0.191088  -0.003384  3.930502  -0.002
C  C56  1  0.30404753  0.04934444  0.20469504  1  0.663508  0.053139  -0.003778  -0.097953  0.059022  3.626837  0.075
C  C57  1  0.69587037  0.94979304  0.79554135  1  0.668627  -0.052433  -0.003668  -0.098379  -0.058462  3.625854  -0.075
C  C58  1  0.60131806  0.71795070  0.61323790  1  -0.05861  0.004311  -0.090406  -0.099545  0.003613  4.008552  0.002
C  C59  1  0.39816439  0.28236328  0.38650849  1  -0.074537  -0.004355  -0.090432  -0.098744  -0.003636  4.007129  -0.002
C  C60  1  0.16230628  0.85876931  0.20008161  1  0.662121  0.032187  -0.036231  -0.168929  0.036555  3.743935  0.059
C  C61  1  0.83662375  0.14209085  0.79985941  1  0.654081  -0.032158  -0.036352  -0.17039  -0.036483  3.742249  -0.059
C  C62  1  0.68775974  0.26961038  0.07276358  1  0.051777  0.010064  -0.02214  -0.056779  0.00759  4.015706  0.005
C  C63  1  0.31263736  0.73030192  0.92716063  1  0.01171  -0.009988  -0.022462  -0.057366  -0.007504  4.016387  -0.005
C  C64  1  0.16360542  0.98484504  0.43684926  1  0.388013  -0.013959  0.12201  0.16767  -0.011155  3.964358  -0.01
C  C65  1  0.83571875  0.01512889  0.56341434  1  0.409697  0.013952  0.122166  0.166715  0.011156  3.965582  0.01
C  C66  1  0.92644925  0.95143674  0.27809364  1  0.687946  0.053849  -0.009213  -0.1159  0.059401  3.65124  0.076
C  C67  1  0.07303436  0.04981572  0.72147064  1  0.684548  -0.053999  -0.00934  -0.116213  -0.05955  3.649969  -0.076
C  C68  1  0.05677577  0.11063782  0.10889380  1  0.633988  0.040653  -0.050038  -0.204041  0.041702  3.796743  0.063
C  C69  1  0.94374506  0.89062746  0.89105013  1  0.630492  -0.040797  -0.049048  -0.202253  -0.041852  3.79522  -0.063
C  C70  1  0.59843364  0.73621749  0.41834514  1  0.01188  0.008675  -0.029915  -0.068969  0.006581  4.045221  0.004
C  C71  1  0.40226471  0.26355175  0.58143074  1  0.016376  -0.008602  -0.029475  -0.068177  -0.006545  4.043527  -0.004
C  C72  1  0.09788681  0.19620428  0.43828700  1  -0.026723  0.004871  -0.07253  -0.138885  0.004112  3.916235  0.004
C  C73  1  0.90165779  0.80354895  0.56262548  1  0.005888  -0.004839  -0.072519  -0.138448  -0.004104  3.914364  -0.004
C  C74  1  0.70044619  0.38268451  0.99509780  1  0.072194  0.004365  -0.082944  -0.142379  0.003793  3.955286  0.002
C  C75  1  0.30057109  0.61719328  0.00488346  1  0.07475  -0.004336  -0.082784  -0.142012  -0.003771  3.954992  -0.002
C  C76  1  0.11192470  0.11108813  0.39133806  1  0.474718  -0.016194  0.121748  0.168949  -0.012957  3.961121  -0.012
C  C77  1  0.88785391  0.88911630  0.60913308  1  0.435536  0.016176  0.121774  0.169525  0.012912  3.959307  0.011
C  C78  1  0.62467611  0.62217192  0.49190049  1  -0.005549  0.002984  -0.101157  -0.172926  0.002509  4.028023  0.001
C  C79  1  0.37649706  0.37787564  0.50798272  1  -0.005127  -0.00305  -0.10095  -0.1734  -0.002568  4.0274  -0.001
C  C80  1  0.72071104  0.15999748  0.05195111  1  0.560577  0.029276  0.099975  0.136267  0.025883  3.868832  0.021
C  C81  1  0.27976499  0.83983465  0.94810096  1  0.601936  -0.029097  0.100508  0.136598  -0.025758  3.870527  -0.021
C  C82  1  0.62927829  0.61392306  0.58746845  1  -0.133925  0.010719  -0.046221  0.047696  0.008495  4.043083  0.006
C  C83  1  0.37119496  0.38637570  0.41241266  1  -0.121286  -0.010663  -0.046149  0.047638  -0.00847  4.04377  -0.006
C  C84  1  0.25925740  0.74612675  0.50926153  1  0.013752  0.00499  -0.078604  -0.120387  0.004293  3.978157  0.004
C  C85  1  0.73890952  0.25339600  0.49060999  1  0.012368  -0.004986  -0.078901  -0.120315  -0.004294  3.977195  -0.004
C  C86  1  0.67803243  0.49112497  0.01244680  1  -0.128479  0.013304  -0.032486  0.077794  0.010564  4.013343  0.008
C  C87  1  0.32269149  0.50875199  0.98750774  1  -0.132055  -0.013156  -0.032497  0.077535  -0.010448  4.011679  -0.008
C  C88  1  0.20774826  0.93826668  0.53046592  1  0.05017  0.004422  -0.069046  -0.128611  0.003769  3.87832  0.004
C  C89  1  0.79201463  0.06132331  0.46967771  1  0.107248  -0.004479  -0.068926  -0.126817  -0.003768  3.879492  -0.004
C  C90  1  0.64718105  0.48977773  0.10722865  1  -0.095756  0.003447  -0.092652  -0.102771  0.002911  4.032012  0.001
C  C91  1  0.35307854  0.51001367  0.89271217  1  -0.030125  -0.003395  -0.092309  -0.102033  -0.002941  4.030939  -0.001
C  C92  1  0.05106356  0.31466271  0.38778096  1  -0.022409  -0.021035  -0.063193  -0.023619  -0.017026  3.979245  -0.013
C  C93  1  0.94888981  0.68533457  0.61336701  1  -0.007889  0.020968  -0.063401  -0.023142  0.016974  3.976781  0.013
C  C94  1  0.63654662  0.37942249  0.18433254  1  0.04871  0.008595  -0.111539  -0.217441  0.006561  4.010486  0.004
C  C95  1  0.36319931  0.62035991  0.81556134  1  -0.016585  -0.008546  -0.111198  -0.217204  -0.006464  4.009092  -0.004
C  C96  1  0.21464267  0.79738562  0.41649883  1  0.427869  -0.017191  0.051378  0.103463  -0.014056  3.911925  -0.012
C  C97  1  0.78344390  0.20259397  0.58343523  1  0.429877  0.017213  0.051388  0.10362  0.014047  3.909616  0.012
C  C98  1  0.75763081  0.94812027  0.08130053  1  0.281271  -0.000104  -0.060432  -0.034704  -0.000391  3.891603  0.0
C  C99  1  0.24245995  0.05194340  0.91857369  1  0.283288  0.00013  -0.060858  -0.035469  0.00042  3.892084  0.0
C  C100  1  0.25624250  0.81780662  0.56703326  1  -0.047496  -0.019515  -0.060203  -0.010819  -0.015727  3.9282  -0.012
C  C101  1  0.74280590  0.18152164  0.43293425  1  -0.09494  0.019594  -0.0601  -0.011283  0.015728  3.928308  0.012
C  C102  1  0.03274292  0.25623846  0.24966291  1  0.510888  -0.020319  0.058139  0.10745  -0.016787  3.909711  -0.015
C  C103  1  0.96836328  0.74492878  0.75076035  1  0.495929  0.020265  0.058967  0.108033  0.016742  3.909234  0.015
C  C104  1  0.01827942  0.34540306  0.29204162  1  -0.01122  0.006053  -0.073246  -0.120449  0.005184  3.958012  0.005
C  C105  1  0.98271363  0.65539453  0.70877266  1  -0.007649  -0.006039  -0.0725  -0.11945  -0.00518  3.959075  -0.005
C  C106  1  0.54579628  0.82770560  0.15268171  1  0.262963  -0.000268  -0.05913  -0.029852  -0.00079  3.880494  0.0
C  C107  1  0.45486443  0.17130875  0.84723933  1  0.28148  0.000189  -0.059238  -0.031165  0.000724  3.880281  0.0
C  C108  1  0.65483162  0.86619456  0.06985708  1  -0.058539  -0.000692  -0.158591  -0.184491  -0.000977  3.88176  0.0
C  C109  1  0.34537141  0.13394265  0.92979506  1  -0.053223  0.000695  -0.157764  -0.183845  0.000986  3.882607  0.0
Br  Br110  1  0.68136369  0.46316625  0.68483071  1  -0.055049  0.003437  0.052875  -0.058188  0.003669  1.645417  0.002
Br  Br111  1  0.31921753  0.53746731  0.31541673  1  -0.055821  -0.003382  0.053033  -0.057635  -0.003612  1.6419  -0.002
Br  Br112  1  0.68618368  0.64521368  0.90948567  1  -0.061478  0.00281  0.054114  -0.041306  0.002456  1.611364  0.002
Br  Br113  1  0.31433472  0.35458177  0.09048438  1  -0.062271  -0.002774  0.054369  -0.041237  -0.00243  1.609495  -0.002
N  N114  1  0.58075025  0.83705501  0.24378300  1  -1.181664  -0.01453  -0.345741  -0.21962  -0.018639  3.495195  -0.038
N  N115  1  0.41963472  0.16243521  0.75599781  1  -1.185752  0.014471  -0.346269  -0.220026  0.018626  3.493678  0.038
N  N116  1  0.16821866  0.91429038  0.38079504  1  -1.218286  0.000449  -0.345444  -0.262914  0.01009  3.589474  0.031
N  N117  1  0.83051067  0.08590976  0.61932247  1  -1.209336  -0.000483  -0.345185  -0.262658  -0.010123  3.58693  -0.031
N  N118  1  0.70108496  0.04878446  0.11088983  1  -1.205048  -0.013523  -0.35835  -0.238244  -0.018413  3.502089  -0.04
N  N119  1  0.29886811  0.95112759  0.88909305  1  -1.201286  0.014  -0.357635  -0.238012  0.018712  3.500499  0.04
N  N120  1  0.07909356  0.14183025  0.29797207  1  -1.247983  -0.000695  -0.343811  -0.266543  0.009367  3.579391  0.032
N  N121  1  0.92129909  0.85900384  0.70229077  1  -1.253592  0.000726  -0.344501  -0.267062  -0.009539  3.580258  -0.032
N  N122  1  0.41745398  0.06676324  0.19080578  1  -1.317515  -0.021878  -0.352192  -0.327344  -0.017237  3.2961  -0.033
N  N123  1  0.58256217  0.93181066  0.80855112  1  -1.322826  0.021526  -0.351755  -0.327381  0.016913  3.293327  0.032
N  N124  1  0.81585572  0.92585775  0.30175527  1  -1.363896  -0.041952  -0.349709  -0.344566  -0.032669  3.273038  -0.046
N  N125  1  0.18391311  0.07442470  0.69794093  1  -1.361246  0.04171  -0.349383  -0.34376  0.032461  3.273335  0.046
N  N126  1  0.02100872  0.17872080  0.03427546  1  -1.263999  -0.12753  -0.346309  -0.281148  -0.098139  2.945345  -0.09
N  N127  1  0.97955722  0.82255121  0.96566855  1  -1.259891  0.127297  -0.346375  -0.281801  0.097944  2.945443  0.09
N  N128  1  0.20029742  0.77116620  0.18278830  1  -1.298972  -0.113452  -0.351531  -0.296644  -0.087853  3.05734  -0.081
N  N129  1  0.79868633  0.22978342  0.81703382  1  -1.290732  0.113622  -0.351081  -0.295135  0.087736  3.058986  0.082
O  O130  1  0.54839776  0.95219858  0.37855784  1  -1.10794  0.061749  -0.309127  -0.455073  0.045195  2.378205  0.032
O  O131  1  0.45054428  0.04735199  0.62103088  1  -1.107382  -0.061442  -0.309565  -0.455179  -0.045036  2.378611  -0.032
O  O132  1  0.64141939  0.16352298  0.24482698  1  -1.109502  0.063838  -0.314977  -0.455223  0.04713  2.387715  0.034
O  O133  1  0.35727332  0.83628915  0.75491826  1  -1.110872  -0.063738  -0.314481  -0.454686  -0.046865  2.386198  -0.034
