# generated using pymatgen
data_CoH12C15N5O6
_symmetry_space_group_name_H-M   'P 1'
_cell_length_a   10.75811372
_cell_length_b   15.81125419
_cell_length_c   15.81117864
_cell_angle_alpha   95.90389411
_cell_angle_beta   103.06424216
_cell_angle_gamma   103.06388771
_symmetry_Int_Tables_number   1
_chemical_formula_structural   CoH12C15N5O6
_chemical_formula_sum   'Co4 H48 C60 N20 O24'
_cell_volume   2518.24040993
_cell_formula_units_Z   4
loop_
 _symmetry_equiv_pos_site_id
 _symmetry_equiv_pos_as_xyz
  1  'x, y, z'
loop_
 _atom_site_type_symbol
 _atom_site_label
 _atom_site_symmetry_multiplicity
 _atom_site_fract_x
 _atom_site_fract_y
 _atom_site_fract_z
 _atom_site_occupancy
 _atom_site_pbe_bader_charge
 _atom_site_pbe_bader_spin_density
 _atom_site_pbe_cm5_charge
 _atom_site_pbe_ddec_charge
 _atom_site_pbe_ddec_spin_density
 _atom_site_pbe_ddec_sum_bond_order
 _atom_site_pbe_magmom
Co  Co0  1  0.04602232  0.77171834  0.93432544  1  1.240714  2.574304  0.673734  0.722828  2.823301  2.590101  2.549
Co  Co1  1  0.54602439  0.93432406  0.77171722  1  1.24066  2.574306  0.673756  0.72283  2.823296  2.590093  2.549
Co  Co2  1  0.27769687  0.25975480  0.42209941  1  1.240615  2.572517  0.674642  0.723966  2.822977  2.589751  2.547
Co  Co3  1  0.77769573  0.42209857  0.25975338  1  1.240631  2.572517  0.674669  0.723991  2.822973  2.589736  2.547
H  H4  1  0.82680824  0.93729608  0.77055552  1  0.125221  0.002202  0.114572  0.089954  0.001019  1.034456  0.001
H  H5  1  0.32680057  0.77055692  0.93729742  1  0.125272  0.002202  0.114559  0.089926  0.001018  1.034536  0.001
H  H6  1  0.74779576  0.71536361  0.86933813  1  0.128622  0.001663  0.115978  0.083075  0.000519  1.027415  0.001
H  H7  1  0.24779458  0.86933368  0.71536689  1  0.128783  0.001662  0.116007  0.083129  0.000519  1.027467  0.001
H  H8  1  0.17185608  0.07819689  0.31713613  1  0.101609  0.001763  0.117851  0.087489  0.000564  0.993065  0.001
H  H9  1  0.67185946  0.31713306  0.07819905  1  0.101426  0.001764  0.117822  0.087482  0.000564  0.993127  0.001
H  H10  1  0.27730498  0.13936617  0.55774130  1  0.138586  0.001672  0.11402  0.092102  0.000516  1.057566  0.001
H  H11  1  0.77730446  0.55774370  0.13936687  1  0.138555  0.001672  0.114008  0.092094  0.000516  1.057636  0.001
H  H12  1  0.12119601  0.06088720  0.63227088  1  0.140108  0.001003  0.105482  0.113366  0.000531  1.058952  0.001
H  H13  1  0.62119329  0.63227359  0.06088781  1  0.140094  0.001003  0.105468  0.113335  0.000532  1.058995  0.001
H  H14  1  0.00111459  0.26117914  0.42925378  1  0.147062  0.002203  0.114467  0.089383  0.001054  1.037783  0.001
H  H15  1  0.50111591  0.42925357  0.26117765  1  0.147066  0.002202  0.114462  0.089391  0.001054  1.037762  0.001
H  H16  1  0.44521011  0.45396030  0.72970841  1  0.089567  0.000921  0.113716  0.122584  0.000442  0.987794  0.0
H  H17  1  0.94521049  0.72970589  0.45395980  1  0.089288  0.000921  0.113727  0.122633  0.000442  0.987807  0.0
H  H18  1  0.57535106  0.59850055  0.76612482  1  0.123587  0.000899  0.108541  0.118669  0.000456  1.026289  0.0
H  H19  1  0.07535077  0.76612152  0.59850316  1  0.123776  0.000899  0.108521  0.118659  0.000456  1.026169  0.0
H  H20  1  0.74727512  0.43001404  0.59458421  1  0.101185  0.000903  0.108305  0.118719  0.000453  1.026776  0.0
H  H21  1  0.24727922  0.59458330  0.43001538  1  0.101185  0.000903  0.108337  0.118808  0.000453  1.026691  0.0
H  H22  1  0.28427943  0.34606512  0.60595211  1  0.09477  0.0017  0.121242  0.091155  0.000411  0.984602  0.001
H  H23  1  0.78428175  0.60595268  0.34606379  1  0.09478  0.0017  0.12125  0.091149  0.000411  0.984618  0.001
H  H24  1  0.03976531  0.58961930  0.84445429  1  0.095962  0.00172  0.121107  0.09167  0.000411  0.985509  0.001
H  H25  1  0.53976322  0.84445789  0.58962003  1  0.095987  0.001721  0.121096  0.091622  0.000412  0.985541  0.001
H  H26  1  0.87799714  0.46543058  0.73766420  1  0.083531  0.000921  0.114432  0.123664  0.000442  0.986526  0.0
H  H27  1  0.37799856  0.73766912  0.46543130  1  0.083548  0.00092  0.11441  0.123695  0.000441  0.986534  0.0
H  H28  1  0.57577385  0.32588886  0.47818729  1  0.11647  0.001626  0.115896  0.082168  0.000506  1.02891  0.001
H  H29  1  0.07577479  0.47818417  0.32589047  1  0.116445  0.001626  0.115878  0.082097  0.000506  1.028931  0.001
H  H30  1  0.99402547  0.00800086  0.70007160  1  0.1089  0.001046  0.109003  0.124254  0.000498  1.024068  0.001
H  H31  1  0.49401883  0.70006874  0.00799648  1  0.108993  0.001046  0.109025  0.124293  0.000498  1.023958  0.001
H  H32  1  0.88438094  0.94182611  0.06227443  1  0.082289  0.000941  0.106106  0.113742  0.000409  1.047394  0.0
H  H33  1  0.38437474  0.06227552  0.94182516  1  0.082387  0.000941  0.106147  0.113775  0.000409  1.047382  0.0
H  H34  1  0.54188938  0.04276016  0.62614123  1  0.144546  0.001679  0.114442  0.091724  0.000517  1.053654  0.001
H  H35  1  0.04188775  0.62614232  0.04276339  1  0.144496  0.001679  0.114436  0.091687  0.000517  1.053663  0.001
H  H36  1  0.83313376  0.18830582  0.49793290  1  0.126141  0.001032  0.109822  0.12556  0.000503  1.023623  0.0
H  H37  1  0.33313254  0.49793242  0.18830499  1  0.126141  0.001033  0.109834  0.125559  0.000503  1.023609  0.0
H  H38  1  0.65622147  0.11717024  0.87469273  1  0.098404  0.001797  0.118616  0.08899  0.000582  0.988257  0.001
H  H39  1  0.15622804  0.87469644  0.11717600  1  0.098604  0.001797  0.118619  0.088881  0.000582  0.988365  0.001
H  H40  1  0.01424068  0.00049370  0.17664166  1  0.049167  0.000836  0.109966  0.116905  0.000384  1.008956  0.0
H  H41  1  0.51423961  0.17664350  0.00049449  1  0.049215  0.000835  0.109975  0.116874  0.000384  1.009101  0.0
H  H42  1  0.08421310  0.31532732  0.27636220  1  0.138177  0.00144  0.117372  0.086856  0.000249  1.025512  0.001
H  H43  1  0.58420315  0.27636613  0.31532691  1  0.137751  0.00144  0.117418  0.086915  0.000249  1.025449  0.001
H  H44  1  0.81026584  0.19433032  0.01670345  1  0.056881  0.000847  0.109862  0.116049  0.000395  1.009155  0.0
H  H45  1  0.31026625  0.01670918  0.19433171  1  0.05683  0.000847  0.109875  0.116108  0.000395  1.009265  0.0
H  H46  1  0.92564239  0.25049236  0.13721779  1  0.135066  0.000906  0.105947  0.113841  0.000392  1.047857  0.0
H  H47  1  0.42562942  0.13722488  0.25049004  1  0.135408  0.000906  0.105941  0.113755  0.000392  1.047904  0.0
H  H48  1  0.73220983  0.87804369  0.92074835  1  0.115767  0.001434  0.117922  0.086166  0.000237  1.023886  0.001
H  H49  1  0.23220680  0.92074808  0.87804516  1  0.115869  0.001434  0.117912  0.086208  0.000237  1.023764  0.001
H  H50  1  0.69511828  0.11518679  0.54628878  1  0.140372  0.000981  0.103043  0.109365  0.000524  1.072305  0.001
H  H51  1  0.19511903  0.54629059  0.11518769  1  0.140366  0.000981  0.103023  0.109346  0.000524  1.072359  0.001
C  C52  1  0.80181106  0.97850447  0.72146016  1  0.481059  -0.005075  0.04127  0.090866  -0.005756  3.937055  -0.002
C  C53  1  0.30180912  0.72146074  0.97850532  1  0.48112  -0.005076  0.041271  0.090782  -0.005756  3.937109  -0.002
C  C54  1  0.77327998  0.65808818  0.84072778  1  0.453781  -0.006599  0.045781  0.107544  -0.00701  3.937781  -0.004
C  C55  1  0.27327867  0.84072594  0.65809214  1  0.453564  -0.0066  0.045725  0.10744  -0.007012  3.937688  -0.004
C  C56  1  0.11489911  0.11343145  0.27432408  1  0.519191  -0.00579  0.041953  0.091383  -0.006323  3.964769  -0.004
C  C57  1  0.61490102  0.27432531  0.11343262  1  0.519424  -0.00579  0.041936  0.091259  -0.006322  3.9649  -0.004
C  C58  1  0.17747723  0.14793056  0.54606588  1  0.427904  -0.005829  0.038606  0.078703  -0.006529  3.942467  -0.003
C  C59  1  0.67747423  0.54606568  0.14793098  1  0.427896  -0.005829  0.038626  0.078749  -0.006529  3.942499  -0.003
C  C60  1  0.08751269  0.10340358  0.58721056  1  -0.034961  0.00467  -0.083039  -0.160536  0.002077  3.924024  0.004
C  C61  1  0.58751151  0.58721127  0.10340427  1  -0.034815  0.00467  -0.083004  -0.160502  0.002076  3.92402  0.004
C  C62  1  0.95498570  0.11797592  0.14105537  1  -0.006499  -0.008785  0.012508  0.103319  -0.009447  3.970115  -0.005
C  C63  1  0.45497939  0.14105962  0.11797477  1  -0.006532  -0.008782  0.012498  0.103381  -0.009444  3.970042  -0.005
C  C64  1  0.86238633  0.07566852  0.05526675  1  -0.056111  -0.009058  0.012342  0.104524  -0.009701  3.970654  -0.005
C  C65  1  0.36238266  0.05526980  0.07566857  1  -0.055936  -0.009057  0.012347  0.104527  -0.009701  3.970694  -0.005
C  C66  1  0.71091802  0.52038952  0.74168204  1  -0.06408  -0.009608  0.011921  0.104928  -0.010265  3.984911  -0.006
C  C67  1  0.21091792  0.74168222  0.52039205  1  -0.064056  -0.009607  0.011865  0.104775  -0.010264  3.985067  -0.006
C  C68  1  0.61198510  0.45225697  0.67373278  1  -0.011604  -0.009341  0.011755  0.103773  -0.010015  3.985522  -0.006
C  C69  1  0.11198615  0.67373145  0.45225755  1  -0.011557  -0.00934  0.011781  0.103898  -0.010013  3.985505  -0.006
C  C70  1  0.02389225  0.21570493  0.47423360  1  0.436733  -0.005388  0.040671  0.088545  -0.006123  3.938324  -0.002
C  C71  1  0.52388976  0.47423380  0.21570405  1  0.43671  -0.005388  0.040653  0.0885  -0.006123  3.938381  -0.002
C  C72  1  0.86228785  0.07059421  0.61640069  1  -0.005996  -0.010239  0.01023  0.102011  -0.01102  3.956393  -0.006
C  C73  1  0.36228445  0.61640053  0.07059319  1  -0.005684  -0.01024  0.010252  0.101969  -0.011021  3.956344  -0.006
C  C74  1  0.95942787  0.11563146  0.57196746  1  0.019652  -0.010924  0.010522  0.101346  -0.011726  3.950676  -0.006
C  C75  1  0.45942331  0.57196672  0.11563169  1  0.019248  -0.010926  0.010497  0.101342  -0.011727  3.950715  -0.006
C  C76  1  0.47876091  0.42679001  0.67534670  1  -0.052684  0.003047  -0.081072  -0.173502  0.001411  3.942244  0.003
C  C77  1  0.97876108  0.67534658  0.42679015  1  -0.052394  0.003047  -0.081125  -0.173617  0.001411  3.942296  0.003
C  C78  1  0.67605848  0.59156860  0.78189135  1  0.057505  0.003704  -0.079809  -0.161374  0.00168  3.91601  0.003
C  C79  1  0.17605998  0.78188868  0.59156751  1  0.057316  0.003705  -0.079751  -0.161305  0.00168  3.916008  0.003
C  C80  1  0.64689915  0.41305508  0.60203434  1  0.007614  0.0036  -0.079456  -0.161304  0.00163  3.917555  0.003
C  C81  1  0.14689895  0.60203409  0.41305558  1  0.007566  0.0036  -0.079517  -0.161534  0.00163  3.91755  0.003
C  C82  1  0.38838110  0.36622264  0.60668730  1  0.474254  -0.006537  0.048009  0.103535  -0.007357  3.957862  -0.004
C  C83  1  0.88838149  0.60668628  0.36622131  1  0.474271  -0.006537  0.048033  0.103551  -0.007356  3.957882  -0.004
C  C84  1  0.93533612  0.58827518  0.82568361  1  0.472722  -0.00672  0.046732  0.100404  -0.00752  3.958833  -0.004
C  C85  1  0.43533459  0.82568596  0.58827685  1  0.472933  -0.006717  0.046833  0.100477  -0.007517  3.958949  -0.004
C  C86  1  0.84453642  0.51943858  0.76562912  1  -0.027614  0.003207  -0.081819  -0.174366  0.001487  3.941211  0.003
C  C87  1  0.34454084  0.76563234  0.51943757  1  -0.027835  0.003208  -0.081795  -0.174327  0.001488  3.94103  0.003
C  C88  1  0.55011583  0.35373260  0.53572280  1  0.489077  -0.006328  0.045803  0.109162  -0.006755  3.93917  -0.004
C  C89  1  0.05011501  0.53572129  0.35373377  1  0.489129  -0.006328  0.045836  0.109303  -0.006755  3.93896  -0.004
C  C90  1  0.89570888  0.01849521  0.68062291  1  -0.0231  0.00443  -0.078312  -0.1559  0.001873  3.909388  0.004
C  C91  1  0.39570331  0.68062148  0.01849248  1  -0.023332  0.00443  -0.07835  -0.155869  0.001873  3.909291  0.004
C  C92  1  0.83764434  0.98545807  0.02507569  1  0.090219  0.00333  -0.076223  -0.151253  0.001504  3.907588  0.003
C  C93  1  0.33763985  0.02507870  0.98545975  1  0.090126  0.00333  -0.076238  -0.151249  0.001504  3.907674  0.003
C  C94  1  0.64308345  0.03656573  0.64022664  1  0.438836  -0.005406  0.038223  0.078386  -0.006097  3.94815  -0.002
C  C95  1  0.14308205  0.64022807  0.03656816  1  0.438919  -0.005407  0.038193  0.078336  -0.006098  3.948305  -0.002
C  C96  1  0.92920388  0.17384532  0.51351751  1  -0.048914  0.004983  -0.077861  -0.154502  0.00216  3.900052  0.004
C  C97  1  0.42920405  0.51351652  0.17384485  1  -0.04884  0.004982  -0.077884  -0.154517  0.00216  3.900187  0.004
C  C98  1  0.70942188  0.08127543  0.91906683  1  0.503389  -0.005958  0.042417  0.090745  -0.006484  3.964448  -0.004
C  C99  1  0.20942474  0.91906934  0.08127886  1  0.503073  -0.005957  0.04242  0.091027  -0.006482  3.96449  -0.004
C  C100  1  0.02636605  0.07062488  0.19537884  1  -0.029325  0.002722  -0.082052  -0.172246  0.001159  3.948354  0.003
C  C101  1  0.52636250  0.19537917  0.07062202  1  -0.029619  0.002723  -0.08202  -0.172153  0.00116  3.948308  0.003
C  C102  1  0.06770769  0.24571508  0.25225877  1  0.476081  -0.005884  0.051871  0.111774  -0.006373  3.919708  -0.003
C  C103  1  0.56770262  0.25226426  0.24571655  1  0.52704  -0.005897  0.051876  0.111747  -0.006374  3.919309  -0.003
C  C104  1  0.79564588  0.12375596  0.99900479  1  -0.014896  0.002726  -0.081759  -0.171351  0.001158  3.950892  0.003
C  C105  1  0.29564239  0.99900838  0.12375822  1  -0.015045  0.002727  -0.081862  -0.171639  0.001158  3.950993  0.003
C  C106  1  0.97695696  0.20766075  0.17252026  1  -0.049791  0.003299  -0.07628  -0.151575  0.001469  3.906511  0.003
C  C107  1  0.47694392  0.17252352  0.20765682  1  -0.100428  0.003312  -0.076295  -0.151494  0.001469  3.906186  0.003
C  C108  1  0.74994796  0.94791251  0.94414741  1  0.466929  -0.006045  0.051834  0.111551  -0.006585  3.922951  -0.004
C  C109  1  0.24994672  0.94414929  0.94791528  1  0.466544  -0.006044  0.051887  0.111559  -0.006586  3.922781  -0.004
C  C110  1  0.73157312  0.07817692  0.59650476  1  -0.056184  0.004297  -0.083302  -0.158433  0.001874  3.92241  0.004
C  C111  1  0.23156956  0.59650423  0.07817786  1  -0.056195  0.004297  -0.083261  -0.158363  0.001874  3.922468  0.004
N  N112  1  0.67698118  0.98747072  0.70250777  1  -1.246743  0.074571  -0.337735  -0.256606  0.040409  3.623237  0.057
N  N113  1  0.17697600  0.70250745  0.98747262  1  -1.246781  0.07457  -0.337688  -0.256463  0.040408  3.623156  0.057
N  N114  1  0.90156968  0.65752554  0.86275659  1  -1.234001  0.052477  -0.329532  -0.256004  0.027939  3.60687  0.048
N  N115  1  0.40156953  0.86275684  0.65752455  1  -1.234047  0.052476  -0.329579  -0.255973  0.027938  3.606901  0.048
N  N116  1  0.14686725  0.20345765  0.48990877  1  -1.251883  0.075017  -0.337566  -0.254449  0.040639  3.623459  0.057
N  N117  1  0.64686590  0.48990803  0.20345812  1  -1.251882  0.075017  -0.337548  -0.254431  0.040638  3.623436  0.057
N  N118  1  0.42215824  0.33022918  0.53688808  1  -1.205467  0.052243  -0.330034  -0.259058  0.027783  3.606999  0.048
N  N119  1  0.92215633  0.53688687  0.33022865  1  -1.205506  0.052242  -0.330028  -0.259017  0.027782  3.606881  0.048
N  N120  1  0.13781286  0.20033956  0.30279913  1  -1.231265  0.053074  -0.3275  -0.2413  0.028591  3.581973  0.047
N  N121  1  0.63781032  0.30280072  0.20033819  1  -1.231224  0.053076  -0.327487  -0.241229  0.028592  3.582129  0.047
N  N122  1  0.68485444  0.99408872  0.89137501  1  -1.254239  0.052942  -0.327348  -0.241033  0.02844  3.586865  0.047
N  N123  1  0.18485431  0.89137673  0.99409232  1  -1.253832  0.05294  -0.327388  -0.241185  0.02844  3.586994  0.047
N  N124  1  0.01152165  0.82068486  0.77963643  1  0.816696  -0.007489  0.094552  0.694312  -0.008722  4.394465  -0.008
N  N125  1  0.51152300  0.77963700  0.82068507  1  0.816369  -0.007488  0.094512  0.69423  -0.008721  4.394481  -0.008
N  N126  1  0.31342155  0.41499684  0.37424858  1  0.811164  -0.007415  0.096121  0.695994  -0.00864  4.393593  -0.008
N  N127  1  0.81342073  0.37424810  0.41499845  1  0.811171  -0.007415  0.096132  0.696045  -0.00864  4.39352  -0.008
N  N128  1  0.47950947  0.15509063  0.44580293  1  0.826377  0.004708  0.10501  0.701537  0.001606  4.407266  0.002
N  N129  1  0.97950950  0.44580152  0.15509129  1  0.826509  0.004708  0.104998  0.701509  0.001606  4.407209  0.002
N  N130  1  0.84728514  0.74751314  0.04107057  1  0.812075  0.003932  0.103899  0.701484  0.001119  4.408427  0.001
N  N131  1  0.34728198  0.04106846  0.74751432  1  0.812089  0.003932  0.10393  0.701645  0.00112  4.40835  0.001
O  O132  1  0.09399522  0.77486150  0.80517110  1  -0.55044  0.074195  -0.182843  -0.436019  0.03884  2.006711  0.065
O  O133  1  0.59399468  0.80517065  0.77486364  1  -0.550369  0.074194  -0.182809  -0.435938  0.03884  2.00679  0.065
O  O134  1  0.23051283  0.38910159  0.41974724  1  -0.546767  0.074185  -0.184366  -0.438062  0.038881  2.005062  0.065
O  O135  1  0.73051334  0.41974698  0.38910196  1  -0.546746  0.074185  -0.184354  -0.438071  0.038881  2.005042  0.065
O  O136  1  0.95444756  0.84526990  0.83746185  1  -0.540141  0.070374  -0.172815  -0.418606  0.036457  2.028606  0.063
O  O137  1  0.45444866  0.83745851  0.84526950  1  -0.540006  0.070368  -0.172806  -0.418587  0.036454  2.028765  0.063
O  O138  1  0.37027811  0.35720952  0.34931644  1  -0.544433  0.069637  -0.173194  -0.419709  0.036035  2.030662  0.062
O  O139  1  0.87027618  0.34931531  0.35720958  1  -0.544382  0.069638  -0.173205  -0.419711  0.036036  2.030567  0.062
O  O140  1  0.93777835  0.80309952  0.01459275  1  -0.618494  0.091261  -0.224801  -0.489933  0.048563  2.171144  0.078
O  O141  1  0.43777534  0.01458916  0.80309943  1  -0.618505  0.091257  -0.224776  -0.489976  0.048561  2.171154  0.078
O  O142  1  0.38637215  0.17982853  0.39076045  1  -0.621035  0.090165  -0.223921  -0.489392  0.047911  2.178054  0.077
O  O143  1  0.88637466  0.39076175  0.17982862  1  -0.621041  0.090159  -0.223922  -0.489407  0.047909  2.178097  0.077
O  O144  1  0.98967725  0.84010587  0.70482518  1  -0.480732  0.007287  -0.151535  -0.381884  0.002142  1.934466  0.007
O  O145  1  0.48967798  0.70482144  0.84010800  1  -0.480579  0.007292  -0.15156  -0.381914  0.002145  1.934157  0.007
O  O146  1  0.33601967  0.49010043  0.35567543  1  -0.474082  0.007274  -0.150447  -0.37979  0.002154  1.933416  0.007
O  O147  1  0.83602030  0.35567614  0.49010189  1  -0.47414  0.007273  -0.150465  -0.379843  0.002154  1.93343  0.007
O  O148  1  0.57909977  0.14921415  0.41991463  1  -0.494115  0.024991  -0.170455  -0.405877  0.012468  1.91256  0.021
O  O149  1  0.07909936  0.41991539  0.14921404  1  -0.494119  0.02499  -0.170459  -0.405868  0.012467  1.912574  0.021
O  O150  1  0.75111554  0.77430935  0.05329364  1  -0.492797  0.024388  -0.172882  -0.408736  0.012146  1.904375  0.02
O  O151  1  0.25111706  0.05329233  0.77430958  1  -0.492788  0.024384  -0.172857  -0.408771  0.012144  1.904551  0.02
O  O152  1  0.46316534  0.13890898  0.51840974  1  -0.49294  0.009963  -0.149442  -0.38758  0.004585  1.972664  0.008
O  O153  1  0.96316439  0.51840868  0.13890994  1  -0.493094  0.009964  -0.149437  -0.387561  0.004586  1.972586  0.008
O  O154  1  0.86262450  0.67349886  0.05245756  1  -0.483256  0.008768  -0.150723  -0.38968  0.003969  1.97157  0.007
O  O155  1  0.36262329  0.05245630  0.67349753  1  -0.483252  0.008768  -0.150798  -0.389786  0.00397  1.9714  0.007
