# generated using pymatgen
data_AlH3C15I2N2O5
_symmetry_space_group_name_H-M   'P 1'
_cell_length_a   6.69195062
_cell_length_b   20.28202501
_cell_length_c   20.20972681
_cell_angle_alpha   100.80585037
_cell_angle_beta   90.05206960
_cell_angle_gamma   89.90901279
_symmetry_Int_Tables_number   1
_chemical_formula_structural   AlH3C15I2N2O5
_chemical_formula_sum   'Al4 H12 C60 I8 N8 O20'
_cell_volume   2694.34930324
_cell_formula_units_Z   4
loop_
 _symmetry_equiv_pos_site_id
 _symmetry_equiv_pos_as_xyz
  1  'x, y, z'
loop_
 _atom_site_type_symbol
 _atom_site_label
 _atom_site_symmetry_multiplicity
 _atom_site_fract_x
 _atom_site_fract_y
 _atom_site_fract_z
 _atom_site_occupancy
 _atom_site_pbe_bader_charge
 _atom_site_pbe_bader_spin_density
 _atom_site_pbe_cm5_charge
 _atom_site_pbe_ddec_charge
 _atom_site_pbe_ddec_spin_density
 _atom_site_pbe_ddec_sum_bond_order
 _atom_site_pbe_magmom
Al  Al0  1  0.72275316  0.74963257  0.24825741  1  2.497153  0  0.397679  1.643318  0  2.572441  0
Al  Al1  1  0.27725531  0.25037228  0.75175560  1  2.49705  0  0.397566  1.642984  0  2.573091  0
Al  Al2  1  0.22274930  0.75046495  0.25168038  1  2.496481  0  0.397899  1.643461  0  2.570784  0
Al  Al3  1  0.77726065  0.24953946  0.74832557  1  2.496437  0  0.39782  1.643402  0  2.570974  0
H  H4  1  0.93314478  0.38683400  0.43651722  1  0.150276  0  0.120758  0.129301  0  0.953095  0
H  H5  1  0.06685922  0.61315456  0.56347383  1  0.150483  0  0.120764  0.1294  0  0.953084  0
H  H6  1  0.43496375  0.11336288  0.06333830  1  0.114959  0  0.121005  0.129724  0  0.952252  0
H  H7  1  0.56504175  0.88661879  0.93663821  1  0.114571  0  0.120968  0.129688  0  0.952403  0
H  H8  1  0.65359455  0.49328530  0.45825243  1  0.110583  0  0.091827  0.095001  0  1.048435  0
H  H9  1  0.34641095  0.50670308  0.54174014  1  0.11023  0  0.091813  0.095001  0  1.0484  0
H  H10  1  0.15360489  0.00768592  0.04160853  1  0.111468  0  0.092293  0.095183  0  1.049531  0
H  H11  1  0.84639612  0.99229220  0.95836754  1  0.111467  0  0.092245  0.095257  0  1.049432  0
H  H12  1  0.47554881  0.67259744  0.27293719  1  0.636444  0  0.356382  0.438015  0  0.845394  0
H  H13  1  0.52445367  0.32739796  0.72704870  1  0.636295  0  0.356394  0.437996  0  0.845623  0
H  H14  1  0.97471541  0.82750839  0.22701273  1  0.63622  0  0.35643  0.43823  0  0.845603  0
H  H15  1  0.02528858  0.17249817  0.77300379  1  0.635701  0  0.356425  0.438208  0  0.845466  0
C  C16  1  0.46923780  0.82134337  0.16773233  1  1.660347  0  0.275427  0.717148  0  4.166796  0
C  C17  1  0.53077512  0.17867141  0.83228102  1  1.65981  0  0.275536  0.717761  0  4.166489  0
C  C18  1  0.97058848  0.67876816  0.33221301  1  1.655359  0  0.274766  0.716139  0  4.165346  0
C  C19  1  0.02942598  0.32122061  0.66777905  1  1.654934  0  0.274931  0.716503  0  4.165326  0
C  C20  1  0.47691070  0.84014084  0.34665512  1  1.641837  0  0.258152  0.625615  0  4.186605  0
C  C21  1  0.52310083  0.15984800  0.65337130  1  1.642477  0  0.258083  0.62536  0  4.187074  0
C  C22  1  0.97706236  0.65997587  0.15325502  1  1.643977  0  0.258186  0.626104  0  4.185969  0
C  C23  1  0.02293855  0.34004573  0.84673598  1  1.643518  0  0.258271  0.626192  0  4.185607  0
C  C24  1  0.01421562  0.39368163  0.90947912  1  0.06368  0  0.005612  -0.058956  0  3.93192  0
C  C25  1  0.98577929  0.60634750  0.09050771  1  0.064889  0  0.005437  -0.059599  0  3.932773  0
C  C26  1  0.51452233  0.10622421  0.59062134  1  0.047801  0  0.005588  -0.059171  0  3.933054  0
C  C27  1  0.48546528  0.89376729  0.40940605  1  0.049597  0  0.005508  -0.05892  0  3.932834  0
C  C28  1  0.02930901  0.58141404  0.96807225  1  0.137727  0  0.020209  0.005258  0  3.997362  0
C  C29  1  0.97066649  0.41861128  0.03191768  1  0.138284  0  0.020006  0.005288  0  3.99731  0
C  C30  1  0.52795685  0.91851961  0.53192623  1  0.100007  0  0.020569  0.004712  0  3.996868  0
C  C31  1  0.47200981  0.08148064  0.46810051  1  0.093571  0  0.020259  0.004248  0  3.996471  0
C  C32  1  0.00614239  0.62804625  0.02837872  1  0.110622  0  0.034179  0.045077  0  3.99253  0
C  C33  1  0.99385700  0.37198487  0.97161060  1  0.111558  0  0.034246  0.045014  0  3.992171  0
C  C34  1  0.50480670  0.87199335  0.47155009  1  0.124312  0  0.033652  0.044799  0  3.992971  0
C  C35  1  0.49518688  0.12799973  0.52847778  1  0.13762  0  0.033636  0.044891  0  3.993388  0
C  C36  1  0.99142470  0.53859503  0.09296263  1  -0.161779  0  -0.032901  -0.011843  0  3.835686  0
C  C37  1  0.00854929  0.46143233  0.90702271  1  -0.16269  0  -0.033051  -0.012397  0  3.836173  0
C  C38  1  0.49194800  0.96150912  0.40700598  1  -0.163378  0  -0.032798  -0.011637  0  3.836015  0
C  C39  1  0.50800077  0.03848440  0.59302643  1  -0.16337  0  -0.032893  -0.011482  0  3.835798  0
C  C40  1  0.99050814  0.48896241  0.03218567  1  0.008872  0  0.012025  0.032306  0  3.914841  0
C  C41  1  0.00946138  0.51106300  0.96780223  1  0.051978  0  0.011794  0.032407  0  3.91484  0
C  C42  1  0.49095068  0.01108883  0.46781801  1  0.009031  0  0.011162  0.031577  0  3.914701  0
C  C43  1  0.50898760  0.98890948  0.53221128  1  0.051335  0  0.011091  0.031561  0  3.91512  0
C  C44  1  0.12524504  0.48629362  0.44739761  1  -0.136667  0  -0.027735  0.044181  0  3.54549  0
C  C45  1  0.87476643  0.51369455  0.55259396  1  -0.136154  0  -0.027818  0.044134  0  3.545648  0
C  C46  1  0.62537407  0.01336457  0.05263864  1  -0.136805  0  -0.02858  0.043758  0  3.544304  0
C  C47  1  0.37462096  0.98661622  0.94733839  1  -0.137899  0  -0.028364  0.044349  0  3.543999  0
C  C48  1  0.96136503  0.43751700  0.46432199  1  -0.028132  0  -0.060302  -0.080917  0  3.594647  0
C  C49  1  0.03864196  0.56247136  0.53566805  1  -0.028266  0  -0.060261  -0.080973  0  3.594649  0
C  C50  1  0.46233315  0.06256986  0.03562481  1  0.003186  0  -0.06036  -0.080586  0  3.593538  0
C  C51  1  0.53766936  0.93741083  0.96435172  1  0.004665  0  -0.060251  -0.080583  0  3.593616  0
C  C52  1  0.03512248  0.36611997  0.62100515  1  0.200149  0  -0.038743  -0.200104  0  3.978635  0
C  C53  1  0.96488302  0.63386753  0.37898794  1  0.199952  0  -0.038704  -0.200068  0  3.978952  0
C  C54  1  0.53686294  0.13375795  0.87903652  1  0.209318  0  -0.038515  -0.200418  0  3.980236  0
C  C55  1  0.46315748  0.86624059  0.12095993  1  0.210158  0  -0.03859  -0.200284  0  3.98035  0
C  C56  1  0.19326128  0.50364214  0.52270058  1  -0.051454  0  -0.069414  -0.086868  0  3.604753  0
C  C57  1  0.80674571  0.49634534  0.47728998  1  -0.051658  0  -0.069181  -0.086633  0  3.604621  0
C  C58  1  0.69326443  0.99579927  0.97735165  1  -0.03698  0  -0.069435  -0.087706  0  3.60753  0
C  C59  1  0.30673658  0.00418211  0.02262588  1  -0.036342  0  -0.069752  -0.088034  0  3.607756  0
C  C60  1  0.03059431  0.45336542  0.54053650  1  0.153179  0  0.010361  0.109995  0  3.795545  0
C  C61  1  0.96941568  0.54662147  0.45945357  1  0.153128  0  0.01046  0.11018  0  3.795253  0
C  C62  1  0.53140146  0.04649944  0.95944990  1  0.13948  0  0.010443  0.109812  0  3.796396  0
C  C63  1  0.46859657  0.95347996  0.04052514  1  0.137843  0  0.010454  0.109815  0  3.796431  0
C  C64  1  0.04524103  0.40570007  0.58273912  1  -0.463424  0  -0.017233  -0.006969  0  4.054662  0
C  C65  1  0.95476895  0.59429125  0.41725340  1  -0.463836  0  -0.017328  -0.007047  0  4.05499  0
C  C66  1  0.54662957  0.09413666  0.91727572  1  -0.471814  0  -0.016901  -0.006365  0  4.05631  0
C  C67  1  0.45337293  0.90584869  0.08270679  1  -0.472036  0  -0.0167  -0.006217  0  4.056152  0
C  C68  1  0.98428910  0.30157509  0.97137284  1  0.79251  0  0.186367  0.240013  0  3.976796  0
C  C69  1  0.01575064  0.69845385  0.02861552  1  0.792506  0  0.186243  0.239877  0  3.976317  0
C  C70  1  0.48653588  0.19842969  0.52876208  1  0.794506  0  0.186071  0.23981  0  3.976704  0
C  C71  1  0.51349508  0.80155462  0.47126392  1  0.795052  0  0.185882  0.239266  0  3.978156  0
C  C72  1  0.09161533  0.60996969  0.91204241  1  0.795176  0  0.155014  0.197214  0  4.092851  0
C  C73  1  0.90837811  0.39005248  0.08794655  1  0.796206  0  0.154864  0.1969  0  4.092171  0
C  C74  1  0.58904730  0.88974940  0.58802038  1  0.825815  0  0.156462  0.199254  0  4.091301  0
C  C75  1  0.41092830  0.11026326  0.41200918  1  0.819812  0  0.156681  0.19949  0  4.091083  0
I  I76  1  0.96827869  0.48391058  0.81003538  1  0.2235  0  0.160542  0.06459  0  1.60433  0
I  I77  1  0.03167441  0.51610970  0.18994907  1  0.223951  0  0.160574  0.064587  0  1.604069  0
I  I78  1  0.46651649  0.01597859  0.68991781  1  0.224239  0  0.160131  0.063833  0  1.605492  0
I  I79  1  0.53337252  0.98400527  0.31011071  1  0.224084  0  0.160256  0.064036  0  1.6052  0
I  I80  1  0.31167951  0.46616207  0.36130660  1  0.082205  0  0.075349  -0.033393  0  1.340112  0
I  I81  1  0.68832002  0.53382314  0.63868249  1  0.082373  0  0.075405  -0.033314  0  1.34017  0
I  I82  1  0.81211361  0.03293726  0.13878243  1  0.082355  0  0.075625  -0.032895  0  1.339673  0
I  I83  1  0.18790084  0.96704644  0.86118950  1  0.082656  0  0.075701  -0.032856  0  1.339688  0
N  N84  1  0.97881978  0.24364728  0.96916047  1  -0.992431  0  -0.272783  -0.298668  0  2.644457  0
N  N85  1  0.02124984  0.75638409  0.03082532  1  -0.992386  0  -0.272734  -0.298617  0  2.643887  0
N  N86  1  0.48182128  0.25637797  0.53097975  1  -0.993057  0  -0.272371  -0.298299  0  2.643116  0
N  N87  1  0.51822160  0.74361550  0.46903548  1  -0.993375  0  -0.272262  -0.297937  0  2.644824  0
N  N88  1  0.15534785  0.64208432  0.87447961  1  -1.064923  0  -0.293193  -0.316333  0  2.671936  0
N  N89  1  0.84467251  0.35793276  0.12551349  1  -1.065205  0  -0.293018  -0.316079  0  2.67111  0
N  N90  1  0.65159422  0.85737462  0.62563487  1  -1.056819  0  -0.294122  -0.317288  0  2.671478  0
N  N91  1  0.34837395  0.14262148  0.37438839  1  -1.056293  0  -0.294197  -0.317311  0  2.671635  0
O  O92  1  0.30405714  0.82115041  0.32606981  1  -1.22729  0  -0.222668  -0.562425  0  2.325458  0
O  O93  1  0.69595883  0.17884522  0.67394386  1  -1.227942  0  -0.222403  -0.562071  0  2.325512  0
O  O94  1  0.80412989  0.67904897  0.17375107  1  -1.229095  0  -0.222923  -0.562565  0  2.325814  0
O  O95  1  0.19587702  0.32097051  0.82624653  1  -1.228364  0  -0.222976  -0.562567  0  2.325715  0
O  O96  1  0.64087511  0.80283193  0.18488583  1  -1.247134  0  -0.228028  -0.58909  0  2.302351  0
O  O97  1  0.35913333  0.19718934  0.81514004  1  -1.2473  0  -0.228006  -0.589324  0  2.302533  0
O  O98  1  0.14198258  0.69735816  0.31517922  1  -1.24443  0  -0.227538  -0.588651  0  2.30093  0
O  O99  1  0.85803337  0.30263082  0.68481384  1  -1.244685  0  -0.227695  -0.588831  0  2.300849  0
O  O100  1  0.64531925  0.81957365  0.32301808  1  -1.233165  0  -0.223535  -0.570827  0  2.374854  0
O  O101  1  0.35469980  0.18040577  0.67702266  1  -1.232955  0  -0.223717  -0.57071  0  2.375046  0
O  O102  1  0.14537667  0.68044371  0.17701068  1  -1.234621  0  -0.223427  -0.570884  0  2.374251  0
O  O103  1  0.85462727  0.31956987  0.82298703  1  -1.234003  0  -0.223465  -0.571094  0  2.374272  0
O  O104  1  0.80263315  0.69540560  0.31059698  1  -1.242169  0  -0.225007  -0.585246  0  2.322936  0
O  O105  1  0.19737832  0.30458298  0.68939660  1  -1.241766  0  -0.225045  -0.585396  0  2.323159  0
O  O106  1  0.30149874  0.80462370  0.18922237  1  -1.242961  0  -0.225348  -0.585609  0  2.323081  0
O  O107  1  0.69850670  0.19539631  0.81079241  1  -1.242222  0  -0.225351  -0.585785  0  2.323078  0
O  O108  1  0.47264339  0.70984197  0.24892802  1  -1.435385  0  -0.447965  -0.984738  0  2.169797  0
O  O109  1  0.52736655  0.29016078  0.75106735  1  -1.435207  0  -0.447942  -0.984635  0  2.170077  0
O  O110  1  0.97227411  0.79025895  0.25101645  1  -1.434703  0  -0.448  -0.985037  0  2.170334  0
O  O111  1  0.02773287  0.20974632  0.74899858  1  -1.434397  0  -0.447952  -0.984975  0  2.170322  0
