# generated using pymatgen
data_Zn2H17C22N5O8
_symmetry_space_group_name_H-M   'P 1'
_cell_length_a   9.76615007
_cell_length_b   11.22064457
_cell_length_c   16.04592240
_cell_angle_alpha   92.66495496
_cell_angle_beta   89.62141017
_cell_angle_gamma   90.34353954
_symmetry_Int_Tables_number   1
_chemical_formula_structural   Zn2H17C22N5O8
_chemical_formula_sum   'Zn2 H17 C22 N5 O8'
_cell_volume   1756.38378922
_cell_formula_units_Z   1
loop_
 _symmetry_equiv_pos_site_id
 _symmetry_equiv_pos_as_xyz
  1  'x, y, z'
loop_
 _atom_site_type_symbol
 _atom_site_label
 _atom_site_symmetry_multiplicity
 _atom_site_fract_x
 _atom_site_fract_y
 _atom_site_fract_z
 _atom_site_occupancy
 _atom_site_pbe_bader_charge
 _atom_site_pbe_bader_spin_density
 _atom_site_pbe_cm5_charge
 _atom_site_pbe_ddec_charge
 _atom_site_pbe_ddec_spin_density
 _atom_site_pbe_ddec_sum_bond_order
 _atom_site_pbe_magmom
Zn  Zn0  1  0.63279370  0.50223197  0.50353203  1  1.280586  0  0.661815  0.847386  0  2.458045  0
Zn  Zn1  1  0.35291107  0.50003777  0.49856070  1  1.289634  0  0.660794  0.841724  0  2.429461  0
H  H2  1  0.37090392  0.65454190  0.07781462  1  0.069302  0  0.100247  0.099869  0  0.98973  0
H  H3  1  0.30937249  0.11310320  0.49244543  1  0.098316  0  0.096211  0.113042  0  1.026003  0
H  H4  1  0.29798429  0.89550524  0.50204522  1  0.073483  0  0.100602  0.096787  0  0.984099  0
H  H5  1  0.66863708  0.74775982  0.00839021  1  0.393271  0  0.291874  0.282589  0  0.963634  0
H  H6  1  0.56267695  0.75793663  0.92816948  1  0.394333  0  0.29122  0.281961  0  0.963506  0
H  H7  1  0.69022575  0.25870680  0.94916988  1  0.405378  0  0.291277  0.282207  0  0.964585  0
H  H8  1  0.58675073  0.27376338  0.86819399  1  0.391222  0  0.290996  0.282194  0  0.96515  0
H  H9  1  0.65547091  0.01121619  0.55534076  1  0.444706  0  0.304363  0.296785  0  0.963337  0
H  H10  1  0.70945718  0.15988341  0.55948848  1  0.478545  0  0.302136  0.297455  0  0.967505  0
H  H11  1  0.61030575  0.89138393  0.47460289  1  0.045782  0  0.097889  0.11465  0  1.031093  0
H  H12  1  0.86793453  0.40904130  0.60921759  1  0.145824  0  0.148168  0.117104  0  0.929411  0
H  H13  1  0.89293865  0.56544385  0.46878220  1  0.419026  0  0.322611  0.28879  0  0.903009  0
H  H14  1  0.12257298  0.47184167  0.62357688  1  0.162749  0  0.14636  0.123313  0  0.94894  0
H  H15  1  0.09156690  0.48002299  0.44250359  1  0.439438  0  0.322116  0.287732  0  0.905159  0
H  H16  1  0.25385736  0.48965986  0.95864529  1  0.069431  0  0.100305  0.090207  0  0.99301  0
H  H17  1  0.38886490  0.30106170  0.03656244  1  0.067154  0  0.098373  0.097004  0  0.993592  0
H  H18  1  0.73551711  0.49512302  0.04466091  1  0.0654  0  0.104828  0.112786  0  0.975824  0
C  C19  1  0.49438615  0.73023568  0.48807470  1  1.477876  0  0.195831  0.63274  0  4.199325  0
C  C20  1  0.51689946  0.13513705  0.51829152  1  0.398346  0  0.096858  0.172591  0  4.040262  0
C  C21  1  0.39929991  0.93706609  0.49752830  1  -0.084764  0  -0.082072  0.010814  0  4.049452  0
C  C22  1  0.49828960  0.46525044  0.33963795  1  1.703111  0  0.215487  0.674159  0  4.235997  0
C  C23  1  0.50678743  0.86056739  0.48767616  1  -0.025928  0  -0.124634  -0.293041  0  3.933899  0
C  C24  1  0.91823782  0.46208036  0.56203209  1  0.718282  0  0.128049  0.174197  0  3.848602  0
C  C25  1  0.06947804  0.47322873  0.56353992  1  0.666277  0  0.127736  0.172636  0  3.835413  0
C  C26  1  0.50718522  0.26919266  0.51733260  1  1.547709  0  0.216288  0.557519  0  4.167785  0
C  C27  1  0.47672374  0.52420138  0.66467055  1  1.712491  0  0.213592  0.671831  0  4.24643  0
C  C28  1  0.55387821  0.59851826  0.98383099  1  0.455413  0  0.098795  0.263577  0  3.758041  0
C  C29  1  0.42505346  0.58267033  0.04321804  1  -0.046373  0  -0.079996  -0.156944  0  3.61745  0
C  C30  1  0.50190943  0.47823914  0.08645737  1  0.108604  0  0.003449  0.142792  0  3.832173  0
C  C31  1  0.50444292  0.46065658  0.24959348  1  0.205367  0  -0.062246  -0.20702  0  4.009269  0
C  C32  1  0.47592867  0.52480239  0.75462754  1  -0.017278  0  -0.065503  -0.223722  0  4.008599  0
C  C33  1  0.62799842  0.49399015  0.02586809  1  -0.045846  0  -0.077336  -0.198906  0  3.601432  0
C  C34  1  0.56368607  0.40228055  0.96097055  1  0.457233  0  0.098377  0.265049  0  3.759205  0
C  C35  1  0.48507671  0.50680131  0.91737861  1  0.071807  0  0.000365  0.011786  0  3.783033  0
C  C36  1  0.43495921  0.38619784  0.02043723  1  -0.067409  0  -0.079389  -0.156821  0  3.617903  0
C  C37  1  0.36050285  0.49065019  0.97889028  1  -0.025536  0  -0.078087  -0.070241  0  3.701376  0
C  C38  1  0.50603448  0.46619554  0.17386730  1  -0.550581  0  -0.042676  -0.061969  0  4.10724  0
C  C39  1  0.47931266  0.51827227  0.83030238  1  -0.345672  0  -0.041118  -0.028262  0  4.116899  0
C  C40  1  0.40398810  0.06460125  0.50127479  1  0.092631  0  -0.126676  -0.238958  0  4.030013  0
N  N41  1  0.84230480  0.51244543  0.50968275  1  -1.148642  0  -0.425921  -0.368231  0  3.254898  0
N  N42  1  0.14341673  0.48333904  0.49815863  1  -1.173917  0  -0.425588  -0.365468  0  3.246234  0
N  N43  1  0.62407879  0.70185159  0.95923404  1  -1.141079  0  -0.616157  -0.65677  0  3.266079  0
N  N44  1  0.64272226  0.31848386  0.91326247  1  -1.151504  0  -0.616903  -0.658819  0  3.271192  0
N  N45  1  0.64472891  0.09560357  0.53637079  1  -1.265306  0  -0.58222  -0.564185  0  3.375039  0
O  O46  1  0.60718176  0.67316412  0.47542474  1  -1.16835  0  -0.343088  -0.575821  0  2.288359  0
O  O47  1  0.37816770  0.68112254  0.50161385  1  -1.166402  0  -0.333121  -0.565417  0  2.278562  0
O  O48  1  0.60945912  0.44911426  0.37870050  1  -1.150456  0  -0.324276  -0.554401  0  2.236454  0
O  O49  1  0.38078554  0.48723670  0.37212517  1  -1.139075  0  -0.322878  -0.547232  0  2.244924  0
O  O50  1  0.61867306  0.32603134  0.53395712  1  -1.171699  0  -0.325786  -0.559486  0  2.320179  0
O  O51  1  0.39360329  0.31550121  0.49989166  1  -1.157848  0  -0.312217  -0.537548  0  2.318846  0
O  O52  1  0.59153856  0.54352855  0.62945871  1  -1.148286  0  -0.319534  -0.552748  0  2.247562  0
O  O53  1  0.36287310  0.50233596  0.62793128  1  -1.156778  0  -0.319594  -0.561268  0  2.26894  0
