# generated using pymatgen
data_ZnH18C22S(NO2)3
_symmetry_space_group_name_H-M   'P 1'
_cell_length_a   8.69927267
_cell_length_b   9.68464259
_cell_length_c   13.34123402
_cell_angle_alpha   87.49975155
_cell_angle_beta   88.62198795
_cell_angle_gamma   77.58905285
_symmetry_Int_Tables_number   1
_chemical_formula_structural   ZnH18C22S(NO2)3
_chemical_formula_sum   'Zn2 H36 C44 S2 N6 O12'
_cell_volume   1096.55497104
_cell_formula_units_Z   2
loop_
 _symmetry_equiv_pos_site_id
 _symmetry_equiv_pos_as_xyz
  1  'x, y, z'
loop_
 _atom_site_type_symbol
 _atom_site_label
 _atom_site_symmetry_multiplicity
 _atom_site_fract_x
 _atom_site_fract_y
 _atom_site_fract_z
 _atom_site_occupancy
 _atom_site_hle17_bader_spin_density
 _atom_site_hle17_ddec_charge
 _atom_site_hle17_ddec_spin_density
 _atom_site_hle17_ddec_sum_bond_order
 _atom_site_hle17_magmom
 _atom_site_hse06_10hf_bader_spin_density
 _atom_site_hse06_10hf_ddec_charge
 _atom_site_hse06_10hf_ddec_spin_density
 _atom_site_hse06_10hf_ddec_sum_bond_order
 _atom_site_hse06_10hf_magmom
 _atom_site_hse06_bader_spin_density
 _atom_site_hse06_ddec_charge
 _atom_site_hse06_ddec_spin_density
 _atom_site_hse06_ddec_sum_bond_order
 _atom_site_hse06_magmom
 _atom_site_pbe_bader_spin_density
 _atom_site_pbe_cm5_charge
 _atom_site_pbe_ddec_charge
 _atom_site_pbe_ddec_spin_density
 _atom_site_pbe_ddec_sum_bond_order
 _atom_site_pbe_magmom
Zn  Zn0  1  0.71338097  0.84749936  0.77468437  1  0  0.981511  0  1.87808  0  0  0.796108  0  2.322895  0  0  0.841737  0  2.274433  0  0  0.684756  0.764497  0  2.355796  0
Zn  Zn1  1  0.28661985  0.15250072  0.22531612  1  0  0.981509  0  1.878177  0  0  0.796094  0  2.323007  0  0  0.841721  0  2.274542  0  0  0.684762  0.764482  0  2.355909  0
H  H2  1  0.22331780  0.25908205  0.69868595  1  0  0.112017  0  0.962711  0  0  0.12192  0  1.022586  0  0  0.124989  0  1.021355  0  0  0.108583  0.11975  0  1.023537  0
H  H3  1  0.77667908  0.74091495  0.30131544  1  0  0.112079  0  0.962625  0  0  0.121918  0  1.022594  0  0  0.124982  0  1.021362  0  0  0.108594  0.119749  0  1.023541  0
H  H4  1  0.07269576  0.20713821  0.85111400  1  0  0.111499  0  0.913016  0  0  0.126226  0  0.961147  0  0  0.1291  0  0.95894  0  0  0.119744  0.124095  0  0.962902  0
H  H5  1  0.92730065  0.79285564  0.14888750  1  0  0.111453  0  0.91302  0  0  0.126178  0  0.961161  0  0  0.129053  0  0.958954  0  0  0.119742  0.124046  0  0.962915  0
H  H6  1  0.81250943  0.58611118  0.92390357  1  0  0.094769  0  0.929166  0  0  0.103334  0  0.986843  0  0  0.106575  0  0.983958  0  0  0.120729  0.100896  0  0.989099  0
H  H7  1  0.18749778  0.41389094  0.07610129  1  0  0.094789  0  0.929282  0  0  0.103372  0  0.986929  0  0  0.106613  0  0.984044  0  0  0.120727  0.100933  0  0.989186  0
H  H8  1  0.49678459  0.10906483  0.66986170  1  0  0.08082  0  0.942784  0  0  0.089416  0  1.004508  0  0  0.091939  0  1.002925  0  0  0.115427  0.087437  0  1.005963  0
H  H9  1  0.50321414  0.89093425  0.33013960  1  0  0.080779  0  0.942864  0  0  0.089449  0  1.004491  0  0  0.091976  0  1.002906  0  0  0.115423  0.087466  0  1.005947  0
H  H10  1  0.45271023  0.63290523  0.15701369  1  0  0.095735  0  0.929001  0  0  0.109652  0  0.982516  0  0  0.112021  0  0.981416  0  0  0.111227  0.107924  0  0.983428  0
H  H11  1  0.54728875  0.36708750  0.84298634  1  0  0.09572  0  0.928932  0  0  0.109628  0  0.982468  0  0  0.111998  0  0.981366  0  0  0.111197  0.107902  0  0.983381  0
H  H12  1  0.70969053  0.49584094  0.08660146  1  0  0.118528  0  0.969475  0  0  0.123971  0  1.033595  0  0  0.12772  0  1.031694  0  0  0.107019  0.121216  0  1.035011  0
H  H13  1  0.29031373  0.50415910  0.91340051  1  0  0.118554  0  0.969515  0  0  0.123999  0  1.033624  0  0  0.127748  0  1.03172  0  0  0.107004  0.121242  0  1.035041  0
H  H14  1  0.19348809  0.01096969  0.97082129  1  0  0.121668  0  0.967054  0  0  0.130821  0  1.026612  0  0  0.135029  0  1.023669  0  0  0.108298  0.127821  0  1.028704  0
H  H15  1  0.80651362  0.98902618  0.02918085  1  0  0.121636  0  0.967145  0  0  0.13084  0  1.026644  0  0  0.135013  0  1.023744  0  0  0.108296  0.127839  0  1.028735  0
H  H16  1  0.31074163  0.84774625  0.06311220  1  0  0.121722  0  0.947151  0  0  0.134398  0  1.001531  0  0  0.137442  0  1.000335  0  0  0.115328  0.132165  0  1.00273  0
H  H17  1  0.68925364  0.15224762  0.93688857  1  0  0.121757  0  0.947081  0  0  0.134377  0  1.001543  0  0  0.137423  0  1.000343  0  0  0.115321  0.132144  0  1.002743  0
H  H18  1  0.38803478  0.49305988  0.66478928  1  0  0.11067  0  0.992543  0  0  0.118807  0  1.055955  0  0  0.122467  0  1.054233  0  0  0.105895  0.116172  0  1.057275  0
H  H19  1  0.61196469  0.50694126  0.33520968  1  0  0.110685  0  0.992568  0  0  0.118842  0  1.055948  0  0  0.122475  0  1.054253  0  0  0.105902  0.116166  0  1.057308  0
H  H20  1  0.47447684  0.65573243  0.77509923  1  0  0.080449  0  0.943441  0  0  0.086728  0  1.01013  0  0  0.089256  0  1.008455  0  0  0.116628  0.084921  0  1.011325  0
H  H21  1  0.52552399  0.34426766  0.22490127  1  0  0.080454  0  0.94343  0  0  0.086736  0  1.010113  0  0  0.089263  0  1.008439  0  0  0.116637  0.084928  0  1.011309  0
H  H22  1  0.75564764  0.78935151  0.55347643  1  0  0.083265  0  0.971835  0  0  0.089692  0  1.039244  0  0  0.09226  0  1.037158  0  0  0.114326  0.087862  0  1.040725  0
H  H23  1  0.24435319  0.21064858  0.44652406  1  0  0.083278  0  0.97182  0  0  0.08969  0  1.039251  0  0  0.092258  0  1.037165  0  0  0.114336  0.087871  0  1.040724  0
H  H24  1  0.68219170  0.63010871  0.43017590  1  0  0.104102  0  0.971529  0  0  0.115576  0  1.031283  0  0  0.118458  0  1.030576  0  0  0.108289  0.113408  0  1.032073  0
H  H25  1  0.31780569  0.36989669  0.56982369  1  0  0.104107  0  0.971544  0  0  0.115565  0  1.03131  0  0  0.118471  0  1.030574  0  0  0.10831  0.113392  0  1.032106  0
H  H26  1  0.20235446  0.89062407  0.69725753  1  0  0.101314  0  0.962897  0  0  0.107507  0  1.029843  0  0  0.110183  0  1.03013  0  0  0.101461  0.105446  0  1.029953  0
H  H27  1  0.79765106  0.10937589  0.30273918  1  0  0.101326  0  0.96283  0  0  0.107528  0  1.02977  0  0  0.110204  0  1.030057  0  0  0.101458  0.105465  0  1.02988  0
H  H28  1  0.24589872  0.99933617  0.52795829  1  0  0.094367  0  0.957405  0  0  0.103607  0  1.021093  0  0  0.10701  0  1.018993  0  0  0.101277  0.100906  0  1.023118  0
H  H29  1  0.75410932  0.00066269  0.47203918  1  0  0.094344  0  0.957371  0  0  0.103573  0  1.021088  0  0  0.106978  0  1.018989  0  0  0.101229  0.100869  0  1.023114  0
H  H30  1  0.06323763  0.67969544  0.38690061  1  0  0.108359  0  0.939314  0  0  0.117907  0  0.998975  0  0  0.122173  0  0.995593  0  0  0.106436  0.114722  0  1.001634  0
H  H31  1  0.93675262  0.32031114  0.61309824  1  0  0.108347  0  0.939444  0  0  0.117917  0  0.999052  0  0  0.122185  0  0.995667  0  0  0.106425  0.114699  0  1.00175  0
H  H32  1  0.02203626  0.56839630  0.55688601  1  0  0.093233  0  0.959412  0  0  0.104353  0  1.021999  0  0  0.107036  0  1.020811  0  0  0.103662  0.102311  0  1.023065  0
H  H33  1  0.97795906  0.43160808  0.44311288  1  0  0.093251  0  0.959386  0  0  0.104332  0  1.022016  0  0  0.107043  0  1.020794  0  0  0.103652  0.10229  0  1.023082  0
H  H34  1  0.97479649  0.86724904  0.86194923  1  0  0.413439  0  0.883083  0  0  0.386115  0  0.945263  0  0  0.396124  0  0.930789  0  0  0.287527  0.37896  0  0.955611  0
H  H35  1  0.02520600  0.13275415  0.13804889  1  0  0.413409  0  0.883143  0  0  0.386088  0  0.945304  0  0  0.396095  0  0.930833  0  0  0.287512  0.378932  0  0.955652  0
H  H36  1  0.88092653  0.01878987  0.81730522  1  0  0.40432  0  0.915883  0  0  0.371278  0  0.984245  0  0  0.383393  0  0.966914  0  0  0.277719  0.362729  0  0.99646  0
H  H37  1  0.11907016  0.98121344  0.18269444  1  0  0.40438  0  0.915806  0  0  0.37134  0  0.984161  0  0  0.383453  0  0.966831  0  0  0.277758  0.36279  0  0.996377  0
C  C38  1  0.48619890  0.82927491  0.94351378  1  0  0.169302  0  3.751587  0  0  0.163936  0  3.996058  0  0  0.169787  0  4.016945  0  0  0.120718  0.160156  0  3.982036  0
C  C39  1  0.51380006  0.17072311  0.05648756  1  0  0.169091  0  3.751847  0  0  0.163774  0  3.996273  0  0  0.169629  0  4.017163  0  0  0.1207  0.159994  0  3.982249  0
C  C40  1  0.40752787  0.95354456  0.88076793  1  0  0.176006  0  3.752817  0  0  0.169351  0  3.999593  0  0  0.175924  0  4.020343  0  0  0.120809  0.164738  0  3.985325  0
C  C41  1  0.59247270  0.04645132  0.11923347  1  0  0.176225  0  3.752716  0  0  0.169528  0  3.999553  0  0  0.176101  0  4.020296  0  0  0.120881  0.164913  0  3.985287  0
C  C42  1  0.27361723  0.17237926  0.75046338  1  0  -0.108144  0  3.714648  0  0  -0.122864  0  3.969212  0  0  -0.129375  0  3.990594  0  0  -0.076618  -0.118695  0  3.954539  0
C  C43  1  0.72637755  0.82761674  0.24953881  1  0  -0.108241  0  3.714702  0  0  -0.122951  0  3.96936  0  0  -0.129455  0  3.990736  0  0  -0.076676  -0.118778  0  3.954674  0
C  C44  1  0.18990821  0.14381856  0.83663418  1  0  0.022861  0  3.67973  0  0  0.001795  0  3.932994  0  0  0.00607  0  3.950148  0  0  -0.054678  -0.000726  0  3.92104  0
C  C45  1  0.81008816  0.85617532  0.16336957  1  0  0.023027  0  3.679671  0  0  0.001989  0  3.932907  0  0  0.006266  0  3.950055  0  0  -0.054617  -0.000531  0  3.920954  0
C  C46  1  0.70180180  0.63972649  0.95815821  1  0  0.134236  0  3.685908  0  0  0.104393  0  3.934628  0  0  0.10997  0  3.953358  0  0  0.052693  0.100642  0  3.922393  0
C  C47  1  0.29820058  0.36027149  0.04184534  1  0  0.134253  0  3.686125  0  0  0.104381  0  3.934841  0  0  0.109962  0  3.953571  0  0  0.052737  0.100631  0  3.922605  0
C  C48  1  0.42388090  0.09101353  0.73482123  1  0  0.124409  0  3.720184  0  0  0.095124  0  3.971992  0  0  0.100799  0  3.990993  0  0  0.046948  0.09158  0  3.958927  0
C  C49  1  0.57611894  0.90898555  0.26518231  1  0  0.124407  0  3.720359  0  0  0.095087  0  3.972121  0  0  0.100758  0  3.991125  0  0  0.046953  0.091546  0  3.959054  0
C  C50  1  0.50158650  0.66660080  0.08633495  1  0  0.003605  0  3.713874  0  0  -0.016208  0  3.966851  0  0  -0.013281  0  3.986292  0  0  -0.06056  -0.018158  0  3.954292  0
C  C51  1  0.49841316  0.33339403  0.91366574  1  0  0.003718  0  3.713813  0  0  -0.016074  0  3.966756  0  0  -0.013147  0  3.986202  0  0  -0.060497  -0.018024  0  3.954195  0
C  C52  1  0.64374027  0.59047285  0.04780140  1  0  -0.108529  0  3.714801  0  0  -0.121917  0  3.967377  0  0  -0.128483  0  3.989527  0  0  -0.077332  -0.117321  0  3.952564  0
C  C53  1  0.35626191  0.40952617  0.95220062  1  0  -0.108644  0  3.715009  0  0  -0.122031  0  3.967579  0  0  -0.128598  0  3.989726  0  0  -0.077341  -0.117432  0  3.952766  0
C  C54  1  0.25680069  0.03307589  0.90262861  1  0  -0.129507  0  3.660335  0  0  -0.149349  0  3.910771  0  0  -0.156289  0  3.930924  0  0  -0.073218  -0.143943  0  3.896599  0
C  C55  1  0.74319918  0.96691789  0.09737287  1  0  -0.129642  0  3.660476  0  0  -0.149523  0  3.910946  0  0  -0.156443  0  3.93112  0  0  -0.073252  -0.144117  0  3.896774  0
C  C56  1  0.42139656  0.78698842  0.03386525  1  0  -0.124776  0  3.67073  0  0  -0.144917  0  3.917798  0  0  -0.151113  0  3.93865  0  0  -0.072257  -0.14174  0  3.905142  0
C  C57  1  0.57860376  0.21300852  0.96613686  1  0  -0.124757  0  3.670631  0  0  -0.144889  0  3.917703  0  0  -0.151082  0  3.938545  0  0  -0.07227  -0.141712  0  3.905047  0
C  C58  1  0.52579465  0.54684163  0.53521326  1  0  0.099902  0  3.751622  0  0  0.112464  0  3.977996  0  0  0.115888  0  4.000881  0  0  0.015331  0.110276  0  3.962249  0
C  C59  1  0.47420599  0.45315948  0.46478495  1  0  0.099882  0  3.751604  0  0  0.112437  0  3.977975  0  0  0.115857  0  4.000866  0  0  0.015286  0.110249  0  3.96222  0
C  C60  1  0.47136626  0.55408870  0.63493960  1  0  -0.155825  0  3.70278  0  0  -0.174765  0  3.947015  0  0  -0.182629  0  3.968559  0  0  -0.081429  -0.169525  0  3.932345  0
C  C61  1  0.52863275  0.44591456  0.36505929  1  0  -0.155864  0  3.702795  0  0  -0.174821  0  3.947012  0  0  -0.18266  0  3.968571  0  0  -0.081441  -0.169546  0  3.932369  0
C  C62  1  0.51925508  0.64632712  0.69813350  1  0  0.136197  0  3.701824  0  0  0.10301  0  3.95937  0  0  0.109958  0  3.976514  0  0  0.049986  0.098676  0  3.947442  0
C  C63  1  0.48074597  0.35367191  0.30186703  1  0  0.136212  0  3.701757  0  0  0.103021  0  3.959306  0  0  0.109969  0  3.976443  0  0  0.04998  0.098688  0  3.947367  0
C  C64  1  0.67399027  0.72147692  0.57358095  1  0  0.13141  0  3.698697  0  0  0.10064  0  3.947514  0  0  0.107026  0  3.965521  0  0  0.046729  0.096403  0  3.935501  0
C  C65  1  0.32601033  0.27852422  0.42641950  1  0  0.131383  0  3.698664  0  0  0.100613  0  3.947488  0  0  0.106998  0  3.965502  0  0  0.046678  0.096366  0  3.935471  0
C  C66  1  0.63119064  0.63283559  0.50551973  1  0  -0.157475  0  3.705756  0  0  -0.175798  0  3.950641  0  0  -0.183869  0  3.973414  0  0  -0.080907  -0.170469  0  3.93555  0
C  C67  1  0.36880812  0.36716875  0.49448063  1  0  -0.157456  0  3.705708  0  0  -0.175759  0  3.950587  0  0  -0.183849  0  3.973351  0  0  -0.08088  -0.170427  0  3.935508  0
C  C68  1  0.10911307  0.72423426  0.63592714  1  0  -0.112306  0  3.746436  0  0  -0.085018  0  3.987727  0  0  -0.090321  0  4.008957  0  0  -0.019339  -0.081811  0  3.973782  0
C  C69  1  0.89088481  0.27576901  0.36407102  1  0  -0.112289  0  3.746464  0  0  -0.085017  0  3.987768  0  0  -0.09032  0  4.009008  0  0  -0.019363  -0.08181  0  3.973825  0
C  C70  1  0.15610910  0.84649864  0.44766758  1  0  -0.058782  0  3.745208  0  0  -0.037116  0  3.978435  0  0  -0.043649  0  4.000835  0  0  -0.018299  -0.032877  0  3.963124  0
C  C71  1  0.84389128  0.15350355  0.55233209  1  0  -0.058745  0  3.745242  0  0  -0.037087  0  3.978465  0  0  -0.04362  0  4.000866  0  0  -0.018246  -0.032848  0  3.96315  0
C  C72  1  0.17267999  0.84490862  0.62911437  1  0  -0.067032  0  3.751066  0  0  -0.091311  0  4.003446  0  0  -0.0923  0  4.024251  0  0  -0.08709  -0.090619  0  3.989641  0
C  C73  1  0.82732203  0.15509142  0.37088387  1  0  -0.067097  0  3.750953  0  0  -0.09137  0  4.003327  0  0  -0.092361  0  4.024134  0  0  -0.087097  -0.090676  0  3.989522  0
C  C74  1  0.19656752  0.90508030  0.53490004  1  0  -0.057609  0  3.716975  0  0  -0.081661  0  3.967534  0  0  -0.082025  0  3.987279  0  0  -0.080949  -0.081317  0  3.954463  0
C  C75  1  0.80343817  0.09491863  0.46509971  1  0  -0.057557  0  3.716839  0  0  -0.081604  0  3.967404  0  0  -0.081974  0  3.987156  0  0  -0.080923  -0.081258  0  3.954335  0
C  C76  1  0.09326770  0.72459826  0.45551677  1  0  -0.072799  0  3.721261  0  0  -0.09601  0  3.972128  0  0  -0.096514  0  3.991432  0  0  -0.084019  -0.095358  0  3.958819  0
C  C77  1  0.90672647  0.27540614  0.54448213  1  0  -0.072856  0  3.721502  0  0  -0.096068  0  3.972306  0  0  -0.096574  0  3.991618  0  0  -0.084027  -0.095385  0  3.959015  0
C  C78  1  0.07049822  0.66315336  0.54942924  1  0  -0.078575  0  3.77029  0  0  -0.104248  0  4.027151  0  0  -0.105337  0  4.047911  0  0  -0.089458  -0.103322  0  4.013104  0
C  C79  1  0.92950105  0.33684883  0.45056820  1  0  -0.078591  0  3.77026  0  0  -0.104232  0  4.027103  0  0  -0.105338  0  4.047849  0  0  -0.089429  -0.103305  0  4.013047  0
C  C80  1  0.17404661  0.91682277  0.34660125  1  0  0.640393  0  3.918693  0  0  0.589053  0  4.215701  0  0  0.623069  0  4.208042  0  0  0.206116  0.566187  0  4.219835  0
C  C81  1  0.82594916  0.08317949  0.65339771  1  0  0.640521  0  3.918514  0  0  0.5892  0  4.215491  0  0  0.623217  0  4.207829  0  0  0.206135  0.566336  0  4.219628  0
S  S82  1  0.07888876  0.64198457  0.75492460  1  0  1.282432  0  5.668373  0  0  1.187044  0  6.187547  0  0  1.235376  0  6.162117  0  0  0.503667  1.15375  0  6.203887  0
S  S83  1  0.92111141  0.35801867  0.24507429  1  0  1.282189  0  5.668463  0  0  1.186784  0  6.187649  0  0  1.235114  0  6.162222  0  0  0.503488  1.15349  0  6.203989  0
N  N84  1  0.62521267  0.75607834  0.90768362  1  0  -0.349464  0  3.278703  0  0  -0.275125  0  3.538069  0  0  -0.293215  0  3.556164  0  0  -0.31813  -0.263219  0  3.525964  0
N  N85  1  0.37478974  0.24391962  0.09231843  1  0  -0.349413  0  3.278954  0  0  -0.275059  0  3.538298  0  0  -0.293157  0  3.5564  0  0  -0.318145  -0.26315  0  3.52619  0
N  N86  1  0.48907283  0.98497898  0.79868319  1  0  -0.359075  0  3.297366  0  0  -0.289557  0  3.564932  0  0  -0.307542  0  3.582468  0  0  -0.322838  -0.276984  0  3.552775  0
N  N87  1  0.51092914  0.01501581  0.20131748  1  0  -0.359115  0  3.297348  0  0  -0.289592  0  3.564963  0  0  -0.307577  0  3.582502  0  0  -0.322902  -0.277019  0  3.552805  0
N  N88  1  0.61868837  0.72896391  0.66866529  1  0  -0.299598  0  3.271253  0  0  -0.222232  0  3.533403  0  0  -0.239427  0  3.549952  0  0  -0.320265  -0.210541  0  3.521901  0
N  N89  1  0.38131245  0.27103617  0.33133520  1  0  -0.299597  0  3.271226  0  0  -0.222225  0  3.533368  0  0  -0.239418  0  3.549914  0  0  -0.320256  -0.210534  0  3.521871  0
O  O90  1  0.90648779  0.65420297  0.76490363  1  0  -0.684495  0  2.054109  0  0  -0.622314  0  2.322032  0  0  -0.645201  0  2.305478  0  0  -0.34199  -0.606  0  2.33271  0
O  O91  1  0.09351256  0.34579924  0.23509754  1  0  -0.684422  0  2.054142  0  0  -0.622244  0  2.322081  0  0  -0.645133  0  2.305529  0  0  -0.341935  -0.60593  0  2.332758  0
O  O92  1  0.13971529  0.72181922  0.83103526  1  0  -0.675013  0  1.926446  0  0  -0.624853  0  2.161389  0  0  -0.644867  0  2.147331  0  0  -0.350164  -0.610589  0  2.170539  0
O  O93  1  0.86028743  0.27818290  0.16896290  1  0  -0.674979  0  1.926417  0  0  -0.624838  0  2.161387  0  0  -0.644844  0  2.147319  0  0  -0.350147  -0.610574  0  2.170538  0
O  O94  1  0.16287066  0.49447868  0.74931159  1  0  -0.6551  0  1.949644  0  0  -0.610532  0  2.197601  0  0  -0.63182  0  2.18479  0  0  -0.340577  -0.595278  0  2.205712  0
O  O95  1  0.83713276  0.50552554  0.25068648  1  0  -0.654959  0  1.949696  0  0  -0.610354  0  2.197638  0  0  -0.63163  0  2.184805  0  0  -0.340468  -0.595095  0  2.205737  0
O  O96  1  0.22990948  0.02917412  0.34674468  1  0  -0.655217  0  2.099026  0  0  -0.586713  0  2.366776  0  0  -0.614541  0  2.355394  0  0  -0.325637  -0.567337  0  2.373802  0
O  O97  1  0.77009396  0.97082481  0.65325208  1  0  -0.655265  0  2.09896  0  0  -0.586774  0  2.366706  0  0  -0.614603  0  2.355327  0  0  -0.325635  -0.567397  0  2.37373  0
O  O98  1  0.13224245  0.86319565  0.26951590  1  0  -0.619056  0  1.945094  0  0  -0.56845  0  2.158193  0  0  -0.592081  0  2.148229  0  0  -0.32331  -0.551977  0  2.16444  0
O  O99  1  0.86774757  0.13681199  0.73048292  1  0  -0.619089  0  1.944985  0  0  -0.568483  0  2.15807  0  0  -0.592116  0  2.148103  0  0  -0.323315  -0.552007  0  2.164314  0
O  O100  1  0.87224001  0.93560934  0.86537561  1  0  -0.824169  0  1.900475  0  0  -0.76327  0  2.091829  0  0  -0.784901  0  2.058465  0  0  -0.578261  -0.747845  0  2.114916  0
O  O101  1  0.12776153  0.06439283  0.13462405  1  0  -0.82418  0  1.900504  0  0  -0.76328  0  2.09187  0  0  -0.784921  0  2.058527  0  0  -0.578268  -0.747854  0  2.114959  0
