# generated using pymatgen
data_Cd3H28C18Se6(N7O)2
_symmetry_space_group_name_H-M   'P 1'
_cell_length_a   6.02641912
_cell_length_b   8.87536264
_cell_length_c   16.10712206
_cell_angle_alpha   100.22262006
_cell_angle_beta   97.17777619
_cell_angle_gamma   101.15440680
_symmetry_Int_Tables_number   1
_chemical_formula_structural   Cd3H28C18Se6(N7O)2
_chemical_formula_sum   'Cd3 H28 C18 Se6 N14 O2'
_cell_volume   820.42711886
_cell_formula_units_Z   1
loop_
 _symmetry_equiv_pos_site_id
 _symmetry_equiv_pos_as_xyz
  1  'x, y, z'
loop_
 _atom_site_type_symbol
 _atom_site_label
 _atom_site_symmetry_multiplicity
 _atom_site_fract_x
 _atom_site_fract_y
 _atom_site_fract_z
 _atom_site_occupancy
 _atom_site_hle17_bader_spin_density
 _atom_site_hle17_ddec_charge
 _atom_site_hle17_ddec_spin_density
 _atom_site_hle17_ddec_sum_bond_order
 _atom_site_hle17_magmom
 _atom_site_hse06_10hf_bader_spin_density
 _atom_site_hse06_10hf_ddec_charge
 _atom_site_hse06_10hf_ddec_spin_density
 _atom_site_hse06_10hf_ddec_sum_bond_order
 _atom_site_hse06_10hf_magmom
 _atom_site_hse06_bader_spin_density
 _atom_site_hse06_ddec_charge
 _atom_site_hse06_ddec_spin_density
 _atom_site_hse06_ddec_sum_bond_order
 _atom_site_hse06_magmom
 _atom_site_pbe_bader_spin_density
 _atom_site_pbe_cm5_charge
 _atom_site_pbe_ddec_charge
 _atom_site_pbe_ddec_spin_density
 _atom_site_pbe_ddec_sum_bond_order
 _atom_site_pbe_magmom
Cd  Cd0  1  0.00001452  0.49998342  0.99999701  1  0  0.888007  0  1.919239  0  0  0.707983  0  2.348996  0  0  0.755472  0  2.315088  0  0  0.678231  0.675001  0  2.371549  0
Cd  Cd1  1  0.91964570  0.16756393  0.32176371  1  0  0.978174  0  1.914315  0  0  0.810487  0  2.362122  0  0  0.857804  0  2.320826  0  0  0.681187  0.777381  0  2.390019  0
Cd  Cd2  1  0.08034595  0.83244307  0.67824514  1  0  0.978217  0  1.914368  0  0  0.810545  0  2.362192  0  0  0.857862  0  2.320893  0  0  0.68119  0.777434  0  2.390086  0
H  H3  1  0.94594566  0.84648757  0.34043931  1  0  0.37908  0  0.933793  0  0  0.33773  0  1.023417  0  0  0.34933  0  1.007272  0  0  0.27624  0.329633  0  1.034651  0
H  H4  1  0.05407153  0.15352065  0.65956405  1  0  0.379041  0  0.933732  0  0  0.337693  0  1.023428  0  0  0.349293  0  1.007283  0  0  0.27622  0.329596  0  1.034661  0
H  H5  1  0.82547964  0.91000924  0.41825550  1  0  0.384391  0  0.90386  0  0  0.355864  0  0.979372  0  0  0.366011  0  0.964651  0  0  0.273485  0.348603  0  0.989908  0
H  H6  1  0.17452302  0.08998022  0.58174587  1  0  0.384394  0  0.903718  0  0  0.355871  0  0.979333  0  0  0.366017  0  0.964614  0  0  0.273467  0.348614  0  0.989871  0
H  H7  1  0.81122582  0.37749257  0.17205754  1  0  0.06956  0  0.948054  0  0  0.07848  0  1.021699  0  0  0.078999  0  1.021556  0  0  0.106858  0.077986  0  1.021963  0
H  H8  1  0.18877087  0.62251447  0.82794906  1  0  0.06951  0  0.948102  0  0  0.078402  0  1.021763  0  0  0.078918  0  1.02162  0  0  0.106811  0.077907  0  1.022032  0
H  H9  1  0.06191310  0.30577936  0.15548889  1  0  0.065768  0  0.969863  0  0  0.074271  0  1.04482  0  0  0.074957  0  1.0449  0  0  0.102006  0.073668  0  1.044913  0
H  H10  1  0.93807306  0.69421596  0.84451540  1  0  0.0657  0  0.969906  0  0  0.074205  0  1.044875  0  0  0.074892  0  1.044952  0  0  0.101972  0.073605  0  1.044966  0
H  H11  1  0.38570961  0.36498329  0.27010010  1  0  0.070897  0  0.942683  0  0  0.085212  0  1.006957  0  0  0.084631  0  1.007992  0  0  0.112834  0.085529  0  1.006365  0
H  H12  1  0.61428576  0.63501447  0.72989804  1  0  0.070852  0  0.942748  0  0  0.08519  0  1.00698  0  0  0.084607  0  1.008014  0  0  0.112845  0.085507  0  1.006383  0
H  H13  1  0.37270012  0.48069876  0.37171533  1  0  0.057191  0  0.975358  0  0  0.064502  0  1.055617  0  0  0.064661  0  1.05587  0  0  0.101218  0.06429  0  1.05556  0
H  H14  1  0.62731348  0.51930362  0.62828602  1  0  0.057184  0  0.975396  0  0  0.064512  0  1.055594  0  0  0.064671  0  1.055851  0  0  0.10121  0.064301  0  1.055531  0
H  H15  1  0.40187123  0.84388421  0.29650654  1  0  0.074665  0  0.944836  0  0  0.085106  0  1.014513  0  0  0.085073  0  1.014835  0  0  0.11274  0.085028  0  1.014392  0
H  H16  1  0.59814597  0.15611363  0.70348521  1  0  0.074694  0  0.944765  0  0  0.085162  0  1.014425  0  0  0.085127  0  1.014747  0  0  0.112757  0.085083  0  1.014305  0
H  H17  1  0.38335342  0.75388038  0.38699817  1  0  0.064388  0  0.936135  0  0  0.076294  0  1.003732  0  0  0.076484  0  1.003227  0  0  0.108464  0.076042  0  1.004241  0
H  H18  1  0.61666800  0.24613035  0.61299634  1  0  0.064375  0  0.93621  0  0  0.07633  0  1.003739  0  0  0.076519  0  1.003234  0  0  0.108547  0.07608  0  1.004242  0
H  H19  1  0.07718089  0.78675723  0.18342862  1  0  0.071636  0  0.958748  0  0  0.080847  0  1.031544  0  0  0.080988  0  1.032075  0  0  0.110121  0.080647  0  1.031317  0
H  H20  1  0.92283498  0.21324173  0.81656628  1  0  0.071588  0  0.958765  0  0  0.080758  0  1.03165  0  0  0.080896  0  1.032185  0  0  0.1101  0.08056  0  1.031416  0
H  H21  1  0.82038911  0.65281039  0.18865132  1  0  0.078131  0  0.921337  0  0  0.0923  0  0.987081  0  0  0.092735  0  0.98682  0  0  0.118523  0.091887  0  0.987392  0
H  H22  1  0.17961938  0.34719674  0.81134841  1  0  0.078129  0  0.92127  0  0  0.092302  0  0.987028  0  0  0.092735  0  0.986769  0  0  0.118533  0.09189  0  0.987335  0
H  H23  1  0.79449598  0.53376839  0.31145432  1  0  0.077017  0  0.943574  0  0  0.084228  0  1.019346  0  0  0.085488  0  1.01832  0  0  0.115635  0.083237  0  1.020215  0
H  H24  1  0.20551720  0.46624804  0.68855155  1  0  0.077094  0  0.943632  0  0  0.084276  0  1.019395  0  0  0.085522  0  1.018358  0  0  0.115669  0.083286  0  1.020267  0
H  H25  1  0.03720044  0.57321947  0.39517268  1  0  0.074358  0  0.913749  0  0  0.087726  0  0.979616  0  0  0.088008  0  0.979469  0  0  0.112251  0.087428  0  0.979899  0
H  H26  1  0.96282358  0.42679936  0.60482961  1  0  0.074453  0  0.913707  0  0  0.087796  0  0.979576  0  0  0.088057  0  0.97942  0  0  0.112287  0.087498  0  0.979855  0
H  H27  1  0.41167092  0.48556423  0.14886167  1  0  0.066444  0  0.934876  0  0  0.078095  0  1.004859  0  0  0.07802  0  1.005017  0  0  0.110201  0.078045  0  1.004863  0
H  H28  1  0.58832960  0.51442883  0.85113624  1  0  0.066458  0  0.934957  0  0  0.078098  0  1.004909  0  0  0.078023  0  1.005062  0  0  0.110226  0.078055  0  1.004913  0
H  H29  1  0.41910096  0.69139370  0.16066211  1  0  0.069516  0  0.946169  0  0  0.077491  0  1.021392  0  0  0.078014  0  1.021221  0  0  0.109145  0.076998  0  1.021673  0
H  H30  1  0.58089510  0.30859590  0.83933213  1  0  0.069487  0  0.946239  0  0  0.077457  0  1.021403  0  0  0.077981  0  1.021238  0  0  0.109115  0.076976  0  1.021682  0
C  C31  1  0.44830734  0.29886389  0.00350077  1  0  0.234213  0  3.845446  0  0  0.21645  0  4.159746  0  0  0.239543  0  4.171169  0  0  0.106782  0.200645  0  4.151797  0
C  C32  1  0.55165550  0.70110105  0.99649432  1  0  0.234446  0  3.845071  0  0  0.216686  0  4.159359  0  0  0.239778  0  4.170757  0  0  0.106905  0.200882  0  4.151418  0
C  C33  1  0.35642098  0.07020285  0.21619175  1  0  0.226204  0  3.839889  0  0  0.210664  0  4.155374  0  0  0.233749  0  4.165518  0  0  0.10829  0.194857  0  4.148313  0
C  C34  1  0.64353062  0.92981962  0.78381242  1  0  0.226064  0  3.839627  0  0  0.210529  0  4.155129  0  0  0.23362  0  4.165277  0  0  0.108148  0.194718  0  4.148058  0
C  C35  1  0.50104830  0.25322537  0.43821029  1  0  0.250632  0  3.828044  0  0  0.235233  0  4.135994  0  0  0.257555  0  4.147748  0  0  0.111877  0.219888  0  4.127849  0
C  C36  1  0.49893809  0.74676052  0.56179491  1  0  0.250816  0  3.827992  0  0  0.235419  0  4.135929  0  0  0.257739  0  4.147684  0  0  0.112022  0.220076  0  4.127781  0
C  C37  1  0.99871871  0.40418664  0.18845251  1  0  0.060063  0  3.639965  0  0  -0.009014  0  3.889475  0  0  -0.001728  0  3.901443  0  0  0.003107  -0.01386  0  3.881173  0
C  C38  1  0.00127895  0.59581814  0.81154832  1  0  0.060336  0  3.639906  0  0  -0.008705  0  3.889461  0  0  -0.001415  0  3.901429  0  0  0.003239  -0.013564  0  3.881165  0
C  C39  1  0.32236125  0.46380230  0.30226792  1  0  0.066529  0  3.647024  0  0  -0.005531  0  3.907665  0  0  0.002641  0  3.918359  0  0  0.005635  -0.010967  0  3.900108  0
C  C40  1  0.67764400  0.53620012  0.69773242  1  0  0.066462  0  3.647213  0  0  -0.005508  0  3.907735  0  0  0.002662  0  3.918419  0  0  0.005609  -0.010976  0  3.900246  0
C  C41  1  0.33066715  0.73664485  0.31762175  1  0  0.093311  0  3.605256  0  0  0.024931  0  3.861704  0  0  0.033853  0  3.869968  0  0  0.017996  0.018895  0  3.85603  0
C  C42  1  0.66934578  0.26335531  0.68237189  1  0  0.093406  0  3.605116  0  0  0.024954  0  3.861633  0  0  0.033874  0  3.869891  0  0  0.017964  0.018922  0  3.855956  0
C  C43  1  0.00805030  0.67889895  0.20429711  1  0  0.07944  0  3.602311  0  0  0.006776  0  3.857732  0  0  0.015003  0  3.867899  0  0  0.015194  0.001199  0  3.850811  0
C  C44  1  0.99195947  0.32110700  0.79570256  1  0  0.079504  0  3.602212  0  0  0.006819  0  3.85767  0  0  0.015042  0  3.867852  0  0  0.015216  0.001259  0  3.850728  0
C  C45  1  0.98246572  0.55742895  0.32587467  1  0  0.082738  0  3.598708  0  0  0.010452  0  3.859427  0  0  0.018917  0  3.868547  0  0  0.015827  0.004636  0  3.853332  0
C  C46  1  0.01754673  0.44258519  0.67412721  1  0  0.082479  0  3.598888  0  0  0.01032  0  3.859506  0  0  0.018869  0  3.868512  0  0  0.015747  0.004498  0  3.853409  0
C  C47  1  0.34876442  0.58402902  0.18217787  1  0  0.079144  0  3.625308  0  0  0.009946  0  3.883504  0  0  0.01834  0  3.892912  0  0  0.01411  0.00429  0  3.877075  0
C  C48  1  0.65122867  0.41596175  0.81781697  1  0  0.079234  0  3.625381  0  0  0.010156  0  3.883436  0  0  0.018539  0  3.892856  0  0  0.01419  0.004471  0  3.877042  0
Se  Se49  1  0.14922133  0.20964019  0.99301437  1  0  -0.240127  0  1.982438  0  0  -0.213698  0  2.336463  0  0  -0.233461  0  2.326218  0  0  -0.062402  -0.199823  0  2.343198  0
Se  Se50  1  0.85078367  0.79033555  0.00696397  1  0  -0.240322  0  1.981829  0  0  -0.213885  0  2.335793  0  0  -0.233682  0  2.325599  0  0  -0.062528  -0.200011  0  2.342528  0
Se  Se51  1  0.60539952  0.04345573  0.16961653  1  0  -0.242794  0  2.007561  0  0  -0.219613  0  2.366717  0  0  -0.240515  0  2.356224  0  0  -0.055609  -0.205022  0  2.373631  0
Se  Se52  1  0.39457552  0.95656675  0.83038442  1  0  -0.242774  0  2.008238  0  0  -0.219548  0  2.367337  0  0  -0.240449  0  2.356838  0  0  -0.055601  -0.204953  0  2.374245  0
Se  Se53  1  0.24441528  0.27734806  0.48029098  1  0  -0.290056  0  2.000832  0  0  -0.26245  0  2.352475  0  0  -0.282582  0  2.338598  0  0  -0.061092  -0.248236  0  2.361826  0
Se  Se54  1  0.75557818  0.72265425  0.51971685  1  0  -0.290079  0  2.00075  0  0  -0.26249  0  2.352415  0  0  -0.282625  0  2.338542  0  0  -0.06109  -0.24828  0  2.36176  0
N  N55  1  0.64540435  0.35628278  0.01139463  1  0  -0.49774  0  2.933879  0  0  -0.435125  0  3.210312  0  0  -0.455508  0  3.217321  0  0  -0.386456  -0.4213  0  3.205475  0
N  N56  1  0.35458341  0.64371244  0.98861531  1  0  -0.497808  0  2.934295  0  0  -0.43518  0  3.21071  0  0  -0.455557  0  3.217705  0  0  -0.386477  -0.421355  0  3.205875  0
N  N57  1  0.18893565  0.08141633  0.24549176  1  0  -0.493071  0  2.912824  0  0  -0.433366  0  3.186424  0  0  -0.452717  0  3.191846  0  0  -0.384548  -0.420239  0  3.182759  0
N  N58  1  0.81104950  0.91858607  0.75451196  1  0  -0.493015  0  2.912034  0  0  -0.433329  0  3.18564  0  0  -0.452685  0  3.191062  0  0  -0.384438  -0.420197  0  3.181968  0
N  N59  1  0.67133269  0.24354232  0.41071319  1  0  -0.499097  0  2.897022  0  0  -0.437183  0  3.167631  0  0  -0.45697  0  3.173788  0  0  -0.383902  -0.423727  0  3.16344  0
N  N60  1  0.32865633  0.75644128  0.58928817  1  0  -0.499308  0  2.897078  0  0  -0.437407  0  3.167697  0  0  -0.457195  0  3.173853  0  0  -0.384068  -0.423949  0  3.1635  0
N  N61  1  0.09403429  0.54754602  0.15837842  1  0  -0.284711  0  3.203132  0  0  -0.186389  0  3.435063  0  0  -0.206399  0  3.455975  0  0  -0.344152  -0.172454  0  3.420241  0
N  N62  1  0.90596132  0.45245759  0.84162220  1  0  -0.284867  0  3.203119  0  0  -0.186569  0  3.435033  0  0  -0.206576  0  3.455946  0  0  -0.344223  -0.172628  0  3.420217  0
N  N63  1  0.06609526  0.42293970  0.28204576  1  0  -0.297161  0  3.203658  0  0  -0.20041  0  3.44129  0  0  -0.221081  0  3.462661  0  0  -0.342233  -0.185961  0  3.426154  0
N  N64  1  0.93389532  0.57706390  0.71795586  1  0  -0.29707  0  3.203834  0  0  -0.200498  0  3.441557  0  0  -0.221194  0  3.462907  0  0  -0.342279  -0.186039  0  3.426417  0
N  N65  1  0.41931254  0.60635370  0.27440198  1  0  -0.26609  0  3.170533  0  0  -0.199483  0  3.435717  0  0  -0.21388  0  3.450201  0  0  -0.345324  -0.189323  0  3.425499  0
N  N66  1  0.58069755  0.39364294  0.72559179  1  0  -0.26607  0  3.170573  0  0  -0.199561  0  3.435797  0  0  -0.213941  0  3.450265  0  0  -0.34535  -0.189396  0  3.425582  0
N  N67  1  0.07642028  0.70285582  0.29785819  1  0  -0.26866  0  3.152396  0  0  -0.180778  0  3.377431  0  0  -0.197492  0  3.393982  0  0  -0.32753  -0.169088  0  3.365862  0
N  N68  1  0.92360196  0.29715245  0.70214232  1  0  -0.268733  0  3.152406  0  0  -0.180818  0  3.377359  0  0  -0.197554  0  3.393887  0  0  -0.327579  -0.169126  0  3.365786  0
O  O69  1  0.85218655  0.92481535  0.36118819  1  0  -0.81796  0  2.010323  0  0  -0.754028  0  2.237706  0  0  -0.776183  0  2.205442  0  0  -0.595557  -0.738298  0  2.260025  0
O  O70  1  0.14781967  0.07517993  0.63881643  1  0  -0.817904  0  2.010111  0  0  -0.75398  0  2.237667  0  0  -0.776132  0  2.205409  0  0  -0.595505  -0.738258  0  2.259966  0
