# generated using pymatgen
data_CdH16(C12N5)2
_symmetry_space_group_name_H-M   'P 1'
_cell_length_a   6.56770001
_cell_length_b   13.88159670
_cell_length_c   13.88154643
_cell_angle_alpha   80.54293060
_cell_angle_beta   79.84771639
_cell_angle_gamma   79.84948958
_symmetry_Int_Tables_number   1
_chemical_formula_structural   CdH16(C12N5)2
_chemical_formula_sum   'Cd2 H32 C48 N20'
_cell_volume   1214.61861823
_cell_formula_units_Z   2
loop_
 _symmetry_equiv_pos_site_id
 _symmetry_equiv_pos_as_xyz
  1  'x, y, z'
loop_
 _atom_site_type_symbol
 _atom_site_label
 _atom_site_symmetry_multiplicity
 _atom_site_fract_x
 _atom_site_fract_y
 _atom_site_fract_z
 _atom_site_occupancy
 _atom_site_pbe_bader_charge
 _atom_site_pbe_bader_spin_density
 _atom_site_pbe_cm5_charge
 _atom_site_pbe_ddec_charge
 _atom_site_pbe_ddec_spin_density
 _atom_site_pbe_ddec_sum_bond_order
 _atom_site_pbe_magmom
Cd  Cd0  1  0.24999997  0.57748220  0.42251841  1  1.234245  0  0.810183  0.628029  0  2.394248  0
Cd  Cd1  1  0.75000473  0.42251172  0.57748381  1  1.234275  0  0.810213  0.628127  0  2.394231  0
H  H2  1  0.79964888  0.76305299  0.70547638  1  0.115134  0  0.102644  0.104961  0  1.046825  0
H  H3  1  0.70036467  0.29452145  0.23695391  1  0.115142  0  0.102633  0.104927  0  1.046829  0
H  H4  1  0.20036613  0.23693667  0.29451618  1  0.115338  0  0.102684  0.105101  0  1.046889  0
H  H5  1  0.29963486  0.70547394  0.76304785  1  0.115187  0  0.102637  0.104967  0  1.046855  0
H  H6  1  0.79886695  0.91322519  0.78230345  1  0.066786  0  0.100535  0.10136  0  0.994841  0
H  H7  1  0.70109645  0.21772389  0.08676621  1  0.067192  0  0.100498  0.101404  0  0.994823  0
H  H8  1  0.20112834  0.08675983  0.21769889  1  0.066732  0  0.100479  0.101339  0  0.99479  0
H  H9  1  0.29888733  0.78228926  0.91322704  1  0.066945  0  0.100543  0.101373  0  0.994899  0
H  H10  1  0.53382266  0.06158045  0.75122199  1  0.021788  0  0.098196  0.098725  0  1.017661  0
H  H11  1  0.96613536  0.24881897  0.93840279  1  0.021022  0  0.098234  0.098699  0  1.017606  0
H  H12  1  0.46618634  0.93840228  0.24879095  1  0.021208  0  0.098269  0.098833  0  1.017752  0
H  H13  1  0.03383892  0.75119931  0.06159056  1  0.021161  0  0.098288  0.098811  0  1.017638  0
H  H14  1  0.26640826  0.90753382  0.56975295  1  0.076571  0  0.105804  0.11236  0  1.015761  0
H  H15  1  0.23360487  0.43025722  0.09245937  1  0.076641  0  0.105908  0.112507  0  1.015782  0
H  H16  1  0.73360016  0.09246237  0.43024569  1  0.076435  0  0.105885  0.112473  0  1.015697  0
H  H17  1  0.76637199  0.56975366  0.90753561  1  0.076304  0  0.105935  0.112497  0  1.015709  0
H  H18  1  0.17821480  0.06162379  0.49678276  1  0.088515  0  0.105616  0.112708  0  1.020058  0
H  H19  1  0.32178666  0.50323456  0.93836557  1  0.089456  0  0.105591  0.112705  0  1.020072  0
H  H20  1  0.82178032  0.93837528  0.50321812  1  0.088528  0  0.105625  0.112641  0  1.020169  0
H  H21  1  0.67821247  0.49677492  0.06163042  1  0.089138  0  0.105587  0.112697  0  1.020099  0
H  H22  1  0.93525241  0.22032453  0.47116042  1  0.13818  0  0.112968  0.079087  0  1.044335  0
H  H23  1  0.56477196  0.52885244  0.77966409  1  0.13812  0  0.112962  0.079074  0  1.044353  0
H  H24  1  0.06474555  0.77967597  0.52884501  1  0.137982  0  0.112936  0.079018  0  1.044399  0
H  H25  1  0.43523870  0.47115113  0.22033606  1  0.138162  0  0.112932  0.079004  0  1.04446  0
H  H26  1  0.97443217  0.28875934  0.74552014  1  0.096981  0  0.112777  0.081191  0  1.01949  0
H  H27  1  0.52561977  0.25448183  0.71124370  1  0.096621  0  0.112755  0.081143  0  1.019326  0
H  H28  1  0.02559832  0.71124063  0.25447944  1  0.096685  0  0.112773  0.081132  0  1.019441  0
H  H29  1  0.47437710  0.74552165  0.28875993  1  0.096518  0  0.112728  0.081109  0  1.019378  0
H  H30  1  0.20643723  0.12920974  0.78592622  1  0.035837  0  0.099535  0.097974  0  1.040977  0
H  H31  1  0.29358469  0.21408617  0.87079420  1  0.036535  0  0.099499  0.097961  0  1.041025  0
H  H32  1  0.79358741  0.87078877  0.21407054  1  0.035985  0  0.09952  0.097927  0  1.040928  0
H  H33  1  0.70639585  0.78592391  0.12920705  1  0.03642  0  0.099534  0.097951  0  1.041072  0
C  C34  1  0.54028137  0.73951792  0.58502788  1  0.941214  0  0.203445  0.212914  0  4.097614  0
C  C35  1  0.95973154  0.41497306  0.26048551  1  0.940801  0  0.203443  0.212946  0  4.097644  0
C  C36  1  0.45972652  0.26047531  0.41497127  1  0.941133  0  0.203391  0.2127  0  4.09812  0
C  C37  1  0.04027663  0.58502456  0.73951797  1  0.940828  0  0.203446  0.212953  0  4.097643  0
C  C38  1  0.53368540  0.82677185  0.63236155  1  -0.049375  0  -1.3e-05  0.041225  0  4.022215  0
C  C39  1  0.96632068  0.36764990  0.17322340  1  -0.049336  0  -1.4e-05  0.041242  0  4.022198  0
C  C40  1  0.46631558  0.17321912  0.36763932  1  -0.04944  0  1e-06  0.041406  0  4.022325  0
C  C41  1  0.03367283  0.63235807  0.82677408  1  -0.049254  0  1.2e-05  0.041333  0  4.022148  0
C  C42  1  0.68138582  0.82769485  0.69410133  1  -0.040006  0  -0.084582  -0.112443  0  3.934425  0
C  C43  1  0.81861354  0.30590629  0.17230640  1  -0.039618  0  -0.084613  -0.112478  0  3.934275  0
C  C44  1  0.31862588  0.17229620  0.30589708  1  -0.039993  0  -0.084594  -0.112587  0  3.934688  0
C  C45  1  0.18137542  0.69409719  0.82769436  1  -0.04005  0  -0.084546  -0.11246  0  3.934486  0
C  C46  1  0.67985477  0.91191795  0.73689054  1  -0.046574  0  -0.093966  -0.081442  0  4.041193  0
C  C47  1  0.82012111  0.26313340  0.08807443  1  -0.046815  0  -0.09388  -0.081408  0  4.040907  0
C  C48  1  0.32015310  0.08806708  0.26311494  1  -0.046488  0  -0.093977  -0.08157  0  4.041109  0
C  C49  1  0.17986036  0.73688195  0.91191869  1  -0.046563  0  -0.094006  -0.081479  0  4.041087  0
C  C50  1  0.52974864  0.99491591  0.72006239  1  -0.027116  0  -0.092345  -0.134595  0  3.97634  0
C  C51  1  0.97023104  0.27996847  0.00507424  1  -0.02721  0  -0.092492  -0.134694  0  3.976161  0
C  C52  1  0.47025776  0.00506910  0.27994467  1  -0.026953  0  -0.092451  -0.134683  0  3.976518  0
C  C53  1  0.02974666  0.72004907  0.99492034  1  -0.026415  0  -0.092482  -0.134714  0  3.976338  0
C  C54  1  0.37735767  0.99444963  0.66041392  1  -0.024572  0  -0.010544  0.058704  0  4.010651  0
C  C55  1  0.12262583  0.33961174  0.00554047  1  -0.023795  0  -0.0103  0.058868  0  4.010597  0
C  C56  1  0.62264152  0.00554275  0.33959195  1  -0.024426  0  -0.010385  0.058809  0  4.010773  0
C  C57  1  0.87734823  0.66040727  0.99445350  1  -0.024601  0  -0.010432  0.05871  0  4.010853  0
C  C58  1  0.38232714  0.91000799  0.61628011  1  0.003838  0  -0.080142  -0.155545  0  3.902739  0
C  C59  1  0.11767428  0.38373535  0.08998432  1  0.003461  0  -0.080294  -0.155731  0  3.903061  0
C  C60  1  0.61768094  0.08998521  0.38372263  1  0.003881  0  -0.080275  -0.155715  0  3.902873  0
C  C61  1  0.88231069  0.61627926  0.91001147  1  0.003987  0  -0.080296  -0.155688  0  3.902993  0
C  C62  1  0.21865518  0.08241568  0.64361398  1  0.017166  0  0.013249  0.120197  0  3.981082  0
C  C63  1  0.28134131  0.35639987  0.91757473  1  0.017744  0  0.01328  0.120475  0  3.980814  0
C  C64  1  0.78135602  0.91757752  0.35638919  1  0.017244  0  0.013248  0.120282  0  3.980996  0
C  C65  1  0.71864022  0.64361103  0.08242053  1  0.016912  0  0.013215  0.120243  0  3.980864  0
C  C66  1  0.13286150  0.10795721  0.55556345  1  -0.020344  0  -0.084176  -0.174837  0  3.929748  0
C  C67  1  0.36713500  0.44445216  0.89202851  1  -0.022441  0  -0.084216  -0.175191  0  3.929505  0
C  C68  1  0.86713623  0.89203891  0.44443837  1  -0.020807  0  -0.084227  -0.174935  0  3.929807  0
C  C69  1  0.63285505  0.55555656  0.10796701  1  -0.021438  0  -0.084174  -0.175001  0  3.929516  0
C  C70  1  0.99886404  0.19674646  0.54016233  1  0.431921  0  0.047827  0.105272  0  3.934656  0
C  C71  1  0.50115440  0.45984912  0.80324061  1  0.432126  0  0.047894  0.105387  0  3.934415  0
C  C72  1  0.00114122  0.80325042  0.45984011  1  0.432425  0  0.047848  0.105312  0  3.93475  0
C  C73  1  0.49884468  0.54015594  0.19675536  1  0.432144  0  0.047888  0.105417  0  3.934443  0
C  C74  1  0.02026675  0.23506847  0.69326826  1  0.505866  0  0.039619  0.086207  0  3.97921  0
C  C75  1  0.47976383  0.30673832  0.76493148  1  0.506103  0  0.039675  0.086441  0  3.978775  0
C  C76  1  0.97975351  0.76492995  0.30673396  1  0.505928  0  0.039533  0.086223  0  3.979219  0
C  C77  1  0.52022985  0.69326516  0.23507029  1  0.506101  0  0.039566  0.086268  0  3.978886  0
C  C78  1  0.15264516  0.14732108  0.71445438  1  -0.047818  0  -0.092876  -0.188882  0  3.976448  0
C  C79  1  0.34736857  0.28555529  0.85267586  1  -0.047353  0  -0.092863  -0.18909  0  3.976559  0
C  C80  1  0.84737513  0.85267289  0.28554926  1  -0.047564  0  -0.092812  -0.188862  0  3.976417  0
C  C81  1  0.65261725  0.71445262  0.14732307  1  -0.047099  0  -0.092774  -0.188806  0  3.976369  0
N  N82  1  0.46458533  0.73932616  0.50074810  1  -0.646085  0  -0.221878  -0.275294  0  3.226486  0
N  N83  1  0.03542161  0.49925397  0.26067597  1  -0.645421  0  -0.221865  -0.275319  0  3.226345  0
N  N84  1  0.53542138  0.26066562  0.49924851  1  -0.646135  0  -0.221921  -0.275311  0  3.226469  0
N  N85  1  0.96458013  0.50074435  0.73932801  1  -0.645634  0  -0.221867  -0.27535  0  3.226476  0
N  N86  1  0.50257978  0.64483505  0.48599823  1  -0.202262  0  -0.124857  -0.071556  0  3.446375  0
N  N87  1  0.99742447  0.51400078  0.35516887  1  -0.202373  0  -0.124772  -0.071442  0  3.44594  0
N  N88  1  0.49743012  0.35515673  0.51400024  1  -0.20141  0  -0.124828  -0.071521  0  3.446236  0
N  N89  1  0.00257623  0.48599606  0.64483543  1  -0.201808  0  -0.124859  -0.071582  0  3.446349  0
N  N90  1  0.59712606  0.59045719  0.55876316  1  -0.197917  0  -0.120322  -0.056204  0  3.476149  0
N  N91  1  0.90288089  0.44122987  0.40954681  1  -0.198463  0  -0.120421  -0.056288  0  3.476191  0
N  N92  1  0.40287566  0.40953601  0.44123658  1  -0.198307  0  -0.120324  -0.05624  0  3.476193  0
N  N93  1  0.09712234  0.55876403  0.59045700  1  -0.19841  0  -0.120332  -0.056114  0  3.476095  0
N  N94  1  0.62394716  0.64783619  0.62175089  1  -0.646431  0  -0.215281  -0.256322  0  3.236768  0
N  N95  1  0.87606543  0.37824297  0.35216670  1  -0.646106  0  -0.215265  -0.256242  0  3.236738  0
N  N96  1  0.37605122  0.35215773  0.37824905  1  -0.646558  0  -0.215197  -0.256157  0  3.236897  0
N  N97  1  0.12393960  0.62175020  0.64783705  1  -0.646551  0  -0.215276  -0.256315  0  3.236809  0
N  N98  1  0.94506515  0.26029733  0.60710079  1  -1.208706  0  -0.326344  -0.21984  0  3.470526  0
N  N99  1  0.55496138  0.39290833  0.73969717  1  -1.208838  0  -0.326464  -0.219886  0  3.470544  0
N  N100  1  0.05493870  0.73970396  0.39290324  1  -1.208886  0  -0.326297  -0.219694  0  3.470676  0
N  N101  1  0.44503556  0.60709445  0.26030296  1  -1.208826  0  -0.326367  -0.219836  0  3.47054  0
