# generated using pymatgen
data_Al2H15C22Cl3O10
_symmetry_space_group_name_H-M   'P 1'
_cell_length_a   6.73533732
_cell_length_b   17.92937655
_cell_length_c   20.78914632
_cell_angle_alpha   72.42231106
_cell_angle_beta   89.99842530
_cell_angle_gamma   89.99948697
_symmetry_Int_Tables_number   1
_chemical_formula_structural   Al2H15C22Cl3O10
_chemical_formula_sum   'Al4 H30 C44 Cl6 O20'
_cell_volume   2393.28592537
_cell_formula_units_Z   2
loop_
 _symmetry_equiv_pos_site_id
 _symmetry_equiv_pos_as_xyz
  1  'x, y, z'
loop_
 _atom_site_type_symbol
 _atom_site_label
 _atom_site_symmetry_multiplicity
 _atom_site_fract_x
 _atom_site_fract_y
 _atom_site_fract_z
 _atom_site_occupancy
 _atom_site_pbe_bader_charge
 _atom_site_pbe_bader_spin_density
 _atom_site_pbe_cm5_charge
 _atom_site_pbe_ddec_charge
 _atom_site_pbe_ddec_spin_density
 _atom_site_pbe_ddec_sum_bond_order
 _atom_site_pbe_magmom
Al  Al0  1  0.09961041  0.50015288  0.49892400  1  2.503335  0  0.408243  1.648265  0  2.570665  0
Al  Al1  1  0.59961051  0.49984863  0.50107861  1  2.503306  0  0.408241  1.648125  0  2.57083  0
Al  Al2  1  0.65899890  0.99987906  0.00094511  1  2.502486  0  0.408469  1.646436  0  2.572791  0
Al  Al3  1  0.15899855  0.00012534  0.99904993  1  2.502225  0  0.408519  1.646377  0  2.57279  0
H  H4  1  0.83061104  0.11200231  0.29725890  1  0.086565  0  0.108845  0.08889  0  0.955662  0
H  H5  1  0.33061198  0.88799869  0.70273773  1  0.086509  0  0.108833  0.088825  0  0.955728  0
H  H6  1  0.19959569  0.24571579  0.20083473  1  0.097418  0  0.092039  0.112781  0  1.016038  0
H  H7  1  0.69958997  0.75428566  0.79914542  1  0.097495  0  0.092073  0.112781  0  1.01619  0
H  H8  1  0.15698131  0.15649346  0.26421628  1  0.067479  0  0.091548  0.108463  0  1.008234  0
H  H9  1  0.65699407  0.84350886  0.73576674  1  0.068291  0  0.09158  0.108491  0  1.008274  0
H  H10  1  0.11004411  0.22047002  0.34464989  1  0.071972  0  0.10262  0.073378  0  0.984477  0
H  H11  1  0.61001616  0.77952852  0.65533658  1  0.072229  0  0.102675  0.073364  0  0.984537  0
H  H12  1  0.65969158  0.28313230  0.15408452  1  0.088881  0  0.105436  0.086738  0  0.964523  0
H  H13  1  0.15970595  0.71687181  0.84592962  1  0.088746  0  0.105454  0.086775  0  0.964487  0
H  H14  1  0.66156895  0.36688796  0.22070481  1  0.064982  0  0.099267  0.119478  0  0.979654  0
H  H15  1  0.16155816  0.63311430  0.77930984  1  0.065122  0  0.099337  0.119505  0  0.979576  0
H  H16  1  0.56750758  0.24485618  0.30176003  1  0.105456  0  0.090531  0.078029  0  1.031781  0
H  H17  1  0.06749087  0.75514347  0.69825344  1  0.105323  0  0.090483  0.077995  0  1.031657  0
H  H18  1  0.91674599  0.38797395  0.20381541  1  0.068918  0  0.096497  0.117091  0  0.99611  0
H  H19  1  0.41673715  0.61202877  0.79618348  1  0.069035  0  0.096553  0.117139  0  0.996051  0
H  H20  1  0.39986882  0.15885550  0.40336782  1  0.005015  0  0.083105  0.11165  0  1.015256  0
H  H21  1  0.51493818  0.07866491  0.38495201  1  0.022839  0  0.079304  0.106312  0  1.030028  0
H  H22  1  0.54101192  0.09065734  0.46639006  1  0.043484  0  0.087799  0.117087  0  0.996302  0
H  H23  1  0.85304912  0.13593662  0.40129160  1  0.012379  0  0.086474  0.074173  0  0.987166  0
H  H24  1  0.72948583  0.21471383  0.41832483  1  0.042173  0  0.092272  0.092903  0  0.990594  0
H  H25  1  0.89983576  0.84112567  0.59664554  1  0.005005  0  0.082972  0.111467  0  1.015165  0
H  H26  1  0.01487177  0.92132378  0.61505649  1  0.02273  0  0.079278  0.106326  0  1.029934  0
H  H27  1  0.04096766  0.90933077  0.53361823  1  0.043707  0  0.087751  0.11701  0  0.996143  0
H  H28  1  0.35301353  0.86406952  0.59870277  1  0.012529  0  0.086522  0.074217  0  0.987151  0
H  H29  1  0.22946819  0.78528359  0.58168025  1  0.04212  0  0.092301  0.092928  0  0.990597  0
H  H30  1  0.35071234  0.40208956  0.50093495  1  0.622419  0  0.359741  0.440553  0  0.837952  0
H  H31  1  0.85070614  0.59791066  0.49907207  1  0.62247  0  0.35983  0.44071  0  0.837867  0
H  H32  1  0.40784343  0.09745031  0.00045203  1  0.635725  0  0.361076  0.443668  0  0.833345  0
H  H33  1  0.90784105  0.90255387  0.99954591  1  0.635828  0  0.361075  0.443599  0  0.833401  0
C  C34  1  0.34716772  0.57810800  0.57617207  1  1.681133  0  0.281575  0.731841  0  4.141771  0
C  C35  1  0.84718059  0.42188130  0.42383761  1  1.680744  0  0.28159  0.731944  0  4.142009  0
C  C36  1  0.35167833  0.60688648  0.39622671  1  1.673162  0  0.275514  0.703475  0  4.176649  0
C  C37  1  0.85168216  0.39311361  0.60377075  1  1.673511  0  0.275536  0.703515  0  4.176753  0
C  C38  1  0.85791431  0.33210652  0.66753775  1  0.171102  0  -0.004003  -0.146849  0  3.846447  0
C  C39  1  0.35791473  0.66788937  0.33245720  1  0.171181  0  -0.003989  -0.146808  0  3.846551  0
C  C40  1  0.87217464  0.27969216  0.72096092  1  -0.292503  0  -0.005036  0.033379  0  4.236347  0
C  C41  1  0.37218008  0.72030438  0.27903691  1  -0.292489  0  -0.005084  0.033303  0  4.236268  0
C  C42  1  0.88723652  0.22173621  0.77986090  1  -0.28439  0  -0.005948  0.029914  0  4.234766  0
C  C43  1  0.38723547  0.77826625  0.22013573  1  -0.283929  0  -0.005882  0.02996  0  4.234479  0
C  C44  1  0.90119991  0.16911524  0.83315217  1  0.222392  0  0.00096  -0.138472  0  3.83889  0
C  C45  1  0.40117714  0.83089488  0.16684476  1  0.221859  0  0.000917  -0.138525  0  3.838747  0
C  C46  1  0.75576915  0.16626311  0.26852612  1  0.079679  0  -0.035174  0.032363  0  3.731155  0
C  C47  1  0.25577021  0.83373945  0.73147666  1  0.079582  0  -0.035051  0.032558  0  3.731262  0
C  C48  1  0.09653337  0.21514125  0.24081438  1  -0.034858  0  -0.168102  -0.262043  0  3.874811  0
C  C49  1  0.59653344  0.78486049  0.75917268  1  -0.035036  0  -0.168225  -0.262121  0  3.874981  0
C  C50  1  0.07611591  0.25864926  0.29381228  1  0.09685  0  -0.037138  0.06881  0  3.739599  0
C  C51  1  0.57610217  0.74135250  0.70617495  1  0.096833  0  -0.037151  0.068939  0  3.739443  0
C  C52  1  0.84427602  0.37656734  0.37720136  1  0.204836  0  -0.041103  -0.207203  0  3.946688  0
C  C53  1  0.34425076  0.62342094  0.62281138  1  0.205133  0  -0.041242  -0.207245  0  3.946819  0
C  C54  1  0.89408213  0.20762833  0.20854929  1  0.138882  0  -0.003571  0.102258  0  3.908763  0
C  C55  1  0.39408480  0.79237616  0.79144626  1  0.138232  0  -0.003588  0.102151  0  3.909222  0
C  C56  1  0.71571816  0.21872485  0.31397152  1  -0.010234  0  -0.084581  -0.071206  0  3.768911  0
C  C57  1  0.21570345  0.78127668  0.68603312  1  -0.010249  0  -0.084484  -0.071223  0  3.768626  0
C  C58  1  0.86184314  0.29027943  0.29318540  1  0.130209  0  0.002151  0.112595  0  3.873015  0
C  C59  1  0.36182367  0.70972024  0.70681651  1  0.13013  0  0.002174  0.112853  0  3.872368  0
C  C60  1  0.80832655  0.34044213  0.22052349  1  -0.005338  0  -0.159091  -0.247768  0  3.836579  0
C  C61  1  0.30831816  0.65956122  0.77948135  1  -0.00544  0  -0.159199  -0.247863  0  3.836395  0
C  C62  1  0.80917692  0.28999367  0.17232593  1  0.104815  0  -0.038245  0.069963  0  3.741426  0
C  C63  1  0.30918113  0.71001057  0.82767789  1  0.105041  0  -0.038253  0.069956  0  3.741405  0
C  C64  1  0.84557869  0.33723286  0.33882179  1  -0.479663  0  -0.018398  -0.016578  0  4.035901  0
C  C65  1  0.34555820  0.66276233  0.66118533  1  -0.48036  0  -0.01828  -0.016643  0  4.036019  0
C  C66  1  0.91084992  0.16134604  0.16231078  1  -0.317332  0  -0.028859  -0.027932  0  4.052243  0
C  C67  1  0.41085802  0.83865820  0.83768362  1  -0.317042  0  -0.028915  -0.028136  0  4.052176  0
C  C68  1  0.91351554  0.12195456  0.12404092  1  0.061054  0  -0.039748  -0.19622  0  3.946218  0
C  C69  1  0.41353733  0.87804513  0.87595703  1  0.060869  0  -0.039617  -0.195896  0  3.94601  0
C  C70  1  0.40720716  0.89239006  0.10326328  1  1.704542  0  0.277759  0.705123  0  4.175895  0
C  C71  1  0.90722571  0.10761692  0.89673464  1  1.704915  0  0.277799  0.70517  0  4.175778  0
C  C72  1  0.41119790  0.92281830  0.92306328  1  1.687943  0  0.282499  0.733223  0  4.135274  0
C  C73  1  0.91117073  0.07718538  0.07693112  1  1.68726  0  0.282584  0.73347  0  4.135127  0
C  C74  1  0.71869370  0.17271583  0.38931622  1  -0.028393  0  -0.166139  -0.123801  0  3.945595  0
C  C75  1  0.53383241  0.12202337  0.41217358  1  -0.056607  0  -0.246388  -0.349817  0  3.965234  0
C  C76  1  0.21866377  0.82728026  0.61068795  1  -0.028432  0  -0.166207  -0.123904  0  3.945575  0
C  C77  1  0.03379153  0.87796698  0.58783475  1  -0.056669  0  -0.246252  -0.349596  0  3.964571  0
Cl  Cl78  1  0.53030913  0.13376576  0.23956382  1  -0.252408  0  -0.01808  -0.113097  0  1.478697  0
Cl  Cl79  1  0.03030997  0.86624071  0.76044637  1  -0.252385  0  -0.018169  -0.113161  0  1.478598  0
Cl  Cl80  1  0.25595970  0.33652993  0.27987798  1  -0.263307  0  -0.023365  -0.117587  0  1.422957  0
Cl  Cl81  1  0.75594340  0.66347225  0.72010269  1  -0.26347  0  -0.0234  -0.117653  0  1.422963  0
Cl  Cl82  1  0.95007536  0.33686180  0.09757019  1  -0.253303  0  -0.054942  -0.133162  0  1.325248  0
Cl  Cl83  1  0.45010080  0.66314645  0.90242183  1  -0.253428  0  -0.054943  -0.133161  0  1.325375  0
O  O84  1  0.51990508  0.58357236  0.42259648  1  -1.231041  0  -0.224765  -0.576734  0  2.289434  0
O  O85  1  0.01991031  0.41642941  0.57740128  1  -1.231075  0  -0.224826  -0.576828  0  2.289449  0
O  O86  1  0.17921133  0.56126176  0.55610384  1  -1.239743  0  -0.228008  -0.587511  0  2.285311  0
O  O87  1  0.67922508  0.43873013  0.44390825  1  -1.239596  0  -0.227993  -0.58756  0  2.285582  0
O  O88  1  0.18070318  0.58347127  0.41998629  1  -1.227641  0  -0.225531  -0.576834  0  2.279424  0
O  O89  1  0.68071749  0.41652899  0.58001917  1  -1.227901  0  -0.225491  -0.576773  0  2.279567  0
O  O90  1  0.01757012  0.43974793  0.44135130  1  -1.232143  0  -0.225864  -0.583805  0  2.275021  0
O  O91  1  0.51755805  0.56024827  0.55865308  1  -1.232028  0  -0.225766  -0.58366  0  2.275084  0
O  O92  1  0.34961587  0.45400464  0.50608793  1  -1.422383  0  -0.446543  -0.996516  0  2.183799  0
O  O93  1  0.84961267  0.54599750  0.49391506  1  -1.422469  0  -0.446624  -0.996737  0  2.183885  0
O  O94  1  0.24097533  0.94040180  0.94094073  1  -1.237068  0  -0.22515  -0.58232  0  2.27266  0
O  O95  1  0.74096046  0.05959634  0.05906374  1  -1.236353  0  -0.225015  -0.582308  0  2.273207  0
O  O96  1  0.57807392  0.91594734  0.07960366  1  -1.225885  0  -0.224089  -0.575649  0  2.278512  0
O  O97  1  0.07810684  0.08405558  0.92038505  1  -1.225509  0  -0.224106  -0.575674  0  2.278432  0
O  O98  1  0.57925526  0.93974327  0.94297381  1  -1.237753  0  -0.2262  -0.585047  0  2.283  0
O  O99  1  0.07924461  0.06027121  0.05700873  1  -1.23747  0  -0.226333  -0.585134  0  2.282484  0
O  O100  1  0.73882198  0.08411589  0.92276161  1  -1.232256  0  -0.224082  -0.575227  0  2.28907  0
O  O101  1  0.23878737  0.91589211  0.07724176  1  -1.231455  0  -0.224065  -0.575135  0  2.28911  0
O  O102  1  0.40896794  0.04595784  0.99435490  1  -1.434473  0  -0.445761  -0.997627  0  2.1799  0
O  O103  1  0.90896735  0.95404561  0.00564355  1  -1.434569  0  -0.445749  -0.997547  0  2.179951  0
