# generated using pymatgen
data_FeHg2H28C34(S3N7)2
_symmetry_space_group_name_H-M   'P 1'
_cell_length_a   8.39086630
_cell_length_b   9.32478884
_cell_length_c   15.03584517
_cell_angle_alpha   101.29069771
_cell_angle_beta   101.82665503
_cell_angle_gamma   91.86347329
_symmetry_Int_Tables_number   1
_chemical_formula_structural   FeHg2H28C34(S3N7)2
_chemical_formula_sum   'Fe1 Hg2 H28 C34 S6 N14'
_cell_volume   1125.95302277
_cell_formula_units_Z   1
loop_
 _symmetry_equiv_pos_site_id
 _symmetry_equiv_pos_as_xyz
  1  'x, y, z'
loop_
 _atom_site_type_symbol
 _atom_site_label
 _atom_site_symmetry_multiplicity
 _atom_site_fract_x
 _atom_site_fract_y
 _atom_site_fract_z
 _atom_site_occupancy
 _atom_site_hle17_bader_spin_density
 _atom_site_hle17_ddec_charge
 _atom_site_hle17_ddec_spin_density
 _atom_site_hle17_ddec_sum_bond_order
 _atom_site_hle17_magmom
 _atom_site_hse06_10hf_bader_spin_density
 _atom_site_hse06_10hf_ddec_charge
 _atom_site_hse06_10hf_ddec_spin_density
 _atom_site_hse06_10hf_ddec_sum_bond_order
 _atom_site_hse06_10hf_magmom
 _atom_site_hse06_bader_spin_density
 _atom_site_hse06_ddec_charge
 _atom_site_hse06_ddec_spin_density
 _atom_site_hse06_ddec_sum_bond_order
 _atom_site_hse06_magmom
 _atom_site_pbe_bader_spin_density
 _atom_site_pbe_cm5_charge
 _atom_site_pbe_ddec_charge
 _atom_site_pbe_ddec_spin_density
 _atom_site_pbe_ddec_sum_bond_order
 _atom_site_pbe_magmom
Fe  Fe0  1  0.00745346  0.49689901  0.51242626  1  0  0.672044  0  3.192171  0  0  0.645075  0  3.697564  0  0  0.691016  0  3.629632  0  0  0.819054  0.62258  0  3.734243  0
Hg  Hg1  1  0.58424218  0.92122365  0.60773024  1  0  0.496169  0  2.238727  0  0  0.357554  0  2.736683  0  0  0.394178  0  2.715392  0  0  0.44393  0.3323  0  2.750775  0
Hg  Hg2  1  0.41781295  0.08074420  0.39261725  1  0  0.495931  0  2.242113  0  0  0.357277  0  2.740542  0  0  0.393702  0  2.719132  0  0  0.445325  0.332173  0  2.754736  0
H  H3  1  0.20379021  0.68998684  0.68463294  1  0  0.094544  0  0.959951  0  0  0.100018  0  1.025437  0  0  0.099871  0  1.025953  0  0  0.120305  0.099895  0  1.025574  0
H  H4  1  0.79773573  0.30787083  0.30930521  1  0  0.086604  0  0.95821  0  0  0.093702  0  1.02244  0  0  0.093496  0  1.023685  0  0  0.115513  0.093968  0  1.021701  0
H  H5  1  0.34260766  0.66330306  0.84129105  1  0  0.119361  0  0.948092  0  0  0.12293  0  1.014818  0  0  0.126249  0  1.012769  0  0  0.112447  0.120534  0  1.016542  0
H  H6  1  0.65616584  0.33694338  0.15237098  1  0  0.115079  0  0.950337  0  0  0.120382  0  1.015767  0  0  0.123633  0  1.013814  0  0  0.11101  0.118266  0  1.01712  0
H  H7  1  0.99491041  0.26250318  0.61937532  1  0  0.083568  0  0.977894  0  0  0.090979  0  1.044425  0  0  0.091187  0  1.04395  0  0  0.110511  0.090609  0  1.045231  0
H  H8  1  0.99826775  0.73692569  0.37894231  1  0  0.076396  0  0.973429  0  0  0.085047  0  1.03956  0  0  0.085096  0  1.040094  0  0  0.105877  0.085073  0  1.039329  0
H  H9  1  0.12048494  0.21892201  0.77367614  1  0  0.109389  0  0.95576  0  0  0.11961  0  1.01556  0  0  0.120892  0  1.017114  0  0  0.10759  0.118682  0  1.014648  0
H  H10  1  0.87292572  0.78341691  0.22382254  1  0  0.106419  0  0.962183  0  0  0.117263  0  1.021822  0  0  0.118489  0  1.023352  0  0  0.105398  0.116574  0  1.020683  0
H  H11  1  0.89701401  0.89493464  0.77081426  1  0  0.076016  0  0.944283  0  0  0.083058  0  1.010536  0  0  0.085391  0  1.008545  0  0  0.109788  0.08137  0  1.011952  0
H  H12  1  0.10427859  0.10669572  0.23028404  1  0  0.076469  0  0.945731  0  0  0.083065  0  1.012719  0  0  0.085446  0  1.010685  0  0  0.109444  0.081341  0  1.014173  0
H  H13  1  0.00978186  0.73672987  0.88114239  1  0  0.116073  0  0.944757  0  0  0.124373  0  1.005219  0  0  0.128217  0  1.003024  0  0  0.11503  0.12166  0  1.006882  0
H  H14  1  0.99219995  0.26375256  0.11894621  1  0  0.11665  0  0.944099  0  0  0.124044  0  1.005563  0  0  0.127842  0  1.003409  0  0  0.114785  0.121373  0  1.007184  0
H  H15  1  0.59177743  0.42740581  0.75255606  1  0  0.104974  0  0.965326  0  0  0.112757  0  1.032682  0  0  0.115511  0  1.032733  0  0  0.102759  0.110833  0  1.032735  0
H  H16  1  0.40907589  0.57418874  0.24781322  1  0  0.105633  0  0.965718  0  0  0.113109  0  1.033308  0  0  0.11596  0  1.033136  0  0  0.102597  0.111029  0  1.033649  0
H  H17  1  0.49584568  0.59805142  0.64936016  1  0  0.071909  0  0.967347  0  0  0.078748  0  1.037771  0  0  0.080131  0  1.037091  0  0  0.107153  0.077567  0  1.038436  0
H  H18  1  0.50497934  0.40412824  0.35157547  1  0  0.074243  0  0.958538  0  0  0.080708  0  1.028946  0  0  0.082188  0  1.028209  0  0  0.108037  0.079457  0  1.029676  0
H  H19  1  0.33265802  0.17649556  0.89570255  1  0  0.129904  0  0.962269  0  0  0.152515  0  1.02026  0  0  0.152882  0  1.021187  0  0  0.095586  0.152015  0  1.019775  0
H  H20  1  0.66467161  0.82522747  0.10077833  1  0  0.131439  0  0.960766  0  0  0.153974  0  1.018368  0  0  0.154492  0  1.019148  0  0  0.096346  0.153298  0  1.018048  0
H  H21  1  0.17221793  0.25976826  0.94135379  1  0  0.124817  0  0.95099  0  0  0.145415  0  1.011653  0  0  0.146984  0  1.011216  0  0  0.096451  0.144055  0  1.012184  0
H  H22  1  0.82592643  0.74266826  0.05581722  1  0  0.125199  0  0.949825  0  0  0.145602  0  1.01065  0  0  0.147335  0  1.010006  0  0  0.096277  0.144048  0  1.011423  0
H  H23  1  0.37327302  0.27706846  0.01274035  1  0  0.133161  0  0.955294  0  0  0.148152  0  1.018975  0  0  0.151522  0  1.01652  0  0  0.097982  0.145506  0  1.020967  0
H  H24  1  0.62536195  0.72516267  0.98364489  1  0  0.132073  0  0.956861  0  0  0.147528  0  1.020259  0  0  0.15057  0  1.018122  0  0  0.097875  0.145287  0  1.021851  0
H  H25  1  0.86217526  0.26285455  0.92714710  1  0  0.132656  0  0.952633  0  0  0.14954  0  1.013197  0  0  0.152739  0  1.010458  0  0  0.100785  0.147199  0  1.0152  0
H  H26  1  0.13792855  0.73750880  0.07267758  1  0  0.13166  0  0.953567  0  0  0.148339  0  1.014477  0  0  0.15142  0  1.01186  0  0  0.100305  0.146157  0  1.016313  0
H  H27  1  0.80204557  0.26444889  0.80540290  1  0  0.116335  0  0.949918  0  0  0.136942  0  1.013711  0  0  0.137751  0  1.013914  0  0  0.091855  0.136271  0  1.013644  0
H  H28  1  0.19732076  0.73630866  0.19447382  1  0  0.117408  0  0.948589  0  0  0.137589  0  1.012417  0  0  0.138567  0  1.012576  0  0  0.091996  0.136683  0  1.012511  0
H  H29  1  0.66716815  0.31774042  0.87970846  1  0  0.132183  0  0.943841  0  0  0.153394  0  1.003564  0  0  0.15413  0  1.004469  0  0  0.09983  0.15296  0  1.00284  0
H  H30  1  0.33321424  0.68367667  0.12068135  1  0  0.131318  0  0.944213  0  0  0.152407  0  1.004227  0  0  0.153195  0  1.005082  0  0  0.099436  0.15193  0  1.003535  0
C  C31  1  0.32619798  0.63564983  0.48469032  1  0  0.250506  0  3.926534  0  0  0.238645  0  4.234894  0  0  0.25963  0  4.246784  0  0  0.148129  0.225006  0  4.226361  0
C  C32  1  0.67686700  0.36158936  0.52502092  1  0  0.248175  0  3.923918  0  0  0.236536  0  4.231997  0  0  0.257574  0  4.244024  0  0  0.147869  0.222838  0  4.223266  0
C  C33  1  0.91909802  0.81608748  0.56329117  1  0  0.270919  0  3.896673  0  0  0.256106  0  4.204768  0  0  0.277234  0  4.216677  0  0  0.154834  0.242236  0  4.196455  0
C  C34  1  0.08626432  0.17945550  0.44389615  1  0  0.26987  0  3.899026  0  0  0.25594  0  4.205833  0  0  0.276959  0  4.218005  0  0  0.153077  0.242194  0  4.197201  0
C  C35  1  0.19147793  0.58639839  0.70625175  1  0  0.1153  0  3.659776  0  0  0.085174  0  3.917114  0  0  0.094559  0  3.935918  0  0  0.046403  0.0781  0  3.905803  0
C  C36  1  0.80820172  0.41243016  0.28831656  1  0  0.112148  0  3.711484  0  0  0.086999  0  3.969819  0  0  0.092712  0  3.991425  0  0  0.047487  0.082731  0  3.955326  0
C  C37  1  0.26817261  0.57057109  0.79414578  1  0  -0.132827  0  3.703868  0  0  -0.153734  0  3.961321  0  0  -0.161236  0  3.981134  0  0  -0.07319  -0.148962  0  3.948902  0
C  C38  1  0.73025539  0.42891992  0.20045045  1  0  -0.134685  0  3.704977  0  0  -0.155968  0  3.958299  0  0  -0.162542  0  3.980397  0  0  -0.074846  -0.151577  0  3.943237  0
C  C39  1  0.25019012  0.43614849  0.82155005  1  0  0.047797  0  3.739815  0  0  0.054341  0  3.979941  0  0  0.059138  0  4.000224  0  0  0.004793  0.050494  0  3.967144  0
C  C40  1  0.74739279  0.56474129  0.17464524  1  0  0.041508  0  3.742827  0  0  0.051584  0  3.979615  0  0  0.052113  0  4.003256  0  0  0.006655  0.051754  0  3.963573  0
C  C41  1  0.07209032  0.34873317  0.67062312  1  0  0.1185  0  3.662111  0  0  0.087961  0  3.915596  0  0  0.097987  0  3.933894  0  0  0.042835  0.079797  0  3.905668  0
C  C42  1  0.92289020  0.65081465  0.32619713  1  0  0.117378  0  3.717474  0  0  0.091548  0  3.971651  0  0  0.097429  0  3.993358  0  0  0.044731  0.087181  0  3.957179  0
C  C43  1  0.14436502  0.32561453  0.75779433  1  0  -0.147994  0  3.714722  0  0  -0.165616  0  3.964522  0  0  -0.174234  0  3.986737  0  0  -0.085649  -0.160047  0  3.95065  0
C  C44  1  0.85104098  0.67599742  0.23911048  1  0  -0.151846  0  3.717938  0  0  -0.167894  0  3.961483  0  0  -0.175633  0  3.986513  0  0  -0.086655  -0.162808  0  3.944531  0
C  C45  1  0.34149754  0.41112460  0.91135330  1  0  0.272125  0  3.647388  0  0  0.272824  0  3.911644  0  0  0.281521  0  3.925028  0  0  0.148669  0.266188  0  3.903638  0
C  C46  1  0.65625672  0.59067117  0.08469670  1  0  0.279111  0  3.6433  0  0  0.278575  0  3.906176  0  0  0.28934  0  3.919732  0  0  0.150139  0.2699  0  3.897989  0
C  C47  1  0.83122709  0.79210387  0.77096232  1  0  0.1195  0  3.712492  0  0  0.092135  0  3.957111  0  0  0.097908  0  3.977227  0  0  0.043873  0.088328  0  3.94345  0
C  C48  1  0.17003421  0.20935412  0.22982753  1  0  0.120059  0  3.710549  0  0  0.092981  0  3.954298  0  0  0.098645  0  3.974452  0  0  0.043819  0.089249  0  3.940665  0
C  C49  1  0.89431949  0.70360295  0.83164577  1  0  -0.122017  0  3.692044  0  0  -0.142638  0  3.937946  0  0  -0.148572  0  3.958348  0  0  -0.070297  -0.138713  0  3.924097  0
C  C50  1  0.10733711  0.29725076  0.16868389  1  0  -0.122644  0  3.691209  0  0  -0.143019  0  3.937037  0  0  -0.14885  0  3.95749  0  0  -0.069553  -0.139287  0  3.923296  0
C  C51  1  0.80817537  0.56988962  0.82811787  1  0  0.054553  0  3.730299  0  0  0.067009  0  3.961167  0  0  0.06967  0  3.982984  0  0  0.015519  0.065542  0  3.946042  0
C  C52  1  0.19326478  0.43101889  0.17211373  1  0  0.054807  0  3.728658  0  0  0.067387  0  3.958754  0  0  0.069829  0  3.980287  0  0  0.014957  0.066045  0  3.944042  0
C  C53  1  0.66351072  0.53025561  0.76031302  1  0  -0.135022  0  3.687914  0  0  -0.153301  0  3.932956  0  0  -0.160395  0  3.954374  0  0  -0.077952  -0.148685  0  3.91853  0
C  C54  1  0.33759231  0.47124154  0.24014579  1  0  -0.134763  0  3.687989  0  0  -0.153299  0  3.933179  0  0  -0.160097  0  3.954289  0  0  -0.077674  -0.148999  0  3.91925  0
C  C55  1  0.60822695  0.62592992  0.70242710  1  0  0.127918  0  3.710049  0  0  0.098028  0  3.958824  0  0  0.104963  0  3.978504  0  0  0.045035  0.093453  0  3.945654  0
C  C56  1  0.39274273  0.37601525  0.29838010  1  0  0.127817  0  3.711687  0  0  0.097501  0  3.961233  0  0  0.104358  0  3.980746  0  0  0.044991  0.092914  0  3.948323  0
C  C57  1  0.86664899  0.47643793  0.89494693  1  0  0.27414  0  3.645176  0  0  0.276531  0  3.90371  0  0  0.284468  0  3.919668  0  0  0.155432  0.271268  0  3.892421  0
C  C58  1  0.13448903  0.52405934  0.10509135  1  0  0.278048  0  3.641452  0  0  0.280617  0  3.899102  0  0  0.289461  0  3.914144  0  0  0.156969  0.274505  0  3.888673  0
C  C59  1  0.30326173  0.27349189  0.94246689  1  0  -0.391071  0  3.708589  0  0  -0.469922  0  3.938606  0  0  -0.472899  0  3.944704  0  0  -0.246576  -0.467375  0  3.934918  0
C  C60  1  0.69471601  0.72855058  0.05402724  1  0  -0.391644  0  3.711034  0  0  -0.470691  0  3.940777  0  0  -0.473902  0  3.946653  0  0  -0.246383  -0.467895  0  3.937233  0
C  C61  1  0.79681963  0.32094850  0.87603031  1  0  -0.385668  0  3.717872  0  0  -0.467856  0  3.950923  0  0  -0.470178  0  3.957036  0  0  -0.240647  -0.465945  0  3.9465  0
C  C62  1  0.20337769  0.67982541  0.12397685  1  0  -0.384396  0  3.716743  0  0  -0.46631  0  3.949852  0  0  -0.468848  0  3.955724  0  0  -0.239994  -0.464218  0  3.945619  0
C  C63  1  0.32732496  0.99121421  0.74249216  1  0  0.225232  0  3.944806  0  0  0.217145  0  4.250355  0  0  0.232795  0  4.264528  0  0  0.124239  0.206349  0  4.240648  0
C  C64  1  0.67181870  0.00589353  0.25753392  1  0  0.224947  0  3.952636  0  0  0.216911  0  4.25881  0  0  0.232403  0  4.272873  0  0  0.125539  0.206274  0  4.249314  0
S  S65  1  0.48882193  0.71042130  0.46169357  1  0  -0.234946  0  2.307323  0  0  -0.202421  0  2.666558  0  0  -0.21812  0  2.659389  0  0  -0.112396  -0.191209  0  2.671195  0
S  S66  1  0.50492495  0.28982474  0.53914408  1  0  -0.226323  0  2.326388  0  0  -0.193118  0  2.688862  0  0  -0.209072  0  2.681839  0  0  -0.107  -0.181376  0  2.693161  0
S  S67  1  0.86967854  0.98679833  0.58220280  1  0  -0.244921  0  2.278344  0  0  -0.217365  0  2.634308  0  0  -0.233145  0  2.626377  0  0  -0.109623  -0.205857  0  2.639321  0
S  S68  1  0.13063421  0.00883638  0.41422580  1  0  -0.245782  0  2.276138  0  0  -0.220307  0  2.63091  0  0  -0.235897  0  2.62311  0  0  -0.110557  -0.209105  0  2.635882  0
S  S69  1  0.41155962  0.09482630  0.68347174  1  0  -0.239246  0  2.390994  0  0  -0.204231  0  2.759434  0  0  -0.218991  0  2.754785  0  0  -0.118512  -0.194205  0  2.762587  0
S  S70  1  0.58530252  0.90316093  0.31610257  1  0  -0.234142  0  2.3903  0  0  -0.199145  0  2.758105  0  0  -0.213461  0  2.753325  0  0  -0.117009  -0.189656  0  2.761499  0
N  N71  1  0.21049647  0.57639925  0.49872989  1  0  -0.395425  0  3.186383  0  0  -0.376098  0  3.495264  0  0  -0.394102  0  3.498201  0  0  -0.379422  -0.36527  0  3.491594  0
N  N72  1  0.79926487  0.41943250  0.51802792  1  0  -0.393487  0  3.191229  0  0  -0.374256  0  3.500319  0  0  -0.391991  0  3.502902  0  0  -0.382053  -0.363577  0  3.496794  0
N  N73  1  0.95209144  0.69310916  0.54921325  1  0  -0.389258  0  3.154413  0  0  -0.365351  0  3.457536  0  0  -0.383719  0  3.460686  0  0  -0.373279  -0.354397  0  3.453998  0
N  N74  1  0.05706363  0.30236291  0.46599695  1  0  -0.390918  0  3.157952  0  0  -0.367003  0  3.461017  0  0  -0.385572  0  3.464054  0  0  -0.375357  -0.355836  0  3.457452  0
N  N75  1  0.09773084  0.47583567  0.64331408  1  0  -0.205344  0  3.304249  0  0  -0.156267  0  3.577531  0  0  -0.186073  0  3.599737  0  0  -0.310366  -0.137122  0  3.562155  0
N  N76  1  0.89979440  0.52259435  0.35079778  1  0  -0.241992  0  3.16  0  0  -0.198767  0  3.4279  0  0  -0.222654  0  3.44938  0  0  -0.279455  -0.181254  0  3.412502  0
N  N77  1  0.68907526  0.75500065  0.70832549  1  0  -0.276108  0  3.2597  0  0  -0.195667  0  3.513868  0  0  -0.215835  0  3.53774  0  0  -0.310545  -0.182043  0  3.497518  0
N  N78  1  0.31186118  0.24706567  0.29270682  1  0  -0.27673  0  3.262741  0  0  -0.195958  0  3.517091  0  0  -0.216073  0  3.540963  0  0  -0.310709  -0.182406  0  3.500817  0
N  N79  1  0.45539624  0.51394079  0.95663489  1  0  -0.245899  0  3.0288  0  0  -0.220527  0  3.30937  0  0  -0.229334  0  3.32607  0  0  -0.209634  -0.215088  0  3.298838  0
N  N80  1  0.54231563  0.48819390  0.03926956  1  0  -0.251742  0  3.033967  0  0  -0.22471  0  3.314562  0  0  -0.235932  0  3.331486  0  0  -0.20983  -0.216867  0  3.303833  0
N  N81  1  0.97502893  0.54247758  0.96804841  1  0  -0.243514  0  3.050236  0  0  -0.217645  0  3.331196  0  0  -0.228006  0  3.349539  0  0  -0.20402  -0.210345  0  3.31839  0
N  N82  1  0.02637163  0.45766985  0.03193671  1  0  -0.246171  0  3.048567  0  0  -0.220587  0  3.329688  0  0  -0.231393  0  3.347775  0  0  -0.204638  -0.212934  0  3.317116  0
N  N83  1  0.26188530  0.92709239  0.78698078  1  0  -0.434358  0  2.586016  0  0  -0.410965  0  2.802479  0  0  -0.421161  0  2.812018  0  0  -0.341145  -0.403819  0  2.796073  0
N  N84  1  0.73819376  0.06939031  0.21314316  1  0  -0.435097  0  2.594276  0  0  -0.41294  0  2.811124  0  0  -0.422862  0  2.820641  0  0  -0.342306  -0.406163  0  2.804778  0
