# generated using pymatgen
data_Zr3H13C25Br5O16
_symmetry_space_group_name_H-M   'P 1'
_cell_length_a   14.83508383
_cell_length_b   14.79664636
_cell_length_c   14.82442573
_cell_angle_alpha   59.18917183
_cell_angle_beta   59.85839346
_cell_angle_gamma   60.06533740
_symmetry_Int_Tables_number   1
_chemical_formula_structural   Zr3H13C25Br5O16
_chemical_formula_sum   'Zr6 H26 C50 Br10 O32'
_cell_volume   2285.24935675
_cell_formula_units_Z   2
loop_
 _symmetry_equiv_pos_site_id
 _symmetry_equiv_pos_as_xyz
  1  'x, y, z'
loop_
 _atom_site_type_symbol
 _atom_site_label
 _atom_site_symmetry_multiplicity
 _atom_site_fract_x
 _atom_site_fract_y
 _atom_site_fract_z
 _atom_site_occupancy
 _atom_site_pbe_bader_charge
 _atom_site_pbe_bader_spin_density
 _atom_site_pbe_cm5_charge
 _atom_site_pbe_ddec_charge
 _atom_site_pbe_ddec_spin_density
 _atom_site_pbe_ddec_sum_bond_order
 _atom_site_pbe_magmom
Zr  Zr0  1  0.88256218  0.87866075  0.61499211  1  2.635071  0  1.628505  2.377964  0  2.759274  0
Zr  Zr1  1  0.12477317  0.11669321  0.37695773  1  2.639267  0  1.62506  2.377255  0  2.752532  0
Zr  Zr2  1  0.12071340  0.87421980  0.61963026  1  2.634092  0  1.622848  2.377592  0  2.733158  0
Zr  Zr3  1  0.88643745  0.12053650  0.37321944  1  2.634204  0  1.625796  2.376814  0  2.743388  0
Zr  Zr4  1  0.12224053  0.87917170  0.37773478  1  2.636364  0  1.62911  2.37977  0  2.763542  0
Zr  Zr5  1  0.88538000  0.11602222  0.61458195  1  2.636462  0  1.628541  2.378919  0  2.764956  0
H  H6  1  0.09365409  0.71376825  0.59371859  1  0.615155  0  0.33128  0.423595  0  0.856186  0
H  H7  1  0.09994103  0.09521346  0.21245005  1  0.624765  0  0.332047  0.42524  0  0.853893  0
H  H8  1  0.09793199  0.08836466  0.59247631  1  0.615368  0  0.331949  0.425464  0  0.853287  0
H  H9  1  0.72252540  0.09381918  0.58689359  1  0.62819  0  0.33148  0.424041  0  0.854355  0
H  H10  1  0.13696418  0.59858294  0.35457898  1  0.108351  0  0.10449  0.121415  0  1.032855  0
H  H11  1  0.85859106  0.40968634  0.62387414  1  0.159518  0  0.104134  0.121469  0  1.033344  0
H  H12  1  0.60660949  0.12788962  0.90608863  1  0.12516  0  0.103642  0.12143  0  1.034243  0
H  H13  1  0.41167487  0.85549043  0.09764820  1  0.140898  0  0.104473  0.122026  0  1.032724  0
H  H14  1  0.85680957  0.12557956  0.09810727  1  0.140126  0  0.107828  0.125767  0  1.020674  0
H  H15  1  0.13490459  0.85391228  0.91005672  1  0.125998  0  0.11003  0.128549  0  1.013814  0
H  H16  1  0.60193111  0.41117876  0.35295051  1  0.118581  0  0.109901  0.127987  0  1.014063  0
H  H17  1  0.41915436  0.59776747  0.62611856  1  0.135745  0  0.107851  0.125682  0  1.020551  0
H  H18  1  0.07930983  0.32320901  0.98134907  1  0.009918  0  0.089465  0.083926  0  0.979785  0
H  H19  1  0.16866252  0.35046815  0.00385846  1  0.055386  0  0.090977  0.090577  0  0.993706  0
H  H20  1  0.16579725  0.50899450  0.84340437  1  0.004099  0  0.093255  0.093859  0  0.982517  0
H  H21  1  0.07456267  0.48185876  0.82348554  1  0.004197  0  0.08994  0.084966  0  0.979296  0
H  H22  1  0.09104351  0.62435802  0.96007576  1  0.02432  0  0.093246  0.096235  0  0.984221  0
H  H23  1  0.94758936  0.68256277  0.01941242  1  0.018346  0  0.090438  0.087247  0  0.975497  0
H  H24  1  0.08981704  0.46625654  0.12233674  1  0.033306  0  0.086421  0.085635  0  1.016645  0
H  H25  1  0.94588396  0.52405698  0.17886528  1  0.016418  0  0.090493  0.087839  0  0.974066  0
H  H26  1  0.87282179  0.40430268  0.06379530  1  0.031151  0  0.090915  0.091805  0  0.984974  0
H  H27  1  0.81672940  0.48368188  0.14731885  1  0.02008  0  0.09019  0.090913  0  0.978038  0
H  H28  1  0.81519905  0.64583736  0.99001899  1  0.021477  0  0.085528  0.084168  0  0.996614  0
H  H29  1  0.86658050  0.56676012  0.90777203  1  0.037321  0  0.085882  0.084945  0  1.008351  0
H  H30  1  0.60361771  0.85655505  0.62917988  1  0.144579  0  0.10391  0.121232  0  1.03449  0
H  H31  1  0.41155169  0.13074618  0.35504413  1  0.136909  0  0.104389  0.122453  0  1.032075  0
C  C32  1  0.99283993  0.70030764  0.49545597  1  1.589749  0  0.236076  0.649054  0  4.092676  0
C  C33  1  0.31214821  0.99731967  0.19851603  1  1.570825  0  0.236636  0.649066  0  4.090323  0
C  C34  1  0.00659309  0.30371595  0.48760300  1  1.583483  0  0.236889  0.649403  0  4.091782  0
C  C35  1  0.70283096  0.98969232  0.80190748  1  1.554787  0  0.23599  0.648145  0  4.093825  0
C  C36  1  0.99588804  0.69580805  0.80813761  1  1.543336  0  0.244718  0.640118  0  4.021241  0
C  C37  1  0.70374149  0.00223657  0.48503219  1  1.586462  0  0.2365  0.650933  0  4.084672  0
C  C38  1  0.00031192  0.30951575  0.19396645  1  1.53043  0  0.244804  0.640036  0  4.018972  0
C  C39  1  0.30991789  0.98636283  0.50077444  1  1.577461  0  0.23713  0.650908  0  4.081571  0
C  C40  1  0.30878360  0.69605765  0.49119230  1  1.577937  0  0.236707  0.650645  0  4.089571  0
C  C41  1  0.99235000  0.99348644  0.80715797  1  1.581237  0  0.235996  0.64812  0  4.092488  0
C  C42  1  0.70774553  0.30809290  0.49268801  1  1.576007  0  0.235991  0.648547  0  4.093026  0
C  C43  1  0.00505446  0.99210560  0.19497185  1  1.586887  0  0.23634  0.649227  0  4.090332  0
C  C44  1  0.00654761  0.40706361  0.48345726  1  -0.02697  0  -0.012073  -0.061137  0  3.909895  0
C  C45  1  0.98967718  0.60044777  0.49581329  1  0.021426  0  -0.01238  -0.06041  0  3.911278  0
C  C46  1  0.08594991  0.46139986  0.40622793  1  -0.083676  0  -0.006286  0.099862  0  3.912715  0
C  C47  1  0.90986119  0.54656667  0.57255461  1  -0.077511  0  -0.007111  0.098782  0  3.918786  0
C  C48  1  0.07604560  0.55620211  0.41350763  1  0.040602  0  -0.086548  -0.137315  0  3.958734  0
C  C49  1  0.91959921  0.45197654  0.56504130  1  0.031951  0  -0.086782  -0.136097  0  3.959295  0
C  C50  1  0.41424638  0.99830928  0.09814671  1  0.064373  0  -0.012353  -0.060148  0  3.910155  0
C  C51  1  0.60335785  0.98580902  0.90499912  1  0.054016  0  -0.012891  -0.060739  0  3.910883  0
C  C52  1  0.47013788  0.07615343  0.04328506  1  -0.115341  0  -0.006914  0.100573  0  3.913874  0
C  C53  1  0.54746186  0.90795420  0.95982372  1  -0.107161  0  -0.006913  0.098764  0  3.918487  0
C  C54  1  0.56276991  0.06840236  0.94898235  1  0.015924  0  -0.08676  -0.137933  0  3.960918  0
C  C55  1  0.45530285  0.91519605  0.05463064  1  0.017343  0  -0.086474  -0.138612  0  3.962676  0
C  C56  1  0.98828178  0.99482982  0.90963869  1  0.052006  0  -0.012888  -0.061584  0  3.912051  0
C  C57  1  0.00444860  0.98577946  0.09742949  1  0.031006  0  -0.012539  -0.061772  0  3.910931  0
C  C58  1  0.90835967  0.07213273  0.96398086  1  -0.109874  0  -0.006641  0.099274  0  3.914785  0
C  C59  1  0.08319004  0.90714723  0.04440298  1  -0.117098  0  -0.006304  0.100438  0  3.914479  0
C  C60  1  0.91789665  0.06630867  0.05566721  1  0.004269  0  -0.085718  -0.13644  0  3.959699  0
C  C61  1  0.07389904  0.91324129  0.95243900  1  0.05443  0  -0.085256  -0.138779  0  3.960591  0
C  C62  1  0.41282049  0.59805944  0.48532612  1  0.059133  0  -0.012106  -0.061751  0  3.911218  0
C  C63  1  0.60751045  0.41006670  0.49459669  1  -0.021861  0  -0.012571  -0.061982  0  3.912342  0
C  C64  1  0.46589991  0.54521687  0.40649111  1  -0.112373  0  -0.006503  0.099621  0  3.915718  0
C  C65  1  0.55524447  0.46378224  0.57252982  1  -0.061686  0  -0.006605  0.100093  0  3.912775  0
C  C66  1  0.56099146  0.45323512  0.41262494  1  0.062796  0  -0.085602  -0.138615  0  3.961522  0
C  C67  1  0.46006527  0.55565470  0.56649861  1  0.000371  0  -0.085788  -0.136403  0  3.95916  0
C  C68  1  0.08951263  0.38684246  0.99002712  1  -0.045222  0  -0.154775  -0.167849  0  3.844455  0
C  C69  1  0.08722125  0.49260918  0.88404070  1  0.01795  0  -0.154715  -0.165495  0  3.844503  0
C  C70  1  0.99261110  0.59466317  0.91474760  1  0.023129  0  -0.016016  0.016346  0  3.808195  0
C  C71  1  0.01244913  0.60858519  0.99907431  1  -0.018199  0  -0.158093  -0.167424  0  3.847736  0
C  C72  1  0.01221923  0.50312817  0.10562798  1  0.013821  0  -0.160022  -0.172306  0  3.853052  0
C  C73  1  0.99501585  0.41621805  0.09286985  1  0.044837  0  -0.016107  0.01858  0  3.802443  0
C  C74  1  0.88454337  0.46632845  0.07310846  1  -0.006815  0  -0.163642  -0.172505  0  3.872466  0
C  C75  1  0.88236339  0.57329078  0.96872341  1  -0.018178  0  -0.167077  -0.183185  0  3.889683  0
C  C76  1  0.41182934  0.98489209  0.50101183  1  0.005009  0  -0.012752  -0.060825  0  3.901142  0
C  C77  1  0.60306826  0.00260557  0.48346748  1  -0.031732  0  -0.012784  -0.061986  0  3.903096  0
C  C78  1  0.46709353  0.90669268  0.57933850  1  -0.061139  0  -0.00709  0.100831  0  3.913234  0
C  C79  1  0.54770407  0.08096307  0.40525399  1  -0.083657  0  -0.006397  0.102786  0  3.912265  0
C  C80  1  0.56048744  0.91668137  0.56920326  1  0.039496  0  -0.086431  -0.135561  0  3.95743  0
C  C81  1  0.45451800  0.07074162  0.41518293  1  0.039259  0  -0.087131  -0.13814  0  3.956891  0
Br  Br82  1  0.21123825  0.41522617  0.28956791  1  -0.026124  0  0.041905  -0.043456  0  1.463942  0
Br  Br83  1  0.78519443  0.59198610  0.68997333  1  -0.022519  0  0.039554  -0.044895  0  1.466477  0
Br  Br84  1  0.42988854  0.19573097  0.08670946  1  -0.024868  0  0.03799  -0.047125  0  1.461332  0
Br  Br85  1  0.58600720  0.79023095  0.91467442  1  -0.023221  0  0.044448  -0.039752  0  1.463913  0
Br  Br86  1  0.78323574  0.18797875  0.92385042  1  -0.024997  0  0.039202  -0.04564  0  1.473111  0
Br  Br87  1  0.20635613  0.78902691  0.08675404  1  -0.026444  0  0.03874  -0.046155  0  1.463598  0
Br  Br88  1  0.41894614  0.58792401  0.28787973  1  -0.024852  0  0.038793  -0.04591  0  1.463762  0
Br  Br89  1  0.60337401  0.42233342  0.68983759  1  -0.025041  0  0.039238  -0.046353  0  1.473501  0
Br  Br90  1  0.42465718  0.78397569  0.70296487  1  -0.023922  0  0.037444  -0.049814  0  1.449344  0
Br  Br91  1  0.58932644  0.20452111  0.28252451  1  -0.027777  0  0.037853  -0.049446  0  1.449781  0
O  O92  1  0.91856960  0.73927489  0.57231036  1  -1.179182  0  -0.360018  -0.618537  0  2.378553  0
O  O93  1  0.27080426  0.07388298  0.23781050  1  -1.177583  0  -0.359625  -0.61699  0  2.378302  0
O  O94  1  0.08387027  0.26138964  0.41408737  1  -1.17974  0  -0.359631  -0.617881  0  2.381072  0
O  O95  1  0.74125532  0.91625317  0.75955227  1  -1.17923  0  -0.359303  -0.617562  0  2.380981  0
O  O96  1  0.07608660  0.73239288  0.76580033  1  -1.187416  0  -0.366695  -0.634326  0  2.292068  0
O  O97  1  0.74411772  0.07983615  0.40966015  1  -1.187797  0  -0.358761  -0.621167  0  2.36022  0
O  O98  1  0.92672933  0.26535901  0.23285629  1  -1.184463  0  -0.367363  -0.629518  0  2.317783  0
O  O99  1  0.26728628  0.91103493  0.57848049  1  -1.182441  0  -0.358477  -0.62059  0  2.358778  0
O  O100  1  0.26580290  0.73664329  0.41702210  1  -1.181361  0  -0.361057  -0.618948  0  2.383207  0
O  O101  1  0.91998282  0.07179952  0.76234833  1  -1.184419  0  -0.361252  -0.618867  0  2.381427  0
O  O102  1  0.74719258  0.26369843  0.57051279  1  -1.178724  0  -0.361884  -0.619777  0  2.381417  0
O  O103  1  0.08197777  0.91837031  0.23515630  1  -1.185063  0  -0.360811  -0.618281  0  2.383961  0
O  O104  1  0.06931219  0.91579343  0.77060426  1  -1.178172  0  -0.343183  -0.605243  0  2.268966  0
O  O105  1  0.74493433  0.27164774  0.41494121  1  -1.17503  0  -0.342802  -0.604479  0  2.267794  0
O  O106  1  0.92964216  0.07148740  0.22975982  1  -1.178509  0  -0.343786  -0.605278  0  2.265931  0
O  O107  1  0.27004872  0.73091957  0.57054765  1  -1.179566  0  -0.34364  -0.606322  0  2.266032  0
O  O108  1  0.92187867  0.73591300  0.76536238  1  -1.182945  0  -0.349072  -0.609346  0  2.302027  0
O  O109  1  0.27229074  0.06487782  0.42263334  1  -1.186357  0  -0.34624  -0.605039  0  2.289784  0
O  O110  1  0.07832059  0.26846183  0.23184008  1  -1.181203  0  -0.348189  -0.615361  0  2.277031  0
O  O111  1  0.74095793  0.92413394  0.56358706  1  -1.171661  0  -0.345767  -0.605543  0  2.290098  0
O  O112  1  0.74118600  0.06750892  0.76301468  1  -1.166004  0  -0.346449  -0.605583  0  2.290645  0
O  O113  1  0.07143153  0.73780250  0.41915028  1  -1.185359  0  -0.345603  -0.604498  0  2.291585  0
O  O114  1  0.27267857  0.92070251  0.23625500  1  -1.17496  0  -0.346763  -0.60512  0  2.290134  0
O  O115  1  0.92964191  0.26453701  0.56576505  1  -1.177123  0  -0.346724  -0.60542  0  2.287762  0
O  O116  1  0.80243940  0.06695538  0.56060134  1  -1.255573  0  -0.694517  -1.068056  0  2.360035  0
O  O117  1  0.07120872  0.06204531  0.56557814  1  -1.241989  0  -0.693942  -1.069601  0  2.357225  0
O  O118  1  0.07302344  0.06657569  0.29314227  1  -1.252235  0  -0.695661  -1.071433  0  2.365194  0
O  O119  1  0.06856085  0.79443960  0.56520040  1  -1.242139  0  -0.694647  -1.068945  0  2.363475  0
O  O120  1  0.15189394  0.94655603  0.44899737  1  -1.200647  0  -0.790183  -1.147784  0  2.125175  0
O  O121  1  0.95387228  0.95014291  0.44501573  1  -1.200132  0  -0.791965  -1.149665  0  2.12783  0
O  O122  1  0.95615198  0.14720861  0.44494397  1  -1.197764  0  -0.791986  -1.14837  0  2.132381  0
O  O123  1  0.95296386  0.94638575  0.64573061  1  -1.199529  0  -0.791921  -1.149865  0  2.134313  0
