# generated using pymatgen
data_Rb2H10C12N2O7
_symmetry_space_group_name_H-M   'P 1'
_cell_length_a   5.29692370
_cell_length_b   12.19575412
_cell_length_c   12.92538358
_cell_angle_alpha   105.23520456
_cell_angle_beta   101.78862355
_cell_angle_gamma   89.98108194
_symmetry_Int_Tables_number   1
_chemical_formula_structural   Rb2H10C12N2O7
_chemical_formula_sum   'Rb4 H20 C24 N4 O14'
_cell_volume   787.38246578
_cell_formula_units_Z   2
loop_
 _symmetry_equiv_pos_site_id
 _symmetry_equiv_pos_as_xyz
  1  'x, y, z'
loop_
 _atom_site_type_symbol
 _atom_site_label
 _atom_site_symmetry_multiplicity
 _atom_site_fract_x
 _atom_site_fract_y
 _atom_site_fract_z
 _atom_site_occupancy
 _atom_site_hle17_bader_spin_density
 _atom_site_hle17_ddec_charge
 _atom_site_hle17_ddec_spin_density
 _atom_site_hle17_ddec_sum_bond_order
 _atom_site_hle17_magmom
 _atom_site_hse06_10hf_bader_spin_density
 _atom_site_hse06_10hf_ddec_charge
 _atom_site_hse06_10hf_ddec_spin_density
 _atom_site_hse06_10hf_ddec_sum_bond_order
 _atom_site_hse06_10hf_magmom
 _atom_site_hse06_bader_spin_density
 _atom_site_hse06_ddec_charge
 _atom_site_hse06_ddec_spin_density
 _atom_site_hse06_ddec_sum_bond_order
 _atom_site_hse06_magmom
 _atom_site_pbe_bader_spin_density
 _atom_site_pbe_cm5_charge
 _atom_site_pbe_ddec_charge
 _atom_site_pbe_ddec_spin_density
 _atom_site_pbe_ddec_sum_bond_order
 _atom_site_pbe_magmom
Rb  Rb0  1  0.84763953  0.92337841  0.08675083  1  0  0.925087  0  0.533501  0  0  0.869474  0  0.752189  0  0  0.884231  0  0.731068  0  0  0.837227  0.858642  0  0.767109  0
Rb  Rb1  1  0.76049196  0.57660445  0.91317047  1  0  0.925591  0  0.53297  0  0  0.869931  0  0.751941  0  0  0.884642  0  0.730761  0  0  0.837057  0.859061  0  0.76697  0
Rb  Rb2  1  0.15236635  0.07662686  0.91324886  1  0  0.9251  0  0.533484  0  0  0.869481  0  0.752167  0  0  0.884242  0  0.731046  0  0  0.837239  0.85864  0  0.767103  0
Rb  Rb3  1  0.23949885  0.42340336  0.08682624  1  0  0.925612  0  0.532954  0  0  0.869948  0  0.751928  0  0  0.884659  0  0.730748  0  0  0.837076  0.859078  0  0.76696  0
H  H4  1  0.61961947  0.23410895  0.42189804  1  0  0.103575  0  0.981316  0  0  0.109464  0  1.048236  0  0  0.112055  0  1.047049  0  0  0.104619  0.107597  0  1.049024  0
H  H5  1  0.19715300  0.26598318  0.57799629  1  0  0.104812  0  0.980314  0  0  0.110869  0  1.046993  0  0  0.113461  0  1.045816  0  0  0.105477  0.108999  0  1.047779  0
H  H6  1  0.38037824  0.76589293  0.57810322  1  0  0.103503  0  0.98136  0  0  0.109411  0  1.048261  0  0  0.112002  0  1.047075  0  0  0.104586  0.107544  0  1.04905  0
H  H7  1  0.80284597  0.73401360  0.42200616  1  0  0.104859  0  0.980279  0  0  0.110897  0  1.04697  0  0  0.113487  0  1.045798  0  0  0.10548  0.109029  0  1.047755  0
H  H8  1  0.41857172  0.40710035  0.51296481  1  0  0.101765  0  0.959541  0  0  0.110841  0  1.021629  0  0  0.114177  0  1.021111  0  0  0.102204  0.108444  0  1.02222  0
H  H9  1  0.90543913  0.09301410  0.48710317  1  0  0.102043  0  0.959194  0  0  0.111068  0  1.021254  0  0  0.114464  0  1.020663  0  0  0.102186  0.108651  0  1.021842  0
H  H10  1  0.58142792  0.59290152  0.48703661  1  0  0.101719  0  0.959533  0  0  0.110791  0  1.021635  0  0  0.114127  0  1.021118  0  0  0.102173  0.108394  0  1.022228  0
H  H11  1  0.09456926  0.90698099  0.51290121  1  0  0.101999  0  0.95913  0  0  0.111041  0  1.021182  0  0  0.114437  0  1.020591  0  0  0.102174  0.108624  0  1.021771  0
H  H12  1  0.00302662  0.46468030  0.41171666  1  0  0.087727  0  0.947947  0  0  0.099221  0  1.007546  0  0  0.101495  0  1.005727  0  0  0.103673  0.09751  0  1.008871  0
H  H13  1  0.59148338  0.03537224  0.58857461  1  0  0.088525  0  0.947075  0  0  0.099995  0  1.006621  0  0  0.102296  0  1.004784  0  0  0.103815  0.098267  0  1.007952  0
H  H14  1  0.99697885  0.53532156  0.58828062  1  0  0.087695  0  0.947942  0  0  0.099201  0  1.007525  0  0  0.101475  0  1.005706  0  0  0.103665  0.097492  0  1.008846  0
H  H15  1  0.40851934  0.96462369  0.41142794  1  0  0.088574  0  0.947056  0  0  0.100047  0  1.006587  0  0  0.10235  0  1.004744  0  0  0.10385  0.098318  0  1.00792  0
H  H16  1  0.79643764  0.34961871  0.22751125  1  0  0.106624  0  0.970516  0  0  0.111315  0  1.042138  0  0  0.115802  0  1.039925  0  0  0.107001  0.108108  0  1.043897  0
H  H17  1  0.56917843  0.15044993  0.77293025  1  0  0.106459  0  0.970859  0  0  0.111533  0  1.042065  0  0  0.11611  0  1.039733  0  0  0.107248  0.108268  0  1.043925  0
H  H18  1  0.20357395  0.65038570  0.77248562  1  0  0.106627  0  0.9705  0  0  0.111295  0  1.042155  0  0  0.115782  0  1.03994  0  0  0.106987  0.108085  0  1.043918  0
H  H19  1  0.43081691  0.84954855  0.22707075  1  0  0.106525  0  0.970849  0  0  0.111612  0  1.042039  0  0  0.116185  0  1.039715  0  0  0.107273  0.108349  0  1.043891  0
H  H20  1  0.34512781  0.72042175  0.04788258  1  0  0.409722  0  0.903569  0  0  0.38121  0  0.965664  0  0  0.392827  0  0.948633  0  0  0.281583  0.372988  0  0.977694  0
H  H21  1  0.29726491  0.77962256  0.95198810  1  0  0.40816  0  0.905745  0  0  0.380073  0  0.967168  0  0  0.391657  0  0.950148  0  0  0.281104  0.371861  0  0.979215  0
H  H22  1  0.65486864  0.27958522  0.95211673  1  0  0.409724  0  0.903559  0  0  0.381243  0  0.965599  0  0  0.392859  0  0.948569  0  0  0.281598  0.373022  0  0.977629  0
H  H23  1  0.70273745  0.22038526  0.04801114  1  0  0.408144  0  0.905794  0  0  0.38004  0  0.967245  0  0  0.391625  0  0.950222  0  0  0.281066  0.371827  0  0.979291  0
C  C24  1  0.08487646  0.22452672  0.21253561  1  0  0.345219  0  3.911632  0  0  0.328534  0  4.183405  0  0  0.349592  0  4.195335  0  0  0.08835  0.314756  0  4.174662  0
C  C25  1  0.87209366  0.27560316  0.78769303  1  0  0.345256  0  3.908014  0  0  0.327434  0  4.181271  0  0  0.348557  0  4.193156  0  0  0.087835  0.313615  0  4.172572  0
C  C26  1  0.91513139  0.77547853  0.78746038  1  0  0.345134  0  3.911762  0  0  0.328487  0  4.183472  0  0  0.349541  0  4.195408  0  0  0.088349  0.31471  0  4.174723  0
C  C27  1  0.12789644  0.72439957  0.21230779  1  0  0.345349  0  3.907947  0  0  0.327505  0  4.181214  0  0  0.34863  0  4.19311  0  0  0.087821  0.313687  0  4.172515  0
C  C28  1  0.32599172  0.19491562  0.27352877  1  0  -0.06888  0  3.61816  0  0  -0.077371  0  3.869025  0  0  -0.090735  0  3.892193  0  0  0.064352  -0.069451  0  3.854299  0
C  C29  1  0.05191227  0.30519518  0.72651575  1  0  -0.068846  0  3.61714  0  0  -0.076737  0  3.86779  0  0  -0.090146  0  3.890966  0  0  0.064706  -0.068788  0  3.853043  0
C  C30  1  0.67400781  0.80508541  0.72647244  1  0  -0.068861  0  3.61829  0  0  -0.077334  0  3.869111  0  0  -0.090696  0  3.892278  0  0  0.064361  -0.069412  0  3.854381  0
C  C31  1  0.94808340  0.69480585  0.27348513  1  0  -0.068683  0  3.617181  0  0  -0.076572  0  3.867821  0  0  -0.089963  0  3.890963  0  0  0.064812  -0.068624  0  3.853076  0
C  C32  1  0.43989983  0.26094831  0.38060756  1  0  -0.082515  0  3.773082  0  0  -0.101081  0  4.023221  0  0  -0.095586  0  4.043484  0  0  -0.085451  -0.104041  0  4.009164  0
C  C33  1  0.05881129  0.23912096  0.61938435  1  0  -0.083399  0  3.772204  0  0  -0.10208  0  4.02185  0  0  -0.096614  0  4.042183  0  0  -0.086003  -0.105026  0  4.007766  0
C  C34  1  0.56010379  0.73905442  0.61939286  1  0  -0.082483  0  3.773127  0  0  -0.10108  0  4.023266  0  0  -0.095586  0  4.043528  0  0  -0.08543  -0.10404  0  4.009208  0
C  C35  1  0.94118972  0.76087667  0.38061770  1  0  -0.083556  0  3.772301  0  0  -0.102226  0  4.021959  0  0  -0.096762  0  4.042301  0  0  -0.086013  -0.105172  0  4.007874  0
C  C36  1  0.32843637  0.35703582  0.43056659  1  0  -0.110219  0  3.784364  0  0  -0.127089  0  4.041399  0  0  -0.137651  0  4.065171  0  0  -0.105068  -0.120332  0  4.025222  0
C  C37  1  0.89751558  0.14305953  0.56951903  1  0  -0.111677  0  3.783799  0  0  -0.128495  0  4.040773  0  0  -0.139115  0  4.064548  0  0  -0.10602  -0.1217  0  4.024598  0
C  C38  1  0.67156522  0.64296605  0.56943268  1  0  -0.110058  0  3.784354  0  0  -0.126919  0  4.041367  0  0  -0.137481  0  4.065139  0  0  -0.104994  -0.120163  0  4.025189  0
C  C39  1  0.10248350  0.85693810  0.43048363  1  0  -0.111497  0  3.78371  0  0  -0.128326  0  4.04067  0  0  -0.138948  0  4.064449  0  0  -0.105991  -0.12153  0  4.024494  0
C  C40  1  0.09457573  0.38876097  0.37370701  1  0  -0.003377  0  3.76521  0  0  -0.021653  0  4.020858  0  0  -0.014667  0  4.039259  0  0  -0.076845  -0.025708  0  4.007888  0
C  C41  1  0.72083050  0.11130057  0.62656166  1  0  -0.004174  0  3.763965  0  0  -0.022401  0  4.019631  0  0  -0.015449  0  4.038102  0  0  -0.076677  -0.026425  0  4.006612  0
C  C42  1  0.90542609  0.61124259  0.62629115  1  0  -0.003416  0  3.765248  0  0  -0.021698  0  4.0209  0  0  -0.01471  0  4.0393  0  0  -0.076861  -0.025752  0  4.00793  0
C  C43  1  0.27917231  0.88869622  0.37344343  1  0  -0.004299  0  3.764016  0  0  -0.022533  0  4.01968  0  0  -0.015579  0  4.038152  0  0  -0.076759  -0.026557  0  4.006663  0
C  C44  1  0.97805877  0.32502151  0.27006707  1  0  -0.245613  0  3.759799  0  0  -0.266157  0  4.024351  0  0  -0.278554  0  4.045415  0  0  -0.124774  -0.258082  0  4.00999  0
C  C45  1  0.70811031  0.17503997  0.73028380  1  0  -0.244564  0  3.758174  0  0  -0.265241  0  4.022876  0  0  -0.277753  0  4.043978  0  0  -0.1245  -0.257117  0  4.008522  0
C  C46  1  0.02194872  0.67498121  0.72993136  1  0  -0.245602  0  3.759601  0  0  -0.266151  0  4.024169  0  0  -0.278547  0  4.045235  0  0  -0.124767  -0.258076  0  4.009807  0
C  C47  1  0.29188557  0.82496276  0.26971829  1  0  -0.244685  0  3.75817  0  0  -0.265366  0  4.022871  0  0  -0.277886  0  4.043981  0  0  -0.124527  -0.257241  0  4.008522  0
N  N48  1  0.45889133  0.09877947  0.22861419  1  0  0.516003  0  3.901826  0  0  0.550898  0  4.187286  0  0  0.573717  0  4.196346  0  0  0.005139  0.535827  0  4.180965  0
N  N49  1  0.22962066  0.40125652  0.77135604  1  0  0.516388  0  3.902055  0  0  0.551178  0  4.187248  0  0  0.573997  0  4.196346  0  0  0.005555  0.53611  0  4.180906  0
N  N50  1  0.54111240  0.90122410  0.77138568  1  0  0.51589  0  3.901997  0  0  0.55077  0  4.187487  0  0  0.573589  0  4.196547  0  0  0.005064  0.535698  0  4.181161  0
N  N51  1  0.77037299  0.59874365  0.22864291  1  0  0.516277  0  3.902113  0  0  0.551075  0  4.187313  0  0  0.57389  0  4.196425  0  0  0.005476  0.536005  0  4.18097  0
O  O52  1  0.96965053  0.16931563  0.11484858  1  0  -0.660729  0  2.049102  0  0  -0.616037  0  2.284151  0  0  -0.641529  0  2.281049  0  0  -0.434566  -0.598158  0  2.285651  0
O  O53  1  0.85436890  0.33083902  0.88539941  1  0  -0.661103  0  2.04808  0  0  -0.616041  0  2.284162  0  0  -0.641468  0  2.280765  0  0  -0.434408  -0.598127  0  2.285672  0
O  O54  1  0.03035721  0.83068878  0.88514719  1  0  -0.660671  0  2.049181  0  0  -0.616005  0  2.284199  0  0  -0.641496  0  2.281093  0  0  -0.434575  -0.598132  0  2.285706  0
O  O55  1  0.14561393  0.66916711  0.11460085  1  0  -0.66115  0  2.047929  0  0  -0.616128  0  2.284113  0  0  -0.641515  0  2.280626  0  0  -0.434419  -0.598211  0  2.285622  0
O  O56  1  0.37561097  0.03896460  0.13108679  1  0  -0.514748  0  1.820189  0  0  -0.490985  0  2.055435  0  0  -0.502687  0  2.049342  0  0  -0.304245  -0.482909  0  2.059628  0
O  O57  1  0.24406197  0.46099808  0.86895348  1  0  -0.515066  0  1.819979  0  0  -0.491415  0  2.055608  0  0  -0.503094  0  2.049378  0  0  -0.304345  -0.483329  0  2.059838  0
O  O58  1  0.62439674  0.96103982  0.86891207  1  0  -0.514673  0  1.820283  0  0  -0.490881  0  2.055513  0  0  -0.502583  0  2.049419  0  0  -0.304179  -0.482804  0  2.059705  0
O  O59  1  0.75592644  0.53900634  0.13104607  1  0  -0.514992  0  1.820142  0  0  -0.491312  0  2.055734  0  0  -0.502998  0  2.049508  0  0  -0.304258  -0.483243  0  2.060002  0
O  O60  1  0.66023603  0.07297599  0.28606095  1  0  -0.442324  0  1.738574  0  0  -0.415299  0  1.949137  0  0  -0.428101  0  1.945936  0  0  -0.189356  -0.406419  0  1.951224  0
O  O61  1  0.37331244  0.42703795  0.71378878  1  0  -0.442139  0  1.738678  0  0  -0.415055  0  1.949119  0  0  -0.427865  0  1.945881  0  0  -0.188851  -0.406166  0  1.951228  0
O  O62  1  0.33976748  0.92702589  0.71394003  1  0  -0.442284  0  1.738677  0  0  -0.415263  0  1.949242  0  0  -0.428066  0  1.946041  0  0  -0.189327  -0.406383  0  1.951332  0
O  O63  1  0.62668099  0.57296052  0.28621050  1  0  -0.442208  0  1.738613  0  0  -0.415118  0  1.949059  0  0  -0.427934  0  1.945825  0  0  -0.188911  -0.406226  0  1.95117  0
O  O64  1  0.43827404  0.75009984  0.99997505  1  0  -0.93361  0  1.771966  0  0  -0.889918  0  1.943928  0  0  -0.908102  0  1.911062  0  0  -0.748042  -0.876934  0  1.966964  0
O  O65  1  0.56172434  0.24990714  0.00002519  1  0  -0.933587  0  1.771991  0  0  -0.889917  0  1.943956  0  0  -0.908095  0  1.91109  0  0  -0.748018  -0.876928  0  1.966984  0
