# generated using pymatgen
data_ZnH20C25NO4
_symmetry_space_group_name_H-M   'P 1'
_cell_length_a   10.96710424
_cell_length_b   14.75484105
_cell_length_c   16.18750646
_cell_angle_alpha   90.16602171
_cell_angle_beta   90.03906007
_cell_angle_gamma   91.37316999
_symmetry_Int_Tables_number   1
_chemical_formula_structural   ZnH20C25NO4
_chemical_formula_sum   'Zn2 H40 C50 N2 O8'
_cell_volume   2618.66399908
_cell_formula_units_Z   2
loop_
 _symmetry_equiv_pos_site_id
 _symmetry_equiv_pos_as_xyz
  1  'x, y, z'
loop_
 _atom_site_type_symbol
 _atom_site_label
 _atom_site_symmetry_multiplicity
 _atom_site_fract_x
 _atom_site_fract_y
 _atom_site_fract_z
 _atom_site_occupancy
 _atom_site_pbe_bader_charge
 _atom_site_pbe_bader_spin_density
 _atom_site_pbe_cm5_charge
 _atom_site_pbe_ddec_charge
 _atom_site_pbe_ddec_spin_density
 _atom_site_pbe_ddec_sum_bond_order
 _atom_site_pbe_magmom
Zn  Zn0  1  0.50517205  0.59533508  0.50021271  1  1.307788  0  0.687117  0.887225  0  2.443168  0
Zn  Zn1  1  0.49481833  0.40464850  0.49979128  1  1.31868  0  0.687101  0.887225  0  2.443542  0
H  H2  1  0.71781311  0.12835249  0.66677792  1  0.023355  0  0.085326  0.080754  0  1.029938  0
H  H3  1  0.28218827  0.87163729  0.33321803  1  0.023542  0  0.085313  0.08081  0  1.029947  0
H  H4  1  0.57183367  0.91753209  0.37574218  1  0.110246  0  0.123402  0.132681  0  0.967514  0
H  H5  1  0.42818046  0.08245712  0.62424635  1  0.110492  0  0.123333  0.132525  0  0.967636  0
H  H6  1  0.81623535  0.41200873  0.67345306  1  0.025681  0  0.101134  0.10771  0  0.989118  0
H  H7  1  0.18374609  0.58798764  0.32655093  1  0.025564  0  0.101095  0.107693  0  0.989198  0
H  H8  1  0.81343266  0.11602433  0.52881884  1  0.028954  0  0.087873  0.08605  0  1.013595  0
H  H9  1  0.18657797  0.88397503  0.47117773  1  0.028832  0  0.087877  0.086077  0  1.013559  0
H  H10  1  0.11088743  0.36746239  0.55073296  1  0.105207  0  0.106161  0.117313  0  0.99524  0
H  H11  1  0.88910312  0.63253408  0.44927289  1  0.105037  0  0.106161  0.117321  0  0.99542  0
H  H12  1  0.46606522  0.64229871  0.07772415  1  0.055603  0  0.105016  0.113631  0  1.001152  0
H  H13  1  0.53395381  0.35771499  0.92227674  1  0.055863  0  0.105069  0.113727  0  1.001147  0
H  H14  1  0.66504507  0.21557381  0.78664951  1  0.018941  0  0.081862  0.110646  0  1.012095  0
H  H15  1  0.76175839  0.31079635  0.80925262  1  0.045508  0  0.08969  0.12427  0  0.994154  0
H  H16  1  0.62051888  0.32678953  0.75889483  1  0.066973  0  0.088625  0.131097  0  1.022745  0
H  H17  1  0.33493714  0.78441373  0.21334460  1  0.018747  0  0.081884  0.110634  0  1.012062  0
H  H18  1  0.37946522  0.67320211  0.24110485  1  0.06692  0  0.088575  0.130998  0  1.022654  0
H  H19  1  0.23822744  0.68918921  0.19074581  1  0.045201  0  0.089683  0.124214  0  0.994228  0
H  H20  1  0.95986966  0.31093786  0.41261949  1  0.012787  0  0.092646  0.132641  0  1.011186  0
H  H21  1  0.99573103  0.19711071  0.43510185  1  0.019394  0  0.087566  0.119645  0  0.997142  0
H  H22  1  0.85171849  0.22262069  0.39251112  1  0.016746  0  0.085151  0.114593  0  1.014954  0
H  H23  1  0.04023928  0.68904098  0.58741655  1  0.012496  0  0.092524  0.132517  0  1.011212  0
H  H24  1  0.14821441  0.77750522  0.60746389  1  0.017092  0  0.085214  0.114532  0  1.015196  0
H  H25  1  0.00413807  0.80280913  0.56486575  1  0.019334  0  0.087414  0.119468  0  0.99714  0
H  H26  1  0.45684076  0.72736786  0.95302152  1  0.042954  0  0.090146  0.122842  0  1.002399  0
H  H27  1  0.54417239  0.68454965  0.86900271  1  0.046584  0  0.095914  0.133831  0  0.991907  0
H  H28  1  0.38507672  0.66552407  0.87075897  1  0.056576  0  0.096419  0.134489  0  0.987318  0
H  H29  1  0.54319198  0.27264869  0.04697380  1  0.042864  0  0.09012  0.122839  0  1.002433  0
H  H30  1  0.61494779  0.33449102  0.12923388  1  0.056613  0  0.096424  0.134536  0  0.987513  0
H  H31  1  0.45585745  0.31545399  0.13099570  1  0.046984  0  0.095864  0.133709  0  0.991801  0
H  H32  1  0.43109026  0.07580418  0.27777907  1  0.031602  0  0.086892  0.111856  0  1.003406  0
H  H33  1  0.42761734  0.18037444  0.33298945  1  0.046971  0  0.094118  0.127776  0  0.997577  0
H  H34  1  0.52424802  0.16998221  0.24613395  1  0.058934  0  0.09642  0.131737  0  0.988973  0
H  H35  1  0.64617488  0.16125432  0.37652162  1  0.063142  0  0.104366  0.106065  0  0.981541  0
H  H36  1  0.65283098  0.05893798  0.31989259  1  0.043792  0  0.101429  0.100131  0  0.963509  0
H  H37  1  0.57237667  0.81961383  0.66697994  1  0.055137  0  0.094127  0.127933  0  0.997669  0
H  H38  1  0.56893094  0.92417016  0.72219648  1  0.032585  0  0.086984  0.111985  0  1.003532  0
H  H39  1  0.47576873  0.82999954  0.75384532  1  0.059467  0  0.096491  0.131833  0  0.989088  0
H  H40  1  0.34719064  0.94106556  0.68009841  1  0.044023  0  0.101468  0.10023  0  0.963752  0
H  H41  1  0.35381757  0.83874891  0.62347310  1  0.063442  0  0.104446  0.106233  0  0.981621  0
C  C42  1  0.49210315  0.49418761  0.33822208  1  1.734331  0  0.214718  0.659657  0  4.260938  0
C  C43  1  0.50790256  0.50578257  0.66177943  1  1.733357  0  0.215136  0.660218  0  4.259937  0
C  C44  1  0.12784271  0.50089652  0.49986709  1  -0.025672  0  -0.010584  -0.063047  0  3.930836  0
C  C45  1  0.87214153  0.49910464  0.50014184  1  -0.024257  0  -0.010306  -0.062428  0  3.930351  0
C  C46  1  0.06670234  0.57758913  0.47073245  1  0.005358  0  0.002742  0.058693  0  3.972509  0
C  C47  1  0.93327645  0.42241334  0.52927834  1  0.003768  0  0.002556  0.059312  0  3.972957  0
C  C48  1  0.48382801  0.58334294  0.95675292  1  0.052385  0  -0.00112  0.131952  0  3.954505  0
C  C49  1  0.51618740  0.41667208  0.04324859  1  0.052859  0  -0.001208  0.131655  0  3.954532  0
C  C50  1  0.50343605  0.50104501  0.91359281  1  0.094276  0  -0.001282  0.074449  0  4.096396  0
C  C51  1  0.49658025  0.49896799  0.08641117  1  0.094815  0  -0.001242  0.074752  0  4.096186  0
C  C52  1  0.51914388  0.41970154  0.95741187  1  -0.088256  0  -0.084607  -0.188788  0  3.943425  0
C  C53  1  0.48087149  0.58031077  0.04259026  1  -0.088586  0  -0.084523  -0.188758  0  3.943426  0
C  C54  1  0.50659980  0.50080164  0.82631209  1  -0.373495  0  -0.033867  -0.04837  0  4.123521  0
C  C55  1  0.49341640  0.49920391  0.17369189  1  -0.373519  0  -0.033842  -0.048417  0  4.123373  0
C  C56  1  0.49207778  0.49644947  0.24894572  1  -0.007255  0  -0.044107  -0.185842  0  3.961972  0
C  C57  1  0.50794800  0.50352160  0.75105639  1  -0.007235  0  -0.044068  -0.185875  0  3.961833  0
C  C58  1  0.54074461  0.95506507  0.42960439  1  -0.029483  0  -0.061149  -0.152004  0  3.914033  0
C  C59  1  0.45927782  0.04493101  0.57038476  1  -0.029178  0  -0.0611  -0.151893  0  3.914048  0
C  C60  1  0.49587611  0.90691433  0.49839192  1  0.165456  0  0.018479  0.005741  0  4.071253  0
C  C61  1  0.50413634  0.09308570  0.50159538  1  0.164926  0  0.018468  0.005629  0  4.071218  0
C  C62  1  0.45369978  0.95053974  0.57049658  1  0.046121  0  0.017683  0.106635  0  3.930492  0
C  C63  1  0.54630985  0.04945484  0.42948825  1  0.046053  0  0.017669  0.106473  0  3.930372  0
C  C64  1  0.73569752  0.50246584  0.49642302  1  1.555848  0  0.216377  0.598607  0  4.168474  0
C  C65  1  0.26428772  0.49754210  0.50358345  1  1.555608  0  0.216402  0.598456  0  4.168346  0
C  C66  1  0.49592194  0.81088202  0.49565391  1  0.774467  0  0.245385  0.304141  0  3.946971  0
C  C67  1  0.50407771  0.18911718  0.50432537  1  0.774621  0  0.245416  0.304262  0  3.946895  0
C  C68  1  0.75903264  0.27151329  0.68026984  1  -0.00997  0  -0.015331  0.174103  0  3.996143  0
C  C69  1  0.24094962  0.72847832  0.31972427  1  -0.010091  0  -0.015333  0.174046  0  3.996365  0
C  C70  1  0.81537035  0.34635835  0.64200336  1  -0.006094  0  -0.091473  -0.179847  0  3.927404  0
C  C71  1  0.18460836  0.65363934  0.35799570  1  -0.006127  0  -0.091427  -0.180722  0  3.926455  0
C  C72  1  0.87013335  0.34039125  0.56401902  1  0.051157  0  -0.005148  0.030682  0  3.969981  0
C  C73  1  0.12984446  0.65960845  0.43597633  1  0.051277  0  -0.00522  0.033744  0  3.965395  0
C  C74  1  0.86950154  0.25668583  0.52171672  1  -0.023212  0  -0.014998  0.115189  0  3.946974  0
C  C75  1  0.13049737  0.74332225  0.47828727  1  -0.024339  0  -0.014988  0.114178  0  3.946457  0
C  C76  1  0.81407110  0.18159319  0.56055160  1  -0.067554  0  -0.111438  -0.163314  0  4.065275  0
C  C77  1  0.18593406  0.81840545  0.43944682  1  -0.066606  0  -0.111472  -0.163384  0  4.065729  0
C  C78  1  0.75998229  0.18840025  0.63825645  1  -0.083986  0  -0.114463  -0.176169  0  4.063123  0
C  C79  1  0.24002093  0.81158956  0.36174445  1  -0.084113  0  -0.114367  -0.176226  0  4.063084  0
C  C80  1  0.06074211  0.42533403  0.52819493  1  -0.026778  0  -0.082079  -0.143691  0  3.955974  0
C  C81  1  0.93924119  0.57466509  0.47181401  1  -0.027212  0  -0.082273  -0.144203  0  3.956937  0
C  C82  1  0.69842452  0.28137582  0.76314340  1  -0.088096  0  -0.240856  -0.409973  0  3.980648  0
C  C83  1  0.30155500  0.71861442  0.23685689  1  -0.087618  0  -0.240779  -0.409779  0  3.980804  0
C  C84  1  0.92230579  0.24666717  0.43629442  1  -0.006543  0  -0.239556  -0.399277  0  3.986207  0
C  C85  1  0.07766574  0.75333992  0.56370279  1  -0.005918  0  -0.23938  -0.398956  0  3.986562  0
C  C86  1  0.46660655  0.67010791  0.91037491  1  -0.053501  0  -0.235456  -0.409417  0  3.993239  0
C  C87  1  0.53341704  0.32990582  0.08961980  1  -0.05421  0  -0.23539  -0.409301  0  3.9933  0
C  C88  1  0.59148185  0.10199078  0.35558921  1  -0.014011  0  -0.153878  -0.159496  0  3.981536  0
C  C89  1  0.48713674  0.13366801  0.29998618  1  -0.074655  0  -0.234733  -0.346998  0  3.933242  0
C  C90  1  0.40852598  0.89800581  0.64439316  1  -0.015002  0  -0.154018  -0.159996  0  3.982145  0
C  C91  1  0.51287904  0.86630900  0.69999555  1  -0.084213  0  -0.234874  -0.347237  0  3.933531  0
N  N92  1  0.50034247  0.26757363  0.50549130  1  -1.13135  0  -0.270532  -0.276752  0  3.105419  0
N  N93  1  0.49965354  0.73242554  0.49449292  1  -1.131626  0  -0.270501  -0.276762  0  3.105293  0
O  O94  1  0.49707297  0.57109536  0.37441243  1  -1.149287  0  -0.312509  -0.548878  0  2.26552  0
O  O95  1  0.50291986  0.42886521  0.62559341  1  -1.148732  0  -0.312857  -0.549306  0  2.264912  0
O  O96  1  0.48698861  0.41619878  0.37149298  1  -1.130694  0  -0.316987  -0.544509  0  2.240855  0
O  O97  1  0.51301784  0.58375853  0.62850853  1  -1.130087  0  -0.317099  -0.544649  0  2.241057  0
O  O98  1  0.68902904  0.58071190  0.49935207  1  -1.153762  0  -0.319756  -0.549758  0  2.313315  0
O  O99  1  0.31096250  0.41929000  0.50065377  1  -1.153444  0  -0.319864  -0.549795  0  2.31271  0
O  O100  1  0.67748912  0.42727949  0.48969512  1  -1.168841  0  -0.306697  -0.541431  0  2.371707  0
O  O101  1  0.32249236  0.57271960  0.51031259  1  -1.168725  0  -0.306735  -0.54135  0  2.371918  0
