# generated using pymatgen
data_CdH10C14(NO)4
_symmetry_space_group_name_H-M   'P 1'
_cell_length_a   7.88001534
_cell_length_b   8.90226595
_cell_length_c   10.19977337
_cell_angle_alpha   89.79728108
_cell_angle_beta   101.56780096
_cell_angle_gamma   104.85897275
_symmetry_Int_Tables_number   1
_chemical_formula_structural   CdH10C14(NO)4
_chemical_formula_sum   'Cd2 H20 C28 N8 O8'
_cell_volume   676.67288013
_cell_formula_units_Z   2
loop_
 _symmetry_equiv_pos_site_id
 _symmetry_equiv_pos_as_xyz
  1  'x, y, z'
loop_
 _atom_site_type_symbol
 _atom_site_label
 _atom_site_symmetry_multiplicity
 _atom_site_fract_x
 _atom_site_fract_y
 _atom_site_fract_z
 _atom_site_occupancy
 _atom_site_pbe_bader_spin_density
 _atom_site_pbe_cm5_charge
 _atom_site_pbe_ddec_charge
 _atom_site_pbe_ddec_spin_density
 _atom_site_pbe_ddec_sum_bond_order
 _atom_site_pbe_magmom
Cd  Cd0  1  0.43253900  0.66295771  0.84292496  1  0  0.780328  0.907271  0  2.137428  0
Cd  Cd1  1  0.56746062  0.33704168  0.15707443  1  0  0.780289  0.907202  0  2.137493  0
H  H2  1  0.10111660  0.36605448  0.58845737  1  0  0.116171  0.112122  0  1.015974  0
H  H3  1  0.89887858  0.63394729  0.41154137  1  0  0.11617  0.112104  0  1.015982  0
H  H4  1  0.73662730  0.32422890  0.58278542  1  0  0.120757  0.119729  0  1.054776  0
H  H5  1  0.26336769  0.67577637  0.41721329  1  0  0.120756  0.119703  0  1.054808  0
H  H6  1  0.06427654  0.93424352  0.14879672  1  0  0.124054  0.121987  0  1.024406  0
H  H7  1  0.93572067  0.06576056  0.85120232  1  0  0.124056  0.12195  0  1.024472  0
H  H8  1  0.39849861  0.94661188  0.09852783  1  0  0.118117  0.116604  0  1.015467  0
H  H9  1  0.60150159  0.05338516  0.90147360  1  0  0.118128  0.11662  0  1.015459  0
H  H10  1  0.52981993  0.61960341  0.39613475  1  0  0.108514  0.118533  0  1.034895  0
H  H11  1  0.47019003  0.38039586  0.60386716  1  0  0.108519  0.118533  0  1.034891  0
H  H12  1  0.78721995  0.99501407  0.17854540  1  0  0.10001  0.098488  0  1.051745  0
H  H13  1  0.21276856  0.00498312  0.82144744  1  0  0.100001  0.098503  0  1.051801  0
H  H14  1  0.88285957  0.16818185  0.38643391  1  0  0.101631  0.10431  0  0.997947  0
H  H15  1  0.11712836  0.83181769  0.61355688  1  0  0.101611  0.104331  0  0.997931  0
H  H16  1  0.79418997  0.06504076  0.59891545  1  0  0.102827  0.098629  0  1.032672  0
H  H17  1  0.20581753  0.93496324  0.40108120  1  0  0.102798  0.098577  0  1.0327  0
H  H18  1  0.72219527  0.48194995  0.78359464  1  0  0.311291  0.29471  0  0.981849  0
H  H19  1  0.27780436  0.51804943  0.21640573  1  0  0.311303  0.294722  0  0.981868  0
H  H20  1  0.84611953  0.72409301  0.99239420  1  0  0.318641  0.300074  0  0.96393  0
H  H21  1  0.15387695  0.27590874  0.00760571  1  0  0.318646  0.300127  0  0.963925  0
C  C22  1  0.03518163  0.41685263  0.65330455  1  0  -0.001241  -0.02232  0  4.004072  0
C  C23  1  0.96481577  0.58314795  0.34669452  1  0  -0.001208  -0.02228  0  4.004102  0
C  C24  1  0.85480833  0.39267002  0.65088160  1  0  0.006066  -0.039529  0  3.915802  0
C  C25  1  0.14518815  0.60733173  0.34911732  1  0  0.006121  -0.039411  0  3.915769  0
C  C26  1  0.01133482  0.56603800  0.81383540  1  0  0.206602  0.21074  0  4.07387  0
C  C27  1  0.98866633  0.43395785  0.18616813  1  0  0.206603  0.21075  0  4.073959  0
C  C28  1  0.07345029  0.68772137  0.91868900  1  0  0.208842  0.21501  0  4.058498  0
C  C29  1  0.92654867  0.31227567  0.08131715  1  0  0.208896  0.215036  0  4.058379  0
C  C30  1  0.10366216  0.86522157  0.07917511  1  0  0.011463  -0.025657  0  3.904805  0
C  C31  1  0.89633504  0.13478252  0.92082295  1  0  0.011419  -0.025672  0  3.904825  0
C  C32  1  0.26952289  0.87048843  0.05255646  1  0  0.001295  -0.013355  0  3.983659  0
C  C33  1  0.73047454  0.12951213  0.94744555  1  0  0.001303  -0.013347  0  3.983613  0
C  C34  1  0.65463223  0.83718920  0.50953711  1  0  -0.017157  -0.029758  0  3.970747  0
C  C35  1  0.34537364  0.16281364  0.49046125  1  0  -0.017132  -0.029769  0  3.970672  0
C  C36  1  0.60365690  0.74060808  0.39270259  1  0  -0.07764  -0.107343  0  3.918518  0
C  C37  1  0.39634568  0.25939245  0.60729822  1  0  -0.077668  -0.107386  0  3.918662  0
C  C38  1  0.65049021  0.79748361  0.27336991  1  0  -0.023984  -0.054272  0  3.990338  0
C  C39  1  0.34950680  0.20251582  0.72662615  1  0  -0.023978  -0.054246  0  3.990348  0
C  C40  1  0.75263753  0.95176657  0.27224488  1  0  -0.080841  -0.08519  0  3.948455  0
C  C41  1  0.24735786  0.04823170  0.72775388  1  0  -0.080816  -0.085239  0  3.948381  0
C  C42  1  0.80502659  0.04801483  0.38870864  1  0  -0.089324  -0.079915  0  3.991548  0
C  C43  1  0.19497167  0.95198461  0.61128270  1  0  -0.089303  -0.079925  0  3.991545  0
C  C44  1  0.75626969  0.99110798  0.50734536  1  0  -0.075406  -0.076878  0  3.939948  0
C  C45  1  0.24373416  0.00889253  0.49265466  1  0  -0.075386  -0.076785  0  3.939972  0
C  C46  1  0.58913560  0.77647562  0.63254117  1  0  0.184611  0.542211  0  4.252928  0
C  C47  1  0.41087509  0.22352599  0.36746085  1  0  0.18454  0.542196  0  4.253023  0
C  C48  1  0.58560783  0.69587952  0.14725220  1  0  0.213345  0.586611  0  4.172796  0
C  C49  1  0.41438828  0.30412107  0.85274667  1  0  0.213243  0.586576  0  4.172773  0
N  N50  1  0.13138765  0.52377061  0.75531993  1  0  -0.3553  -0.350671  0  3.466414  0
N  N51  1  0.86861200  0.47622877  0.24468241  1  0  -0.355303  -0.350695  0  3.466529  0
N  N52  1  0.84170843  0.48750464  0.75284785  1  0  -0.371238  -0.224451  0  3.608252  0
N  N53  1  0.15829122  0.51249474  0.24715449  1  0  -0.371319  -0.224559  0  3.608337  0
N  N54  1  0.24940083  0.76046756  0.95272526  1  0  -0.359009  -0.355986  0  3.502677  0
N  N55  1  0.75059869  0.23952713  0.04728195  1  0  -0.359061  -0.355988  0  3.502663  0
N  N56  1  0.98188920  0.74970768  0.99422197  1  0  -0.369726  -0.226268  0  3.626718  0
N  N57  1  0.01811173  0.25029169  0.00577958  1  0  -0.369736  -0.226339  0  3.626654  0
O  O58  1  0.46021977  0.65262875  0.61751010  1  0  -0.328364  -0.549215  0  2.226799  0
O  O59  1  0.53980241  0.34736805  0.38249755  1  0  -0.328345  -0.549199  0  2.22671  0
O  O60  1  0.65716657  0.84945506  0.74595452  1  0  -0.332041  -0.556213  0  2.169321  0
O  O61  1  0.34284245  0.15055356  0.25404825  1  0  -0.331982  -0.556186  0  2.16945  0
O  O62  1  0.46858369  0.56578489  0.14676820  1  0  -0.333425  -0.590413  0  2.350051  0
O  O63  1  0.53141396  0.43421216  0.85323580  1  0  -0.333386  -0.590401  0  2.350119  0
O  O64  1  0.64574598  0.74568742  0.04345373  1  0  -0.319853  -0.559556  0  2.305826  0
O  O65  1  0.35424776  0.25430969  0.95654576  1  0  -0.31979  -0.55954  0  2.305823  0
