# generated using pymatgen
data_ZnSiH16C24N4(O4F3)2
_symmetry_space_group_name_H-M   'P 1'
_cell_length_a   7.89418094
_cell_length_b   13.96076070
_cell_length_c   13.96071099
_cell_angle_alpha   89.99926686
_cell_angle_beta   89.99961601
_cell_angle_gamma   89.99973372
_symmetry_Int_Tables_number   1
_chemical_formula_structural   ZnSiH16C24N4(O4F3)2
_chemical_formula_sum   'Zn1 Si1 H16 C24 N4 O8 F6'
_cell_volume   1538.59280025
_cell_formula_units_Z   1
loop_
 _symmetry_equiv_pos_site_id
 _symmetry_equiv_pos_as_xyz
  1  'x, y, z'
loop_
 _atom_site_type_symbol
 _atom_site_label
 _atom_site_symmetry_multiplicity
 _atom_site_fract_x
 _atom_site_fract_y
 _atom_site_fract_z
 _atom_site_occupancy
 _atom_site_pbe_bader_charge
 _atom_site_pbe_bader_spin_density
 _atom_site_pbe_cm5_charge
 _atom_site_pbe_ddec_charge
 _atom_site_pbe_ddec_spin_density
 _atom_site_pbe_ddec_sum_bond_order
 _atom_site_pbe_magmom
Zn  Zn0  1  0.50001600  0.49999264  0.50000624  1  1.368873  0  0.71197  0.757819  0  2.271469  0
Si  Si1  1  0.00001353  0.49999606  0.50000214  1  3.167784  0  0.263246  1.71367  0  3.951843  0
H  H2  1  0.23440693  0.66135735  0.49999280  1  0.202845  0  0.124388  0.134983  0  1.02778  0
H  H3  1  0.76561720  0.66135032  0.49998324  1  0.202536  0  0.124355  0.134809  0  1.027848  0
H  H4  1  0.23440214  0.33863712  0.49995117  1  0.201753  0  0.124363  0.134928  0  1.027917  0
H  H5  1  0.76561494  0.33862579  0.50011209  1  0.202224  0  0.124444  0.135065  0  1.027773  0
H  H6  1  0.23441684  0.50000910  0.66136241  1  0.202036  0  0.124372  0.134972  0  1.027742  0
H  H7  1  0.76562584  0.50001496  0.66136717  1  0.202576  0  0.124406  0.134898  0  1.027855  0
H  H8  1  0.23439729  0.50005199  0.33865033  1  0.2021  0  0.124345  0.134874  0  1.02779  0
H  H9  1  0.76560630  0.49987949  0.33864364  1  0.202009  0  0.124485  0.135158  0  1.027722  0
H  H10  1  0.78590688  0.91573758  0.49997513  1  0.564115  0  0.317281  0.330533  0  0.931228  0
H  H11  1  0.21413509  0.91574609  0.50004422  1  0.563931  0  0.317096  0.330274  0  0.931415  0
H  H12  1  0.78588045  0.08423920  0.50016454  1  0.564355  0  0.317145  0.330349  0  0.931231  0
H  H13  1  0.21410359  0.08424914  0.49990126  1  0.564442  0  0.317125  0.330366  0  0.931436  0
H  H14  1  0.78589743  0.50002047  0.91575962  1  0.564686  0  0.317109  0.33027  0  0.93129  0
H  H15  1  0.21413071  0.49994660  0.91575636  1  0.563882  0  0.317086  0.330244  0  0.931359  0
H  H16  1  0.78587850  0.49982451  0.08425255  1  0.564503  0  0.317213  0.330491  0  0.93117  0
H  H17  1  0.21410923  0.50010163  0.08425860  1  0.56459  0  0.317183  0.330455  0  0.931323  0
C  C18  1  0.35163232  0.70252547  0.49999376  1  0.565453  0  0.030665  -0.054832  0  3.89274  0
C  C19  1  0.34683844  0.80237247  0.50000101  1  0.428069  0  0.096959  0.263224  0  4.055971  0
C  C20  1  0.50002064  0.85491600  0.49999896  1  0.202038  0  -0.030426  -0.120394  0  4.17948  0
C  C21  1  0.65320081  0.80236712  0.49999400  1  0.427501  0  0.097038  0.263328  0  4.056153  0
C  C22  1  0.64839522  0.70252156  0.49998749  1  0.565868  0  0.030697  -0.054604  0  3.892692  0
C  C23  1  0.50001256  0.95595419  0.50000619  1  -0.139555  0  -0.045356  -0.108752  0  4.219092  0
C  C24  1  0.49999791  0.04403397  0.50001346  1  -0.379207  0  -0.045144  -0.108403  0  4.218515  0
C  C25  1  0.49999616  0.14507860  0.50002356  1  0.201532  0  -0.030372  -0.120168  0  4.17898  0
C  C26  1  0.34681472  0.19761531  0.49997193  1  0.428395  0  0.096847  0.26311  0  4.055861  0
C  C27  1  0.35162412  0.29747161  0.49998059  1  0.566862  0  0.030548  -0.054862  0  3.892751  0
C  C28  1  0.64838828  0.29746698  0.50006959  1  0.566835  0  0.030678  -0.054887  0  3.892534  0
C  C29  1  0.65318090  0.19761282  0.50008025  1  0.42926  0  0.09687  0.263176  0  4.056093  0
C  C30  1  0.35164090  0.50000727  0.70253345  1  0.56629  0  0.030508  -0.055168  0  3.892953  0
C  C31  1  0.34683548  0.49999876  0.80238152  1  0.428002  0  0.097036  0.263585  0  4.055828  0
C  C32  1  0.50001761  0.50000183  0.85491868  1  0.201974  0  -0.030334  -0.120404  0  4.17942  0
C  C33  1  0.65319785  0.50000630  0.80238598  1  0.427761  0  0.09698  0.263534  0  4.056112  0
C  C34  1  0.64840507  0.50000909  0.70253219  1  0.565838  0  0.030671  -0.054827  0  3.892778  0
C  C35  1  0.50000812  0.49999259  0.95596440  1  -0.379253  0  -0.0453  -0.108616  0  4.219162  0
C  C36  1  0.49999475  0.49998768  0.04403950  1  -0.139419  0  -0.04521  -0.108603  0  4.218577  0
C  C37  1  0.49999666  0.49997701  0.14509237  1  0.200428  0  -0.030286  -0.119924  0  4.179004  0
C  C38  1  0.34681768  0.50002985  0.19762579  1  0.427994  0  0.096714  0.262688  0  4.056553  0
C  C39  1  0.35161680  0.50002204  0.29748316  1  0.566296  0  0.030558  -0.054725  0  3.892757  0
C  C40  1  0.64838223  0.49992573  0.29748262  1  0.566776  0  0.030523  -0.055195  0  3.892812  0
C  C41  1  0.65317625  0.49991562  0.19762237  1  0.430402  0  0.096931  0.263206  0  4.056175  0
N  N42  1  0.50001526  0.65517043  0.49998806  1  -1.225053  0  -0.30696  -0.174117  0  3.585447  0
N  N43  1  0.50000787  0.34481629  0.50002443  1  -1.226165  0  -0.306916  -0.174072  0  3.585564  0
N  N44  1  0.50002138  0.50001242  0.65518315  1  -1.22501  0  -0.306883  -0.173961  0  3.585595  0
N  N45  1  0.50000429  0.49997573  0.34483005  1  -1.225902  0  -0.306914  -0.173957  0  3.585857  0
O  O46  1  0.80612590  0.84674347  0.49999416  1  -1.071755  0  -0.330773  -0.389186  0  2.29676  0
O  O47  1  0.19391039  0.84675131  0.50001031  1  -1.065783  0  -0.330465  -0.388765  0  2.296468  0
O  O48  1  0.80610388  0.15323756  0.50012323  1  -1.066867  0  -0.330492  -0.388913  0  2.29684  0
O  O49  1  0.19388584  0.15324612  0.49991447  1  -1.07261  0  -0.330324  -0.388781  0  2.296774  0
O  O50  1  0.80612415  0.50000012  0.84676167  1  -1.072439  0  -0.330582  -0.389017  0  2.29649  0
O  O51  1  0.19390864  0.49998646  0.84675848  1  -1.065668  0  -0.330466  -0.388849  0  2.29646  0
O  O52  1  0.80610183  0.49986488  0.15325401  1  -1.066837  0  -0.330499  -0.388958  0  2.296955  0
O  O53  1  0.19388505  0.50008402  0.15325870  1  -1.072581  0  -0.330364  -0.388741  0  2.296815  0
F  F54  1  0.22641447  0.49999438  0.50000531  1  -0.824837  0  -0.200022  -0.504079  0  1.298855  0
F  F55  1  0.77361627  0.49999807  0.50000002  1  -0.826054  0  -0.199995  -0.503938  0  1.298777  0
F  F56  1  0.00003138  0.58583291  0.41417072  1  -0.821885  0  -0.238403  -0.532555  0  1.085913  0
F  F57  1  0.00000327  0.41415778  0.58583499  1  -0.822057  0  -0.238461  -0.532585  0  1.08593  0
F  F58  1  0.00001512  0.58582608  0.58583962  1  -0.821909  0  -0.238444  -0.532581  0  1.085835  0
F  F59  1  0.00002460  0.41416533  0.41416537  1  -0.821965  0  -0.238442  -0.532587  0  1.085924  0
