# generated using pymatgen
data_ZnH24C35N(O2F)2
_symmetry_space_group_name_H-M   'P 1'
_cell_length_a   10.84121675
_cell_length_b   14.16495931
_cell_length_c   15.21513560
_cell_angle_alpha   90.19880070
_cell_angle_beta   92.77178742
_cell_angle_gamma   91.72694779
_symmetry_Int_Tables_number   1
_chemical_formula_structural   ZnH24C35N(O2F)2
_chemical_formula_sum   'Zn2 H48 C70 N2 O8 F4'
_cell_volume   2332.69631429
_cell_formula_units_Z   2
loop_
 _symmetry_equiv_pos_site_id
 _symmetry_equiv_pos_as_xyz
  1  'x, y, z'
loop_
 _atom_site_type_symbol
 _atom_site_label
 _atom_site_symmetry_multiplicity
 _atom_site_fract_x
 _atom_site_fract_y
 _atom_site_fract_z
 _atom_site_occupancy
 _atom_site_pbe_bader_charge
 _atom_site_pbe_bader_spin_density
 _atom_site_pbe_cm5_charge
 _atom_site_pbe_ddec_charge
 _atom_site_pbe_ddec_spin_density
 _atom_site_pbe_ddec_sum_bond_order
 _atom_site_pbe_magmom
Zn  Zn0  1  0.48367381  0.39764771  0.49586827  1  1.293407  0  0.683855  0.850737  0  2.361348  0
Zn  Zn1  1  0.49063443  0.60443179  0.50168788  1  1.309568  0  0.675544  0.843809  0  2.35056  0
H  H2  1  0.35598203  0.58762213  0.77488092  1  0.076038  0  0.104595  0.115921  0  1.009433  0
H  H3  1  0.10738238  0.64371173  0.56073455  1  0.064854  0  0.099925  0.050687  0  0.970694  0
H  H4  1  0.88315870  0.60630242  0.41233604  1  0.020626  0  0.099539  0.112468  0  0.992248  0
H  H5  1  0.89081502  0.63809397  0.57780646  1  0.065924  0  0.097599  0.113131  0  0.987849  0
H  H6  1  0.87438107  0.48849688  0.37155286  1  0.054246  0  0.102897  0.121728  0  0.981619  0
H  H7  1  0.90953674  0.54308485  0.65163534  1  0.070257  0  0.105369  0.12838  0  0.961479  0
H  H8  1  0.09092447  0.34711055  0.49643633  1  0.113297  0  0.100634  0.13564  0  1.021568  0
H  H9  1  0.08919996  0.38694311  0.60662263  1  0.118077  0  0.107206  0.14383  0  0.958267  0
H  H10  1  0.52298387  0.34768117  0.06124884  1  0.076767  0  0.102242  0.106585  0  1.019938  0
H  H11  1  0.55880100  0.64911936  0.05743966  1  0.079491  0  0.101354  0.105858  0  1.011602  0
H  H12  1  0.38631238  0.68183971  0.31483930  1  0.138645  0  0.104649  0.11424  0  1.045663  0
H  H13  1  0.65984231  0.40051420  0.77569090  1  0.098937  0  0.105151  0.115607  0  0.999622  0
H  H14  1  0.19462063  0.65451104  0.22129541  1  0.095795  0  0.100492  0.096303  0  1.023998  0
H  H15  1  0.99850610  0.72924582  0.26057619  1  0.037515  0  0.100597  0.096578  0  1.005192  0
H  H16  1  0.99639104  0.82928928  0.39584981  1  0.052595  0  0.096501  0.091318  0  1.021228  0
H  H17  1  0.18876800  0.85762282  0.48756766  1  0.031702  0  0.098302  0.09555  0  1.004636  0
H  H18  1  0.15905877  0.12847640  0.51835293  1  0.061684  0  0.098966  0.096745  0  1.001831  0
H  H19  1  0.96712546  0.14434755  0.42571190  1  0.054167  0  0.095198  0.089279  0  1.008409  0
H  H20  1  0.96832663  0.24017965  0.28858445  1  0.072483  0  0.100468  0.095857  0  1.010136  0
H  H21  1  0.16277018  0.32440047  0.24838862  1  0.068222  0  0.102762  0.100205  0  0.987103  0
H  H22  1  0.35465914  0.30815574  0.33977963  1  0.131604  0  0.104858  0.117822  0  1.064181  0
H  H23  1  0.71522249  0.36491285  0.30774027  1  0.072033  0  0.09913  0.101456  0  1.01429  0
H  H24  1  0.36886601  0.94492365  0.41538072  1  0.099255  0  0.11304  0.122857  0  1.012374  0
H  H25  1  0.76388294  0.20463166  0.35814143  1  0.054451  0  0.094486  0.089862  0  1.027024  0
H  H26  1  0.62845853  0.06632226  0.30925223  1  0.055749  0  0.090014  0.082282  0  1.040609  0
H  H27  1  0.44345217  0.09209733  0.20928497  1  0.03331  0  0.096038  0.090598  0  1.004803  0
H  H28  1  0.39662179  0.25329066  0.15740054  1  0.046693  0  0.099556  0.097312  0  0.999811  0
H  H29  1  0.45729362  0.75937532  0.15076655  1  0.072257  0  0.101248  0.103145  0  1.00411  0
H  H30  1  0.53244662  0.91564678  0.20930251  1  0.039866  0  0.097102  0.093377  0  1.010175  0
H  H31  1  0.71096197  0.92632390  0.31917452  1  0.044866  0  0.091361  0.083233  0  1.029123  0
H  H32  1  0.81453428  0.77923576  0.36800345  1  0.050306  0  0.091634  0.081308  0  1.041637  0
H  H33  1  0.74164263  0.62432041  0.30661246  1  0.038195  0  0.098172  0.094539  0  1.030767  0
H  H34  1  0.26872531  0.47678149  0.02277968  1  0.070321  0  0.100369  0.102186  0  1.001479  0
H  H35  1  0.32183968  0.04870552  0.48492876  1  0.044993  0  0.107077  0.109622  0  1.042666  0
H  H36  1  0.09719331  0.55878580  0.08928538  1  0.069673  0  0.09836  0.091265  0  1.009538  0
H  H37  1  0.06077977  0.72804838  0.05528800  1  0.048951  0  0.098467  0.094433  0  0.998182  0
H  H38  1  0.19645637  0.81359834  0.95231037  1  0.075976  0  0.097913  0.092448  0  0.997829  0
H  H39  1  0.36650468  0.73030265  0.88399414  1  0.035285  0  0.099786  0.099649  0  0.999451  0
H  H40  1  0.78240653  0.51460822  0.02303483  1  0.068911  0  0.099502  0.100822  0  1.002863  0
H  H41  1  0.94389918  0.42660938  0.10605900  1  0.051768  0  0.097203  0.090226  0  1.009371  0
H  H42  1  0.96096948  0.25330385  0.08301371  1  0.062839  0  0.097549  0.091688  0  1.003708  0
H  H43  1  0.81817146  0.16991801  0.97313742  1  0.052183  0  0.098191  0.092424  0  0.998154  0
H  H44  1  0.65629020  0.25835627  0.89013092  1  0.06001  0  0.099735  0.09934  0  1.000202  0
H  H45  1  0.65616490  0.74718259  0.57955825  1  0.135222  0  0.126752  0.103544  0  0.986352  0
H  H46  1  0.67338350  0.26760013  0.53271643  1  0.133993  0  0.122017  0.099841  0  1.014855  0
H  H47  1  0.68171973  0.92148870  0.59962515  1  0.095281  0  0.113676  0.121902  0  0.98756  0
H  H48  1  0.71182290  0.09599733  0.54559075  1  0.066326  0  0.111819  0.119438  0  0.989638  0
H  H49  1  0.09741509  0.60036448  0.40716600  1  0.094068  0  0.09572  0.044604  0  1.039511  0
C  C50  1  0.51169619  0.50370324  0.33065045  1  1.569279  0  0.216171  0.591919  0  4.167718  0
C  C51  1  0.60595916  0.44405433  0.90453175  1  -0.048004  0  -0.004898  0.028136  0  3.974955  0
C  C52  1  0.42593818  0.54843627  0.81203268  1  0.024305  0  -0.083198  -0.145873  0  3.946982  0
C  C53  1  0.59596303  0.44158643  0.81246266  1  0.012416  0  -0.084798  -0.149592  0  3.954269  0
C  C54  1  0.50813215  0.49488813  0.76637305  1  0.028285  0  -0.016749  -0.00949  0  3.996367  0
C  C55  1  0.52046372  0.49674537  0.95081394  1  0.015131  0  -0.002325  -0.022021  0  3.912374  0
C  C56  1  0.43125701  0.90486702  0.45774993  1  -0.04133  0  -0.077768  -0.21807  0  3.927791  0
C  C57  1  0.40357742  0.09418897  0.49530077  1  0.060462  0  -0.080408  -0.21404  0  3.922595  0
C  C58  1  0.25218824  0.49951680  0.50618646  1  1.615461  0  0.222098  0.602261  0  4.11925  0
C  C59  1  0.41486451  0.80691207  0.45588149  1  0.499782  0  0.140074  0.238237  0  3.935247  0
C  C60  1  0.39019396  0.19026260  0.47919302  1  0.482758  0  0.139498  0.239037  0  3.938488  0
C  C61  1  0.91712805  0.40218354  0.53170641  1  1.003455  0  0.198459  0.50187  0  3.804643  0
C  C62  1  0.59171954  0.79489060  0.54684789  1  0.467938  0  0.05736  0.107842  0  3.918022  0
C  C63  1  0.59805594  0.21559736  0.52105282  1  0.452879  0  0.061189  0.118976  0  3.898616  0
C  C64  1  0.60673722  0.89261092  0.55637083  1  -0.012732  0  -0.081561  -0.183475  0  3.945325  0
C  C65  1  0.61839383  0.11931369  0.53017431  1  0.011577  0  -0.080598  -0.179606  0  3.939424  0
C  C66  1  0.52270313  0.95089851  0.51138231  1  0.011826  0  0.01411  0.116373  0  3.98311  0
C  C67  1  0.51826383  0.05524128  0.51543137  1  -0.067646  0  0.011753  0.108317  0  3.991593  0
C  C68  1  0.50138407  0.49505140  0.66793079  1  1.542074  0  0.214508  0.601267  0  4.161128  0
C  C69  1  0.72766039  0.50674581  0.51030894  1  1.590548  0  0.218477  0.604092  0  4.116504  0
C  C70  1  0.05536900  0.53173729  0.42345866  1  0.488234  0  0.021574  0.196891  0  3.794304  0
C  C71  1  0.07195493  0.57328809  0.57901508  1  0.463696  0  0.027551  0.208009  0  3.784592  0
C  C72  1  0.52615460  0.41501082  0.09622291  1  -0.108038  0  -0.088998  -0.188255  0  3.961444  0
C  C73  1  0.91453180  0.53432869  0.42449762  1  -0.01459  0  -0.161493  -0.260284  0  3.865176  0
C  C74  1  0.93078145  0.56829522  0.58569197  1  -0.014464  0  -0.164289  -0.262295  0  3.869434  0
C  C75  1  0.05790411  0.40257634  0.53873818  1  -0.067684  0  -0.174321  -0.347828  0  3.878662  0
C  C76  1  0.11143888  0.49926333  0.51260681  1  0.020887  0  -0.022934  -0.084693  0  3.811406  0
C  C77  1  0.86919747  0.50191462  0.51460660  1  0.044532  0  -0.0212  -0.085637  0  3.801436  0
C  C78  1  0.30079903  0.77243537  0.40637640  1  -0.062798  0  -0.006059  0.036761  0  3.975801  0
C  C79  1  0.30089209  0.71386518  0.33215613  1  -0.029888  0  -0.078556  -0.089719  0  3.914112  0
C  C80  1  0.19262555  0.69878804  0.27991751  1  -0.04196  0  -0.085325  -0.072038  0  3.985017  0
C  C81  1  0.08292492  0.74062619  0.30175549  1  -0.042019  0  -0.089583  -0.083723  0  4.011752  0
C  C82  1  0.08135835  0.79673316  0.37741990  1  -0.038195  0  -0.100192  -0.100156  0  4.059208  0
C  C83  1  0.54661283  0.58382641  0.09418752  1  -0.011077  0  -0.090644  -0.19144  0  3.964535  0
C  C84  1  0.18967105  0.81289401  0.42903812  1  -0.038159  0  -0.093221  -0.132801  0  4.004443  0
C  C85  1  0.27143418  0.21610032  0.43483300  1  -0.060473  0  -0.00966  0.03118  0  3.979058  0
C  C86  1  0.16065432  0.17044975  0.45837668  1  -0.069029  0  -0.09434  -0.133861  0  3.997947  0
C  C87  1  0.05254033  0.17923774  0.40619736  1  -0.03505  0  -0.097945  -0.09039  0  4.060354  0
C  C88  1  0.05296938  0.23347684  0.32957151  1  -0.028007  0  -0.089685  -0.083283  0  4.013034  0
C  C89  1  0.16181596  0.28032709  0.30700599  1  -0.057846  0  -0.086918  -0.067703  0  4.013647  0
C  C90  1  0.27035420  0.27211467  0.35905344  1  0.018802  0  -0.082554  -0.105512  0  3.925044  0
C  C91  1  0.55258112  0.32054183  0.22859521  1  0.001928  0  -0.001698  0.084787  0  3.973947  0
C  C92  1  0.65577553  0.30520749  0.28569353  1  -0.05651  0  -0.086269  -0.109445  0  3.942993  0
C  C93  1  0.68299694  0.21453225  0.31411733  1  -0.004037  0  -0.099234  -0.088864  0  4.042438  0
C  C94  1  0.53501038  0.41480797  0.18811798  1  0.070329  0  0.004629  0.076176  0  3.952211  0
C  C95  1  0.60715485  0.13726087  0.28681893  1  -0.082746  0  -0.105772  -0.103029  0  4.053343  0
C  C96  1  0.50392515  0.15162234  0.23063750  1  -0.047593  0  -0.101114  -0.091176  0  4.059623  0
C  C97  1  0.47750842  0.24240220  0.20127377  1  -0.017225  0  -0.091902  -0.132385  0  3.985324  0
C  C98  1  0.59381392  0.68074214  0.22546490  1  -0.005033  0  -0.006015  0.074638  0  3.987369  0
C  C99  1  0.53652735  0.76386503  0.19784213  1  -0.027985  0  -0.091648  -0.135525  0  3.978671  0
C  C100  1  0.57825096  0.85180594  0.23141120  1  -0.049819  0  -0.100636  -0.090137  0  4.048319  0
C  C101  1  0.67809017  0.85794153  0.29280010  1  -0.047993  0  -0.103976  -0.100243  0  4.056597  0
C  C102  1  0.73683099  0.77560858  0.31974427  1  -0.052952  0  -0.103359  -0.095605  0  4.051186  0
C  C103  1  0.69579868  0.68835976  0.28585014  1  -0.033038  0  -0.088692  -0.103053  0  3.970242  0
C  C104  1  0.33008419  0.59791281  0.94884260  1  0.01275  0  -0.005804  0.077065  0  3.993527  0
C  C105  1  0.55641889  0.58728271  0.18624377  1  -0.033817  0  0.002164  0.070452  0  3.952605  0
C  C106  1  0.25349953  0.55081372  0.00757366  1  -0.08171  0  -0.08878  -0.124165  0  3.965731  0
C  C107  1  0.15711316  0.59715110  0.04516491  1  -0.077217  0  -0.095013  -0.084047  0  4.044402  0
C  C108  1  0.13612566  0.69187844  0.02577854  1  -0.024941  0  -0.099035  -0.099117  0  4.046609  0
C  C109  1  0.21207861  0.73965130  0.96792548  1  -0.114327  0  -0.098922  -0.089119  0  4.060122  0
C  C110  1  0.30765388  0.69292597  0.92948845  1  -0.007453  0  -0.093248  -0.137169  0  3.984686  0
C  C111  1  0.70698631  0.39249355  0.95145164  1  -0.05101  0  -0.008084  0.070177  0  3.999917  0
C  C112  1  0.79017043  0.43898786  0.01199714  1  -0.060074  0  -0.089646  -0.122644  0  3.972797  0
C  C113  1  0.88102585  0.38942549  0.05863309  1  -0.062572  0  -0.096254  -0.083261  0  4.042731  0
C  C114  1  0.89106924  0.29232133  0.04551323  1  -0.004129  0  -0.098551  -0.093712  0  4.040897  0
C  C115  1  0.81090846  0.24569702  0.98397482  1  -0.095634  0  -0.096819  -0.08503  0  4.053643  0
C  C116  1  0.54049617  0.50221277  0.23472315  1  -0.044508  0  -0.016134  -0.137643  0  3.847918  0
C  C117  1  0.72007288  0.29541352  0.93706855  1  -0.022245  0  -0.094021  -0.137561  0  3.985551  0
C  C118  1  0.52780572  0.49876621  0.04821496  1  -0.100454  0  -0.003202  0.09621  0  4.06246  0
C  C119  1  0.42832293  0.54773274  0.90407820  1  -0.057211  0  -0.005541  0.026595  0  3.979594  0
N  N120  1  0.49699362  0.75178958  0.49961564  1  -1.232459  0  -0.302882  -0.236182  0  3.418532  0
N  N121  1  0.48813653  0.25114335  0.49422161  1  -1.193782  0  -0.30576  -0.244188  0  3.419015  0
O  O122  1  0.46742969  0.42799802  0.36296810  1  -1.17252  0  -0.304873  -0.540564  0  2.410096  0
O  O123  1  0.52644340  0.58137324  0.37295542  1  -1.171124  0  -0.306416  -0.545161  0  2.433307  0
O  O124  1  0.30432878  0.42154858  0.51858849  1  -1.161659  0  -0.303992  -0.522512  0  2.363457  0
O  O125  1  0.30305141  0.57794643  0.48661257  1  -1.177792  0  -0.311857  -0.555386  0  2.381526  0
O  O126  1  0.52431849  0.41818483  0.62941979  1  -1.165895  0  -0.321032  -0.550014  0  2.298437  0
O  O127  1  0.47288828  0.57290230  0.63147730  1  -1.165037  0  -0.323779  -0.556564  0  2.323875  0
O  O128  1  0.66816790  0.43293164  0.48377400  1  -1.172061  0  -0.313179  -0.555666  0  2.40973  0
O  O129  1  0.68270563  0.58583260  0.52851984  1  -1.174381  0  -0.314235  -0.546063  0  2.296516  0
F  F130  1  0.08887896  0.46907487  0.35610659  1  -0.635979  0  -0.1433  -0.197864  0  1.262157  0
F  F131  1  0.12916560  0.55445985  0.66292200  1  -0.628042  0  -0.149012  -0.204572  0  1.218093  0
F  F132  1  0.87549368  0.33911529  0.46508746  1  -0.636262  0  -0.118508  -0.21335  0  1.323699  0
F  F133  1  0.86817973  0.36545863  0.60844288  1  -0.629802  0  -0.135825  -0.226147  0  1.231848  0
