# generated using pymatgen
data_FeH2C4O3
_symmetry_space_group_name_H-M   'P 1'
_cell_length_a   7.01582283
_cell_length_b   15.02059087
_cell_length_c   15.04628612
_cell_angle_alpha   117.81715898
_cell_angle_beta   99.25109419
_cell_angle_gamma   98.34380614
_symmetry_Int_Tables_number   1
_chemical_formula_structural   FeH2C4O3
_chemical_formula_sum   'Fe6 H12 C24 O18'
_cell_volume   1339.40141029
_cell_formula_units_Z   6
loop_
 _symmetry_equiv_pos_site_id
 _symmetry_equiv_pos_as_xyz
  1  'x, y, z'
loop_
 _atom_site_type_symbol
 _atom_site_label
 _atom_site_symmetry_multiplicity
 _atom_site_fract_x
 _atom_site_fract_y
 _atom_site_fract_z
 _atom_site_occupancy
 _atom_site_hle17_ddec_charge
 _atom_site_hle17_ddec_spin_density
 _atom_site_hle17_ddec_sum_bond_order
 _atom_site_hle17_magmom
 _atom_site_hse06_10hf_ddec_charge
 _atom_site_hse06_10hf_ddec_spin_density
 _atom_site_hse06_10hf_ddec_sum_bond_order
 _atom_site_hse06_10hf_magmom
 _atom_site_hse06_ddec_charge
 _atom_site_hse06_ddec_spin_density
 _atom_site_hse06_ddec_sum_bond_order
 _atom_site_hse06_magmom
 _atom_site_pbe_cm5_charge
 _atom_site_pbe_ddec_charge
 _atom_site_pbe_ddec_spin_density
 _atom_site_pbe_ddec_sum_bond_order
 _atom_site_pbe_magmom
Fe  Fe0  1  0.47673989  0.26153551  0.58429748  1  1.03049  3.889163  2.416117  3.17  0.984205  3.347329  2.906105  2.933  1.069439  3.636798  2.819031  3.1  0.617929  0.914513  3.128392  2.968713  2.784
Fe  Fe1  1  0.21062153  0.32294414  0.73573786  1  1.020984  -3.506653  2.451087  -3.169  0.973408  -3.165897  2.944587  -2.939  1.053532  -3.342385  2.86079  -3.099  0.623074  0.909837  -3.053005  3.006358  -2.825
Fe  Fe2  1  0.89465136  0.41675567  0.67842539  1  1.000852  -3.470539  2.492541  -3.139  0.959195  -3.142896  2.985919  -2.921  1.04545  -3.335377  2.893921  -3.095  0.608283  0.8871  -2.979625  3.055829  -2.764
Fe  Fe3  1  0.52271542  0.73843576  0.41579809  1  1.032242  3.888013  2.421803  3.17  0.984774  3.343841  2.91165  2.93  1.070286  3.632673  2.824658  3.097  0.618291  0.915141  3.126926  2.973839  2.783
Fe  Fe4  1  0.78837352  0.67666444  0.26378030  1  1.023561  -3.508479  2.448535  -3.171  0.975176  -3.16714  2.941766  -2.939  1.055346  -3.343519  2.857814  -3.1  0.623422  0.911278  -3.053308  3.00382  -2.826
Fe  Fe5  1  0.10635911  0.58300220  0.32155439  1  1.003864  -3.476903  2.483942  -3.145  0.961965  -3.148716  2.976464  -2.926  1.048716  -3.339385  2.884264  -3.098  0.608259  0.889807  -2.989412  3.046804  -2.772
H  H6  1  0.18676157  0.55207709  0.52770844  1  0.135325  -1.7e-05  0.931446  0.0  0.144684  2.3e-05  0.989752  0.0  0.148144  5.1e-05  0.987958  0.0  0.118181  0.142014  -1.1e-05  0.991315  0.0
H  H7  1  0.63462514  0.97598394  0.44556202  1  0.135268  -0.000126  0.932271  0.0  0.144011  -0.000165  0.991605  0.0  0.147977  -0.000193  0.989064  0.0  0.117524  0.141375  -0.000119  0.993196  0.0
H  H8  1  0.65996983  0.47007682  0.02276993  1  0.134854  7.4e-05  0.933909  0.0  0.14333  -3e-05  0.993287  0.0  0.147481  6e-06  0.990625  0.0  0.117377  0.140718  -0.000104  0.994483  0.0
H  H9  1  0.81619766  0.44933597  0.47360923  1  0.135983  -1.4e-05  0.93151  0.0  0.144858  2.5e-05  0.990023  0.0  0.148259  5.3e-05  0.988378  0.0  0.118397  0.142197  -1.1e-05  0.991615  0.0
H  H10  1  0.36291763  0.02362464  0.55441852  1  0.13323  -0.000124  0.933236  0.0  0.141996  -0.000157  0.992766  0.0  0.14599  -0.000188  0.990145  0.0  0.116566  0.139303  -0.000107  0.99445  0.0
H  H11  1  0.33992111  0.52998724  0.97686965  1  0.134886  9.2e-05  0.933827  0.0  0.142898  -2.9e-05  0.99382  0.0  0.147032  7e-06  0.991178  0.0  0.117217  0.14028  -0.0001  0.995118  0.0
H  H12  1  0.65748085  0.77711736  0.52294633  1  -0.091962  -0.155953  0.648063  -0.238  -0.167346  -0.076858  0.815592  -0.107  -0.150547  -0.111677  0.785589  -0.154  -0.039563  -0.17647  -0.056117  0.834996  -0.079
H  H13  1  0.88231510  0.74328821  0.22345766  1  -0.081663  0.177067  0.645185  0.244  -0.162797  0.081673  0.816571  0.107  -0.147212  0.121882  0.788647  0.155  -0.03519  -0.168006  0.059347  0.832439  0.08
H  H14  1  0.13327967  0.47433822  0.25984975  1  -0.090633  0.176735  0.657426  0.241  -0.16359  0.085643  0.823329  0.11  -0.14481  0.125633  0.790955  0.158  -0.040905  -0.177284  0.06132  0.846738  0.08
H  H15  1  0.34441144  0.22275696  0.47652336  1  -0.088309  -0.158368  0.645168  -0.242  -0.165587  -0.07795  0.813504  -0.108  -0.148385  -0.112916  0.78322  -0.156  -0.039037  -0.175165  -0.057094  0.833286  -0.08
H  H16  1  0.11690988  0.25721024  0.77695410  1  -0.080417  0.177407  0.645421  0.245  -0.16179  0.081628  0.8169  0.107  -0.146505  0.121668  0.789163  0.155  -0.034579  -0.166829  0.059355  0.832594  0.08
H  H17  1  0.86676229  0.52508519  0.74046189  1  -0.089974  0.177039  0.659021  0.242  -0.163914  0.085097  0.825682  0.109  -0.145321  0.125167  0.793624  0.157  -0.040942  -0.177123  0.061001  0.848554  0.08
C  C18  1  0.26830811  0.43973952  0.61458913  1  0.691214  0.006068  3.777234  0.01  0.651019  0.002059  4.051587  0.004  0.693741  0.001474  4.042131  0.003  0.239837  0.617668  0.004858  4.059124  0.008
C  C19  1  0.82208210  0.17518232  0.55812120  1  0.693043  0.001575  3.775175  0.001  0.651125  0.00084  4.052641  0.0  0.694927  0.000286  4.041404  0.0  0.240053  0.617448  0.001768  4.062501  0.002
C  C20  1  0.65090876  0.38483514  0.82353321  1  0.689252  -0.000353  3.792424  -0.001  0.648077  -0.003619  4.071674  -0.006  0.689236  -0.002124  4.063211  -0.004  0.240079  0.617662  -0.005122  4.078367  -0.008
C  C21  1  0.73340273  0.56045409  0.38551814  1  0.68953  0.006352  3.775771  0.01  0.649909  0.002389  4.053147  0.005  0.691747  0.001608  4.043482  0.003  0.239321  0.616416  0.005466  4.060746  0.009
C  C22  1  0.17574469  0.82455024  0.44126413  1  0.692394  0.001446  3.778889  0.001  0.649264  0.000972  4.057219  0.0  0.692975  0.000347  4.046285  0.0  0.239686  0.615927  0.00216  4.06671  0.002
C  C23  1  0.34904482  0.61479231  0.17609221  1  0.69227  -0.000449  3.788951  -0.001  0.649626  -0.003662  4.06818  -0.006  0.690301  -0.002128  4.059659  -0.004  0.241078  0.618354  -0.005164  4.074819  -0.008
C  C24  1  0.39054152  0.46850173  0.55588830  1  -0.156674  -0.003822  3.73985  -0.006  -0.140307  -0.002868  3.972813  -0.004  -0.153548  -0.002146  3.999303  -0.003  -0.017012  -0.131764  -0.002927  3.95641  -0.004
C  C25  1  0.91765358  0.08749623  0.53232568  1  -0.159023  0.00146  3.738137  0.001  -0.143687  0.001653  3.973881  0.002  -0.15714  0.001078  3.999513  0.001  -0.017873  -0.133972  0.002227  3.956806  0.002
C  C26  1  0.83322019  0.44491337  0.91167180  1  -0.14882  -0.002428  3.725818  -0.005  -0.137164  -0.003326  3.965802  -0.006  -0.149907  -0.001811  3.992592  -0.004  -0.016199  -0.13008  -0.005212  3.950029  -0.008
C  C27  1  0.61201381  0.53256151  0.44509792  1  -0.147301  -0.003652  3.727559  -0.005  -0.140274  -0.002731  3.972797  -0.004  -0.150378  -0.002002  3.99538  -0.003  -0.016976  -0.131727  -0.002955  3.956416  -0.004
C  C28  1  0.07992543  0.91214004  0.46755138  1  -0.159746  0.001668  3.739715  0.001  -0.144298  0.001758  3.976355  0.002  -0.157423  0.001164  4.00166  0.001  -0.018361  -0.135128  0.002353  3.959599  0.003
C  C29  1  0.16675068  0.55497476  0.08800385  1  -0.156597  -0.001956  3.735642  -0.004  -0.140216  -0.003127  3.969328  -0.006  -0.150741  -0.001613  3.993078  -0.004  -0.015879  -0.13066  -0.005022  3.950524  -0.008
C  C30  1  0.57212056  0.43949503  0.54065024  1  0.322713  -0.001305  3.800149  -0.003  0.309884  -0.001566  4.05712  -0.003  0.320931  -0.000991  4.085326  -0.003  0.089224  0.302309  -0.002064  4.037793  -0.004
C  C31  1  0.12755148  0.10139091  0.56413056  1  0.321799  0.000803  3.799926  0.001  0.309465  0.000932  4.059771  0.001  0.321195  0.00053  4.086332  0.0  0.08708  0.300663  0.001352  4.040899  0.001
C  C32  1  0.02914109  0.46217581  0.89871041  1  0.31703  -0.001248  3.789732  -0.005  0.306041  -0.002655  4.04943  -0.006  0.315813  -0.001054  4.076818  -0.005  0.0881  0.299413  -0.004821  4.030563  -0.008
C  C33  1  0.43057096  0.56174326  0.46048975  1  0.319443  -0.0015  3.79709  -0.003  0.310117  -0.001725  4.055596  -0.003  0.320199  -0.00111  4.083232  -0.003  0.089428  0.302699  -0.002119  4.036316  -0.004
C  C34  1  0.87001893  0.89820469  0.43598548  1  0.322125  0.000977  3.799588  0.001  0.309549  0.001085  4.059724  0.001  0.321035  0.000725  4.086113  0.0  0.086954  0.301391  0.00143  4.040857  0.002
C  C35  1  0.97083016  0.53771784  0.10100241  1  0.320999  -0.001747  3.79178  -0.005  0.308487  -0.002881  4.050902  -0.006  0.317685  -0.001306  4.077894  -0.006  0.088919  0.301152  -0.005015  4.031672  -0.008
C  C36  1  0.32472982  0.52908023  0.51547188  1  -0.150916  -0.000109  3.685964  0.0  -0.182062  -0.001064  3.933477  -0.002  -0.187504  -0.000374  3.957594  -0.001  -0.082486  -0.178206  -0.001214  3.917431  -0.002
C  C37  1  0.79489335  0.98640430  0.46984998  1  -0.150982  0.000139  3.685975  0.0  -0.183698  0.000258  3.937169  0.0  -0.188314  0.000104  3.959744  0.0  -0.085363  -0.18008  0.000116  3.921313  0.0
C  C38  1  0.80960461  0.48355020  0.01261224  1  -0.150911  -0.0041  3.683907  -0.006  -0.180677  -0.003988  3.933106  -0.006  -0.186142  -0.002224  3.957268  -0.004  -0.082263  -0.174882  -0.006602  3.915439  -0.009
C  C39  1  0.67818052  0.47230101  0.48582547  1  -0.154469  -0.00019  3.683406  -0.001  -0.182052  -0.001034  3.933948  -0.002  -0.188416  -0.000418  3.957036  -0.001  -0.082602  -0.178282  -0.001044  3.918054  -0.001
C  C40  1  0.20269229  0.01321673  0.53017930  1  -0.148554  0.000198  3.684732  0.0  -0.181479  0.000429  3.935997  0.001  -0.186089  0.000254  3.958321  0.001  -0.085066  -0.177714  0.000382  3.920495  0.0
C  C41  1  0.19033064  0.51642589  0.98704668  1  -0.148643  -0.004674  3.686258  -0.007  -0.179402  -0.004222  3.934006  -0.006  -0.185396  -0.002434  3.957268  -0.004  -0.082419  -0.174447  -0.006924  3.915677  -0.01
O  O42  1  0.33029486  0.38488472  0.65339010  1  -0.616595  -0.002965  2.236492  -0.012  -0.553537  0.005508  2.504122  0.006  -0.598903  0.003006  2.494036  0.001  -0.30274  -0.5181  0.004379  2.510323  0.003
O  O43  1  0.93587725  0.26748789  0.60389325  1  -0.605469  -0.02692  2.219965  -0.038  -0.545685  -0.022553  2.480355  -0.028  -0.589132  -0.021148  2.469008  -0.024  -0.295869  -0.514876  -0.023057  2.490822  -0.03
O  O44  1  0.67603505  0.33788829  0.73119962  1  -0.612331  0.00879  2.210217  0.013  -0.554009  -0.003623  2.472232  -0.009  -0.598477  0.00084  2.463625  -0.003  -0.297717  -0.519456  -0.007329  2.474959  -0.014
O  O45  1  0.66930809  0.61355230  0.34508339  1  -0.616498  -0.003119  2.230528  -0.012  -0.552368  0.00655  2.49523  0.007  -0.597231  0.003685  2.485786  0.003  -0.302522  -0.517136  0.005818  2.500962  0.005
O  O46  1  0.06240829  0.73210334  0.39508355  1  -0.605244  -0.026685  2.221198  -0.037  -0.543812  -0.022073  2.481307  -0.027  -0.58815  -0.020764  2.470928  -0.024  -0.295322  -0.512837  -0.022336  2.491677  -0.028
O  O47  1  0.32456756  0.66051202  0.26864491  1  -0.611791  0.008862  2.215389  0.013  -0.553875  -0.003015  2.479395  -0.008  -0.599015  0.001046  2.471079  -0.002  -0.297793  -0.518717  -0.006293  2.482149  -0.012
O  O48  1  0.10983483  0.46999634  0.62637378  1  -0.564243  -0.021351  2.061303  -0.035  -0.510265  -0.020897  2.307452  -0.032  -0.550617  -0.014619  2.296132  -0.02  -0.285364  -0.477669  -0.028387  2.312653  -0.045
O  O49  1  0.63127017  0.15549123  0.53148793  1  -0.569722  0.031211  2.040276  0.038  -0.510077  0.026294  2.291069  0.031  -0.551175  0.021022  2.278292  0.02  -0.294188  -0.479833  0.030743  2.300687  0.04
O  O50  1  0.48084168  0.38095324  0.84293678  1  -0.569683  -0.031588  2.039611  -0.049  -0.512588  -0.032544  2.283645  -0.049  -0.551996  -0.024803  2.273762  -0.035  -0.288925  -0.483689  -0.039916  2.291239  -0.062
O  O51  1  0.89286312  0.53090735  0.37473574  1  -0.566292  -0.021195  2.064379  -0.035  -0.510896  -0.019993  2.310569  -0.03  -0.551377  -0.014077  2.299022  -0.019  -0.286066  -0.478046  -0.027594  2.315858  -0.043
O  O52  1  0.36654197  0.84428605  0.46770451  1  -0.571157  0.032633  2.037922  0.04  -0.510706  0.028991  2.287273  0.035  -0.551809  0.022983  2.275089  0.023  -0.29399  -0.480202  0.034499  2.295764  0.046
O  O53  1  0.51900958  0.61963809  0.15658404  1  -0.569705  -0.031625  2.037949  -0.049  -0.512068  -0.032429  2.282557  -0.049  -0.551826  -0.024501  2.27328  -0.035  -0.289325  -0.482999  -0.039798  2.290442  -0.062
O  O54  1  0.64651769  0.38004260  0.57592261  1  -0.591311  -0.004261  2.276531  0.001  -0.522708  -0.007785  2.557161  -0.006  -0.579561  -0.004471  2.558569  0.0  -0.335073  -0.478841  -0.006856  2.556593  -0.005
O  O55  1  0.26070228  0.19524893  0.62688363  1  -0.595607  -0.011704  2.260598  -0.021  -0.531039  -0.008263  2.540426  -0.016  -0.586313  -0.006786  2.541765  -0.012  -0.333033  -0.487451  -0.008816  2.537455  -0.018
O  O56  1  0.07026688  0.43082493  0.80468806  1  -0.591602  -0.042517  2.279062  -0.051  -0.525739  -0.046776  2.566615  -0.057  -0.579336  -0.035692  2.562495  -0.032  -0.337552  -0.482626  -0.058669  2.569833  -0.084
O  O57  1  0.35561821  0.62083358  0.42479094  1  -0.591888  -0.004526  2.276875  0.001  -0.52459  -0.009492  2.558462  -0.009  -0.581769  -0.005493  2.560477  -0.002  -0.33548  -0.480917  -0.009337  2.558692  -0.009
O  O58  1  0.73689531  0.80431171  0.37328320  1  -0.59584  -0.012094  2.263179  -0.023  -0.531137  -0.009785  2.543828  -0.019  -0.586  -0.008136  2.544159  -0.016  -0.333457  -0.488619  -0.010934  2.54214  -0.021
O  O59  1  0.92987023  0.56897175  0.19498014  1  -0.592778  -0.042517  2.273614  -0.051  -0.527622  -0.047448  2.561362  -0.059  -0.58097  -0.036219  2.557192  -0.034  -0.337147  -0.484834  -0.059356  2.565106  -0.086
