# generated using pymatgen
data_Al2H9C12NO12
_symmetry_space_group_name_H-M   'P 1'
_cell_length_a   6.67618521
_cell_length_b   13.38319468
_cell_length_c   17.04934608
_cell_angle_alpha   90.52777502
_cell_angle_beta   89.82042522
_cell_angle_gamma   90.31543959
_symmetry_Int_Tables_number   1
_chemical_formula_structural   Al2H9C12NO12
_chemical_formula_sum   'Al4 H18 C24 N2 O24'
_cell_volume   1523.24172158
_cell_formula_units_Z   2
loop_
 _symmetry_equiv_pos_site_id
 _symmetry_equiv_pos_as_xyz
  1  'x, y, z'
loop_
 _atom_site_type_symbol
 _atom_site_label
 _atom_site_symmetry_multiplicity
 _atom_site_fract_x
 _atom_site_fract_y
 _atom_site_fract_z
 _atom_site_occupancy
 _atom_site_pbe_bader_charge
 _atom_site_pbe_bader_spin_density
 _atom_site_pbe_cm5_charge
 _atom_site_pbe_ddec_charge
 _atom_site_pbe_ddec_spin_density
 _atom_site_pbe_ddec_sum_bond_order
 _atom_site_pbe_magmom
Al  Al0  1  0.11069092  0.50649227  0.49716100  1  2.50109  0  0.399632  1.648883  0  2.580793  0
Al  Al1  1  0.60809669  0.50229626  0.49827607  1  2.50197  0  0.400615  1.644267  0  2.57353  0
Al  Al2  1  0.61553741  0.00059478  0.00391122  1  2.499694  0  0.39594  1.644371  0  2.578358  0
Al  Al3  1  0.11726585  0.99845238  0.00479368  1  2.502723  0  0.398491  1.641047  0  2.57989  0
H  H4  1  0.03299632  0.20540120  0.81186871  1  0.120085  0  0.119607  0.145883  0  1.02444  0
H  H5  1  0.57547180  0.29485331  0.69075200  1  0.165363  0  0.126821  0.14392  0  0.99358  0
H  H6  1  0.70746132  0.28383392  0.31179214  1  0.105701  0  0.1118  0.128692  0  0.990054  0
H  H7  1  0.16929300  0.18805530  0.19982464  1  0.12483  0  0.115768  0.114775  0  0.975251  0
H  H8  1  0.06281675  0.80935802  0.80801226  1  0.084908  0  0.111463  0.107307  0  0.981857  0
H  H9  1  0.52271300  0.79147775  0.80834375  1  0.093151  0  0.111052  0.125619  0  0.989491  0
H  H10  1  0.06076647  0.69652144  0.69387000  1  0.114694  0  0.111164  0.105377  0  0.982646  0
H  H11  1  0.52153224  0.71078777  0.69380967  1  0.062649  0  0.110725  0.126264  0  0.990687  0
H  H12  1  0.06548539  0.79547492  0.18718401  1  0.108121  0  0.115655  0.114864  0  0.974556  0
H  H13  1  0.52156808  0.81631250  0.21043336  1  0.076293  0  0.111677  0.126991  0  0.98974  0
H  H14  1  0.06458783  0.70110354  0.31179716  1  0.101588  0  0.115062  0.112989  0  0.975854  0
H  H15  1  0.52256261  0.68668576  0.29138062  1  0.105698  0  0.111996  0.128499  0  0.989407  0
H  H16  1  0.16530230  0.31435961  0.30689162  1  0.104823  0  0.114908  0.112473  0  0.977029  0
H  H17  1  0.71236444  0.21757259  0.19078367  1  0.079909  0  0.112416  0.12767  0  0.987977  0
H  H18  1  0.35229316  0.37545783  0.52165259  1  0.638514  0  0.356657  0.438749  0  0.84081  0
H  H19  1  0.85548145  0.62727375  0.52896694  1  0.602423  0  0.353371  0.43042  0  0.853362  0
H  H20  1  0.36318884  0.12305024  0.97134966  1  0.604087  0  0.347031  0.429234  0  0.863166  0
H  H21  1  0.86299747  0.87581777  0.97344311  1  0.620227  0  0.351896  0.429687  0  0.855266  0
C  C22  1  0.35923990  0.62471031  0.60596584  1  1.545984  0  0.260243  0.68345  0  4.110369  0
C  C23  1  0.36586220  0.61506006  0.38759412  1  1.552423  0  0.26179  0.677285  0  4.119934  0
C  C24  1  0.86275392  0.38196809  0.39390583  1  1.573696  0  0.262407  0.681745  0  4.113907  0
C  C25  1  0.85841978  0.39033062  0.60909482  1  1.670724  0  0.268412  0.62663  0  4.155283  0
C  C26  1  0.72404679  0.21781962  0.78539736  1  0.165354  0  0.093592  0.12703  0  3.924293  0
C  C27  1  0.88049581  0.18430158  0.82744325  1  0.057672  0  -0.06553  -0.249658  0  3.768001  0
C  C28  1  0.72173964  0.28204455  0.71753112  1  0.106095  0  -0.054696  -0.127184  0  3.922177  0
C  C29  1  0.87559396  0.32858823  0.68159709  1  0.172407  0  0.088218  -0.047401  0  3.826572  0
C  C30  1  0.02178875  0.28443564  0.28639886  1  -0.052069  0  -0.063306  -0.015988  0  3.973841  0
C  C31  1  0.85628230  0.31194180  0.32676207  1  -0.056272  0  -0.084312  -0.237249  0  3.879198  0
C  C32  1  0.02445086  0.21737512  0.21899630  1  -0.102205  0  -0.065442  -0.024896  0  3.976746  0
C  C33  1  0.86173421  0.18953176  0.17718223  1  0.020432  0  -0.079672  -0.223719  0  3.871125  0
C  C34  1  0.20779428  0.78398573  0.78577538  1  0.041601  0  -0.064791  -0.019827  0  3.969505  0
C  C35  1  0.37205273  0.81379812  0.82583249  1  -0.108311  0  -0.079444  -0.21841  0  3.857858  0
C  C36  1  0.20672931  0.72076871  0.71612297  1  -0.028007  0  -0.063697  -0.013512  0  3.972815  0
C  C37  1  0.37011326  0.68976059  0.67606549  1  -0.035967  0  -0.083276  -0.22939  0  3.871112  0
C  C38  1  0.20915809  0.78092204  0.21540224  1  -0.062517  0  -0.065255  -0.024186  0  3.971387  0
C  C39  1  0.37361113  0.82466841  0.18439841  1  -0.028917  0  -0.080937  -0.226098  0  3.873361  0
C  C40  1  0.20895112  0.71772325  0.28422005  1  -0.030776  0  -0.063338  -0.017424  0  3.969618  0
C  C41  1  0.37336699  0.67670302  0.31648239  1  -0.042157  0  -0.084051  -0.234795  0  3.877926  0
C  C42  1  0.36912538  0.88745029  0.11373715  1  1.563448  0  0.261194  0.674127  0  4.122316  0
C  C43  1  0.36275011  0.87906942  0.89606171  1  1.563712  0  0.259912  0.680505  0  4.113258  0
C  C44  1  0.86748825  0.11703559  0.89588239  1  1.593093  0  0.263054  0.68656  0  4.099084  0
C  C45  1  0.87095322  0.11964494  0.10982860  1  1.55283  0  0.261728  0.674344  0  4.118502  0
N  N46  1  0.51561545  0.18596487  0.80643939  1  0.426715  0  0.063061  0.510486  0  4.23158  0
N  N47  1  0.08448228  0.32368746  0.70909823  1  0.397692  0  0.058947  0.53203  0  4.240103  0
O  O48  1  0.53476112  0.58486296  0.41285148  1  -1.251915  0  -0.236717  -0.590651  0  2.303628  0
O  O49  1  0.18750863  0.59815700  0.58019647  1  -1.265449  0  -0.241709  -0.609995  0  2.327336  0
O  O50  1  0.02564413  0.41306953  0.57830285  1  -1.235976  0  -0.230977  -0.584442  0  2.376493  0
O  O51  1  0.19598785  0.59699325  0.41908370  1  -1.258289  0  -0.236254  -0.599814  0  2.332193  0
O  O52  1  0.03214255  0.41550677  0.41651814  1  -1.265717  0  -0.236433  -0.596473  0  2.334442  0
O  O53  1  0.52840860  0.60021525  0.57592843  1  -1.258073  0  -0.24521  -0.614605  0  2.305683  0
O  O54  1  0.35745227  0.44287200  0.50155360  1  -1.439701  0  -0.447248  -0.99387  0  2.196528  0
O  O55  1  0.69368865  0.40335906  0.42511249  1  -1.253794  0  -0.240807  -0.600442  0  2.307408  0
O  O56  1  0.68437407  0.41266501  0.58610654  1  -1.236556  0  -0.226975  -0.55813  0  2.306281  0
O  O57  1  0.85828353  0.56406346  0.50074350  1  -1.403814  0  -0.446367  -0.987527  0  2.189636  0
O  O58  1  0.19140234  0.90801989  0.92027083  1  -1.258465  0  -0.240825  -0.608306  0  2.327881  0
O  O59  1  0.53944315  0.91899234  0.09001392  1  -1.246945  0  -0.234865  -0.586985  0  2.307386  0
O  O60  1  0.70300779  0.09907734  0.07768079  1  -1.248011  0  -0.236509  -0.589681  0  2.309124  0
O  O61  1  0.53183255  0.90069379  0.92731843  1  -1.252591  0  -0.243772  -0.610608  0  2.300481  0
O  O62  1  0.69522347  0.08675025  0.91762247  1  -1.23884  0  -0.234483  -0.596866  0  2.355542  0
O  O63  1  0.20119505  0.90503618  0.08149829  1  -1.259732  0  -0.23542  -0.594034  0  2.32779  0
O  O64  1  0.36635646  0.06107877  0.00051719  1  -1.402962  0  -0.447611  -0.988338  0  2.183038  0
O  O65  1  0.03497066  0.09606729  0.92691813  1  -1.22843  0  -0.229471  -0.582613  0  2.315661  0
O  O66  1  0.04071281  0.08584278  0.08848107  1  -1.260045  0  -0.233974  -0.588251  0  2.325885  0
O  O67  1  0.86501058  0.93879368  0.00198280  1  -1.423199  0  -0.447781  -0.99004  0  2.190373  0
O  O68  1  0.42406880  0.23970213  0.85348368  1  -0.420384  0  -0.11033  -0.307014  0  1.912092  0
O  O69  1  0.44833162  0.11248555  0.77118184  1  -0.418626  0  -0.10608  -0.290602  0  1.891862  0
O  O70  1  0.19066664  0.25641872  0.68138150  1  -0.443637  0  -0.112142  -0.309662  0  1.905662  0
O  O71  1  0.13858732  0.38901815  0.75612080  1  -0.404068  0  -0.106597  -0.293486  0  1.856793  0
