# generated using pymatgen
data_TbH11C17O11
_symmetry_space_group_name_H-M   'P 1'
_cell_length_a   7.29160424
_cell_length_b   9.17152925
_cell_length_c   12.72328695
_cell_angle_alpha   75.17217162
_cell_angle_beta   85.21727693
_cell_angle_gamma   89.63311088
_symmetry_Int_Tables_number   1
_chemical_formula_structural   TbH11C17O11
_chemical_formula_sum   'Tb2 H22 C34 O22'
_cell_volume   819.57462295
_cell_formula_units_Z   2
loop_
 _symmetry_equiv_pos_site_id
 _symmetry_equiv_pos_as_xyz
  1  'x, y, z'
loop_
 _atom_site_type_symbol
 _atom_site_label
 _atom_site_symmetry_multiplicity
 _atom_site_fract_x
 _atom_site_fract_y
 _atom_site_fract_z
 _atom_site_occupancy
 _atom_site_hle17_bader_spin_density
 _atom_site_hle17_ddec_charge
 _atom_site_hle17_ddec_spin_density
 _atom_site_hle17_ddec_sum_bond_order
 _atom_site_hle17_magmom
 _atom_site_hse06_10hf_bader_spin_density
 _atom_site_hse06_10hf_ddec_charge
 _atom_site_hse06_10hf_ddec_spin_density
 _atom_site_hse06_10hf_ddec_sum_bond_order
 _atom_site_hse06_10hf_magmom
 _atom_site_hse06_bader_spin_density
 _atom_site_hse06_ddec_charge
 _atom_site_hse06_ddec_spin_density
 _atom_site_hse06_ddec_sum_bond_order
 _atom_site_hse06_magmom
 _atom_site_pbe_bader_spin_density
 _atom_site_pbe_cm5_charge
 _atom_site_pbe_ddec_charge
 _atom_site_pbe_ddec_spin_density
 _atom_site_pbe_ddec_sum_bond_order
 _atom_site_pbe_magmom
Tb  Tb0  1  0.74835139  0.94729691  0.95975267  1  0  2.299398  0  1.573602  0  0  2.149987  0  2.031939  0  0  2.274662  0  1.850159  0  0  1.494918  2.115347  0  2.061189  0
Tb  Tb1  1  0.25165320  0.05270880  0.04024491  1  0  2.299382  0  1.573609  0  0  2.14998  0  2.031908  0  0  2.274641  0  1.850168  0  0  1.494924  2.115337  0  2.061167  0
H  H2  1  0.36190795  0.70407536  0.84140894  1  0  0.419154  0  0.871532  0  0  0.384552  0  0.952382  0  0  0.39853  0  0.932805  0  0  0.309853  0.374898  0  0.962816  0
H  H3  1  0.63810937  0.29592543  0.15859366  1  0  0.419153  0  0.87157  0  0  0.384468  0  0.95252  0  0  0.398439  0  0.932956  0  0  0.3098  0.374819  0  0.963015  0
H  H4  1  0.09123489  0.04079042  0.80926582  1  0  0.430661  0  0.88176  0  0  0.397346  0  0.949436  0  0  0.408604  0  0.93361  0  0  0.298424  0.389401  0  0.960789  0
H  H5  1  0.90876703  0.95921413  0.19073374  1  0  0.430686  0  0.881724  0  0  0.39737  0  0.949402  0  0  0.40863  0  0.933573  0  0  0.298435  0.389426  0  0.960754  0
H  H6  1  0.93161450  0.01335455  0.73534282  1  0  0.445007  0  0.807315  0  0  0.426794  0  0.860828  0  0  0.435143  0  0.852065  0  0  0.329121  0.421006  0  0.867466  0
H  H7  1  0.06839345  0.98663547  0.26465705  1  0  0.445051  0  0.807276  0  0  0.426837  0  0.860791  0  0  0.435188  0  0.852024  0  0  0.32912  0.421049  0  0.86743  0
H  H8  1  0.74495883  0.64490528  0.91047743  1  0  0.450122  0  0.805873  0  0  0.423408  0  0.875692  0  0  0.432047  0  0.863553  0  0  0.324333  0.417213  0  0.882796  0
H  H9  1  0.25500638  0.35510948  0.08950557  1  0  0.45013  0  0.805922  0  0  0.423402  0  0.87574  0  0  0.432044  0  0.863595  0  0  0.324256  0.417208  0  0.882882  0
H  H10  1  0.89697635  0.73874536  0.82320990  1  0  0.450023  0  0.842603  0  0  0.419266  0  0.905934  0  0  0.429806  0  0.890591  0  0  0.306988  0.41192  0  0.916788  0
H  H11  1  0.10302149  0.26125790  0.17679015  1  0  0.450101  0  0.842522  0  0  0.41932  0  0.905878  0  0  0.429859  0  0.890536  0  0  0.30701  0.411973  0  0.916732  0
H  H12  1  0.55426523  0.55964565  0.19999188  1  0  0.129056  0  0.939488  0  0  0.135073  0  1.005479  0  0  0.139849  0  1.00137  0  0  0.114731  0.131652  0  1.008398  0
H  H13  1  0.44573721  0.44034895  0.80001364  1  0  0.129006  0  0.939547  0  0  0.135027  0  1.005556  0  0  0.139822  0  1.00142  0  0  0.114714  0.131604  0  1.008476  0
H  H14  1  0.07696434  0.41106592  0.42677114  1  0  0.100102  0  0.940909  0  0  0.112398  0  0.996659  0  0  0.114967  0  0.996214  0  0  0.108033  0.110441  0  0.997144  0
H  H15  1  0.92302542  0.58892528  0.57322164  1  0  0.100106  0  0.940833  0  0  0.112396  0  0.9966  0  0  0.114964  0  0.996157  0  0  0.108012  0.110436  0  0.997088  0
H  H16  1  0.87560160  0.55676302  0.29090356  1  0  0.119399  0  0.946757  0  0  0.125032  0  1.012494  0  0  0.129006  0  1.009322  0  0  0.109988  0.122199  0  1.014777  0
H  H17  1  0.12439876  0.44323875  0.70908644  1  0  0.119299  0  0.946809  0  0  0.124956  0  1.012524  0  0  0.128919  0  1.009363  0  0  0.109979  0.122149  0  1.01478  0
H  H18  1  0.52811931  0.29829253  0.61107897  1  0  0.109418  0  0.967353  0  0  0.114342  0  1.036723  0  0  0.117581  0  1.035115  0  0  0.10785  0.112309  0  1.037447  0
H  H19  1  0.47187159  0.70171035  0.38891919  1  0  0.109376  0  0.967376  0  0  0.114302  0  1.036742  0  0  0.117543  0  1.035128  0  0  0.10783  0.112265  0  1.037469  0
H  H20  1  0.15599017  0.92090939  0.49754843  1  0  0.103611  0  0.935167  0  0  0.115378  0  0.991592  0  0  0.118512  0  0.990345  0  0  0.108763  0.113292  0  0.992334  0
H  H21  1  0.84400821  0.07908395  0.50245836  1  0  0.103554  0  0.935189  0  0  0.11534  0  0.9916  0  0  0.118474  0  0.990351  0  0  0.108756  0.113256  0  0.992341  0
H  H22  1  0.23855752  0.16995963  0.36627403  1  0  0.11043  0  0.950973  0  0  0.117718  0  1.017128  0  0  0.122036  0  1.013659  0  0  0.107809  0.114775  0  1.01941  0
H  H23  1  0.76143117  0.83003203  0.63372973  1  0  0.1104  0  0.950971  0  0  0.117683  0  1.017115  0  0  0.121977  0  1.013677  0  0  0.107765  0.114733  0  1.019399  0
C  C24  1  0.09988064  0.63644299  0.16798947  1  0  -0.062159  0  3.713204  0  0  -0.051643  0  3.948745  0  0  -0.056484  0  3.967412  0  0  -0.003622  -0.048095  0  3.936558  0
C  C25  1  0.90012397  0.36356155  0.83200758  1  0  -0.062237  0  3.713038  0  0  -0.051772  0  3.948673  0  0  -0.056621  0  3.967349  0  0  -0.003552  -0.048221  0  3.936494  0
C  C26  1  0.29161936  0.63615272  0.14231445  1  0  -0.068627  0  3.723264  0  0  -0.057562  0  3.964845  0  0  -0.061259  0  3.983652  0  0  -0.000657  -0.055461  0  3.953449  0
C  C27  1  0.70838676  0.36385210  0.85768717  1  0  -0.068661  0  3.723347  0  0  -0.057569  0  3.964973  0  0  -0.061281  0  3.98379  0  0  -0.000666  -0.055465  0  3.953574  0
C  C28  1  0.40576746  0.55874541  0.21968923  1  0  -0.073191  0  3.647221  0  0  -0.108218  0  3.9025  0  0  -0.107987  0  3.918656  0  0  -0.070237  -0.108875  0  3.891849  0
C  C29  1  0.59423474  0.44125358  0.78031303  1  0  -0.073084  0  3.64708  0  0  -0.10815  0  3.902416  0  0  -0.107935  0  3.918559  0  0  -0.07023  -0.108805  0  3.891758  0
C  C30  1  0.32865170  0.47567295  0.32207639  1  0  -0.023564  0  3.753611  0  0  -0.008172  0  3.994143  0  0  -0.012571  0  4.015814  0  0  -0.010681  -0.00519  0  3.979386  0
C  C31  1  0.67134227  0.52432216  0.67792321  1  0  -0.023668  0  3.753558  0  0  -0.008325  0  3.994087  0  0  -0.012706  0  4.015735  0  0  -0.010704  -0.005345  0  3.979331  0
C  C32  1  0.13741918  0.47458043  0.34712897  1  0  -0.065827  0  3.699728  0  0  -0.090093  0  3.950448  0  0  -0.091311  0  3.970598  0  0  -0.073118  -0.08871  0  3.936382  0
C  C33  1  0.86257745  0.52541344  0.65286602  1  0  -0.065846  0  3.699731  0  0  -0.090113  0  3.950482  0  0  -0.09134  0  3.970621  0  0  -0.073116  -0.088729  0  3.936425  0
C  C34  1  0.02377424  0.55588767  0.27087512  1  0  -0.038099  0  3.675211  0  0  -0.062657  0  3.928685  0  0  -0.061801  0  3.945196  0  0  -0.070315  -0.063343  0  3.917306  0
C  C35  1  0.97622487  0.44411306  0.72911831  1  0  -0.037911  0  3.675073  0  0  -0.062485  0  3.928596  0  0  -0.06161  0  3.9451  0  0  -0.07034  -0.063196  0  3.91721  0
C  C36  1  0.97922978  0.72980308  0.08899324  1  0  0.677356  0  3.86899  0  0  0.631531  0  4.156596  0  0  0.666085  0  4.154002  0  0  0.21059  0.607585  0  4.163766  0
C  C37  1  0.02078028  0.27020161  0.91100189  1  0  0.677547  0  3.868911  0  0  0.631777  0  4.156443  0  0  0.666331  0  4.153845  0  0  0.210718  0.60783  0  4.163614  0
C  C38  1  0.37278624  0.70660340  0.02828119  1  0  0.739082  0  3.808358  0  0  0.685487  0  4.109062  0  0  0.720992  0  4.101073  0  0  0.246938  0.661288  0  4.117559  0
C  C39  1  0.62722687  0.29339948  0.97172123  1  0  0.739171  0  3.808332  0  0  0.685557  0  4.109041  0  0  0.721093  0  4.101005  0  0  0.247038  0.661354  0  4.117538  0
C  C40  1  0.45455884  0.39249141  0.40253426  1  0  0.394381  0  3.719456  0  0  0.373891  0  3.981808  0  0  0.395751  0  3.984096  0  0  0.167335  0.358402  0  3.981138  0
C  C41  1  0.54543377  0.60750367  0.59746621  1  0  0.394392  0  3.719343  0  0  0.374115  0  3.981419  0  0  0.395965  0  3.983715  0  0  0.167415  0.358623  0  3.980754  0
C  C42  1  0.38717890  0.24939179  0.48135017  1  0  -0.021275  0  3.74823  0  0  -0.005417  0  3.985572  0  0  -0.010852  0  4.008788  0  0  -0.011307  -0.002329  0  3.971704  0
C  C43  1  0.61281374  0.75060333  0.51865107  1  0  -0.021403  0  3.74813  0  0  -0.005683  0  3.985544  0  0  -0.011119  0  4.008756  0  0  -0.01137  -0.002567  0  3.971622  0
C  C44  1  0.44452539  0.21637951  0.58715876  1  0  -0.067843  0  3.673427  0  0  -0.101633  0  3.921053  0  0  -0.100678  0  3.938197  0  0  -0.071481  -0.101407  0  3.908848  0
C  C45  1  0.55546849  0.78361905  0.41284171  1  0  -0.06771  0  3.673321  0  0  -0.101479  0  3.920946  0  0  -0.10052  0  3.938088  0  0  -0.071451  -0.101259  0  3.908746  0
C  C46  1  0.39046761  0.08155042  0.66182358  1  0  -0.05823  0  3.706677  0  0  -0.042724  0  3.937807  0  0  -0.046953  0  3.955922  0  0  -0.003847  -0.040204  0  3.924416  0
C  C47  1  0.60953040  0.91844950  0.33817794  1  0  -0.058374  0  3.706849  0  0  -0.042818  0  3.937932  0  0  -0.047046  0  3.956043  0  0  -0.00386  -0.040296  0  3.924538  0
C  C48  1  0.28707036  0.97436540  0.62864579  1  0  -0.084202  0  3.749449  0  0  -0.073659  0  3.98749  0  0  -0.078507  0  4.008041  0  0  -0.010927  -0.06933  0  3.972482  0
C  C49  1  0.71293062  0.02563019  0.37135803  1  0  -0.084026  0  3.749453  0  0  -0.073526  0  3.987531  0  0  -0.078373  0  4.008086  0  0  -0.010932  -0.069199  0  3.972527  0
C  C50  1  0.23219711  0.00635044  0.52260987  1  0  -0.070247  0  3.735926  0  0  -0.094225  0  3.994156  0  0  -0.095642  0  4.014319  0  0  -0.080669  -0.093247  0  3.980402  0
C  C51  1  0.76780116  0.99364392  0.47739436  1  0  -0.070275  0  3.735985  0  0  -0.094263  0  3.994229  0  0  -0.095679  0  4.014383  0  0  -0.080668  -0.093287  0  3.980475  0
C  C52  1  0.27929841  0.14475249  0.44940226  1  0  -0.072401  0  3.70501  0  0  -0.100442  0  3.965802  0  0  -0.100691  0  3.984584  0  0  -0.076977  -0.100495  0  3.953577  0
C  C53  1  0.72069436  0.85524046  0.55060100  1  0  -0.072211  0  3.704888  0  0  -0.100203  0  3.965701  0  0  -0.10043  0  3.984494  0  0  -0.07687  -0.100251  0  3.95347  0
C  C54  1  0.43306945  0.05459692  0.77888159  1  0  0.730136  0  3.835898  0  0  0.676519  0  4.135744  0  0  0.712708  0  4.127407  0  0  0.240698  0.652365  0  4.143476  0
C  C55  1  0.56692842  0.94540638  0.22111924  1  0  0.730042  0  3.836027  0  0  0.676421  0  4.135864  0  0  0.712607  0  4.127533  0  0  0.240717  0.652269  0  4.143591  0
C  C56  1  0.24034151  0.82812860  0.71049552  1  0  0.681104  0  3.80908  0  0  0.624919  0  4.113109  0  0  0.659589  0  4.101278  0  0  0.241858  0.601562  0  4.119772  0
C  C57  1  0.75966918  0.17186753  0.28951079  1  0  0.680754  0  3.809246  0  0  0.624581  0  4.113307  0  0  0.659247  0  4.101483  0  0  0.241743  0.601232  0  4.119962  0
O  O58  1  0.81133994  0.69835229  0.09007973  1  0  -0.633759  0  1.972602  0  0  -0.588759  0  2.205336  0  0  -0.618647  0  2.195724  0  0  -0.33635  -0.572446  0  2.210786  0
O  O59  1  0.18867015  0.30165124  0.90991485  1  0  -0.633833  0  1.972494  0  0  -0.588855  0  2.205197  0  0  -0.618743  0  2.195587  0  0  -0.336417  -0.572538  0  2.210652  0
O  O60  1  0.04988772  0.85112304  0.01969467  1  0  -0.823393  0  2.09937  0  0  -0.761495  0  2.351677  0  0  -0.805189  0  2.341494  0  0  -0.436263  -0.743  0  2.357614  0
O  O61  1  0.95012233  0.14888161  0.98029968  1  0  -0.823471  0  2.099509  0  0  -0.761578  0  2.351761  0  0  -0.805268  0  2.341573  0  0  -0.436343  -0.743081  0  2.3577  0
O  O62  1  0.45557308  0.83622746  0.00917405  1  0  -0.854404  0  2.154124  0  0  -0.795731  0  2.425129  0  0  -0.841391  0  2.411088  0  0  -0.444412  -0.777656  0  2.433113  0
O  O63  1  0.54443432  0.16377847  0.99082569  1  0  -0.854417  0  2.154144  0  0  -0.795739  0  2.425146  0  0  -0.841405  0  2.411083  0  0  -0.444448  -0.777685  0  2.433185  0
O  O64  1  0.35533997  0.63110605  0.96000344  1  0  -0.561719  0  1.940233  0  0  -0.509387  0  2.154582  0  0  -0.532929  0  2.142342  0  0  -0.277402  -0.492612  0  2.161413  0
O  O65  1  0.64468170  0.36889046  0.04000138  1  0  -0.561733  0  1.940049  0  0  -0.509355  0  2.154442  0  0  -0.532901  0  2.14218  0  0  -0.277438  -0.492589  0  2.161304  0
O  O66  1  0.61263585  0.43949208  0.40432289  1  0  -0.452886  0  1.919716  0  0  -0.413972  0  2.128799  0  0  -0.431731  0  2.126053  0  0  -0.254181  -0.402102  0  2.131076  0
O  O67  1  0.38735399  0.56050407  0.59567830  1  0  -0.452878  0  1.919533  0  0  -0.414016  0  2.128477  0  0  -0.431774  0  2.125739  0  0  -0.254232  -0.402151  0  2.130759  0
O  O68  1  0.59885077  0.04666560  0.80002373  1  0  -0.690752  0  2.052729  0  0  -0.644333  0  2.311094  0  0  -0.679423  0  2.299187  0  0  -0.377246  -0.626642  0  2.317354  0
O  O69  1  0.40114820  0.95334451  0.19997563  1  0  -0.690664  0  2.052735  0  0  -0.644277  0  2.311162  0  0  -0.679369  0  2.299265  0  0  -0.377274  -0.62658  0  2.317408  0
O  O70  1  0.29382356  0.04514059  0.84915742  1  0  -0.722237  0  2.113934  0  0  -0.660903  0  2.353864  0  0  -0.696917  0  2.344101  0  0  -0.355505  -0.641812  0  2.359106  0
O  O71  1  0.70617435  0.95486159  0.15084364  1  0  -0.722191  0  2.113894  0  0  -0.660847  0  2.353808  0  0  -0.69686  0  2.344044  0  0  -0.355474  -0.641758  0  2.359051  0
O  O72  1  0.38475257  0.77306650  0.76218789  1  0  -0.552833  0  2.145827  0  0  -0.494087  0  2.373216  0  0  -0.518818  0  2.356744  0  0  -0.309053  -0.47652  0  2.381309  0
O  O73  1  0.61526196  0.22693770  0.23781731  1  0  -0.552706  0  2.145802  0  0  -0.493949  0  2.37327  0  0  -0.518669  0  2.356793  0  0  -0.309014  -0.476389  0  2.381409  0
O  O74  1  0.08273934  0.77287495  0.72723706  1  0  -0.582226  0  1.988656  0  0  -0.533492  0  2.214795  0  0  -0.554964  0  2.204389  0  0  -0.28174  -0.517958  0  2.221229  0
O  O75  1  0.91727293  0.22711915  0.27277350  1  0  -0.582034  0  1.988684  0  0  -0.533315  0  2.21487  0  0  -0.554786  0  2.204471  0  0  -0.281636  -0.517779  0  2.221302  0
O  O76  1  0.95459012  0.04112129  0.80180334  1  0  -0.911799  0  1.946488  0  0  -0.864551  0  2.150143  0  0  -0.893081  0  2.120952  0  0  -0.643328  -0.850403  0  2.16804  0
O  O77  1  0.04541169  0.95888307  0.19819232  1  0  -0.911886  0  1.946456  0  0  -0.864627  0  2.150092  0  0  -0.893158  0  2.120905  0  0  -0.643334  -0.850477  0  2.167989  0
O  O78  1  0.78072742  0.74651901  0.86776008  1  0  -0.896793  0  1.848431  0  0  -0.850504  0  2.05063  0  0  -0.878058  0  2.015555  0  0  -0.628917  -0.837831  0  2.069271  0
O  O79  1  0.21926292  0.25349375  0.13223057  1  0  -0.896904  0  1.848396  0  0  -0.850568  0  2.050467  0  0  -0.878131  0  2.015417  0  0  -0.628862  -0.837901  0  2.069161  0
