# generated using pymatgen
data_H4PbC2SO3F
_symmetry_space_group_name_H-M   'P 1'
_cell_length_a   4.60980946
_cell_length_b   8.79496535
_cell_length_c   13.63998520
_cell_angle_alpha   97.41965151
_cell_angle_beta   99.74089181
_cell_angle_gamma   89.98995691
_symmetry_Int_Tables_number   1
_chemical_formula_structural   H4PbC2SO3F
_chemical_formula_sum   'H16 Pb4 C8 S4 O12 F4'
_cell_volume   540.33822592
_cell_formula_units_Z   4
loop_
 _symmetry_equiv_pos_site_id
 _symmetry_equiv_pos_as_xyz
  1  'x, y, z'
loop_
 _atom_site_type_symbol
 _atom_site_label
 _atom_site_symmetry_multiplicity
 _atom_site_fract_x
 _atom_site_fract_y
 _atom_site_fract_z
 _atom_site_occupancy
 _atom_site_pbe_bader_spin_density
 _atom_site_pbe_cm5_charge
 _atom_site_pbe_ddec_charge
 _atom_site_pbe_ddec_spin_density
 _atom_site_pbe_ddec_sum_bond_order
 _atom_site_pbe_magmom
H  H0  1  0.83271402  0.64098378  0.13890976  1  0  0.110502  0.144585  0  0.981484  0
H  H1  1  0.69428276  0.85923042  0.86116918  1  0  0.110199  0.144143  0  0.98188  0
H  H2  1  0.16728707  0.35902136  0.86109565  1  0  0.110527  0.144609  0  0.981503  0
H  H3  1  0.30571161  0.14077018  0.13882520  1  0  0.110191  0.14409  0  0.9819  0
H  H4  1  0.83535563  0.43932972  0.14566361  1  0  0.111031  0.14684  0  0.987451  0
H  H5  1  0.68955151  0.06091487  0.85435240  1  0  0.111046  0.146237  0  0.987551  0
H  H6  1  0.16464759  0.56067315  0.85433807  1  0  0.111075  0.14689  0  0.98742  0
H  H7  1  0.31044055  0.93908343  0.14564311  1  0  0.111015  0.146184  0  0.987541  0
H  H8  1  0.30107055  0.61495369  0.05017524  1  0  0.092256  0.087845  0  0.984713  0
H  H9  1  0.25086260  0.88513769  0.94969087  1  0  0.091964  0.087667  0  0.985171  0
H  H10  1  0.69893056  0.38505147  0.94982725  1  0  0.092259  0.087847  0  0.984771  0
H  H11  1  0.74913609  0.11486175  0.05030659  1  0  0.091945  0.087647  0  0.985177  0
H  H12  1  0.30482686  0.41614818  0.05778207  1  0  0.092866  0.089113  0  0.983952  0
H  H13  1  0.24712877  0.08396134  0.94218305  1  0  0.092559  0.089364  0  0.983479  0
H  H14  1  0.69517426  0.58385698  0.94221968  1  0  0.092846  0.089096  0  0.983997  0
H  H15  1  0.75287653  0.91603809  0.05781553  1  0  0.092566  0.089344  0  0.983423  0
Pb  Pb16  1  0.21627324  0.85677825  0.40676178  1  0  0.647315  1.279017  0  1.887983  0
Pb  Pb17  1  0.80991852  0.64311915  0.59335845  1  0  0.647364  1.278855  0  1.887706  0
Pb  Pb18  1  0.78373181  0.14321658  0.59324152  1  0  0.647349  1.278993  0  1.888023  0
Pb  Pb19  1  0.19008443  0.35687685  0.40663897  1  0  0.647399  1.278877  0  1.887645  0
C  C20  1  0.69404991  0.53945304  0.13923580  1  0  -0.153307  -0.337537  0  3.85454  0
C  C21  1  0.55503351  0.96070101  0.86081183  1  0  -0.152855  -0.335456  0  3.855133  0
C  C22  1  0.30595115  0.46055097  0.86076659  1  0  -0.153413  -0.337747  0  3.854539  0
C  C23  1  0.44496742  0.03929957  0.13918806  1  0  -0.152816  -0.335336  0  3.855061  0
C  C24  1  0.44313489  0.51429991  0.04972514  1  0  -0.162122  -0.111558  0  3.935193  0
C  C25  1  0.39341244  0.98576390  0.95023652  1  0  -0.161449  -0.112014  0  3.936737  0
C  C26  1  0.55687053  0.48570296  0.95027667  1  0  -0.162099  -0.111488  0  3.935138  0
C  C27  1  0.60658406  0.01423554  0.04976082  1  0  -0.16141  -0.111984  0  3.936577  0
S  S28  1  0.55672116  0.57108531  0.25446843  1  0  0.526913  1.240718  0  6.067105  0
S  S29  1  0.30224423  0.92892222  0.74557118  1  0  0.526532  1.238113  0  6.072138  0
S  S30  1  0.44327932  0.42890607  0.74553579  1  0  0.527011  1.240811  0  6.067139  0
S  S31  1  0.69775503  0.07108984  0.25442592  1  0  0.52643  1.238047  0  6.072149  0
O  O32  1  0.37494474  0.70887021  0.24905702  1  0  -0.324192  -0.620306  0  2.273535  0
O  O33  1  0.12577107  0.79134418  0.75121753  1  0  -0.323742  -0.619587  0  2.273892  0
O  O34  1  0.62505201  0.29113609  0.75094678  1  0  -0.324185  -0.620237  0  2.273803  0
O  O35  1  0.87421865  0.20865181  0.24878206  1  0  -0.323744  -0.619544  0  2.274277  0
O  O36  1  0.37839766  0.43223783  0.25676525  1  0  -0.32281  -0.619029  0  2.2854  0
O  O37  1  0.12183614  0.06784886  0.74310694  1  0  -0.323067  -0.618693  0  2.286411  0
O  O38  1  0.62161206  0.56776273  0.74323661  1  0  -0.322864  -0.619092  0  2.285078  0
O  O39  1  0.87816221  0.93214255  0.25688982  1  0  -0.32295  -0.618658  0  2.286138  0
O  O40  1  0.81170484  0.59237289  0.33729592  1  0  -0.316242  -0.669431  0  2.310521  0
O  O41  1  0.47390266  0.90723863  0.66264932  1  0  -0.316656  -0.669006  0  2.313085  0
O  O42  1  0.18829820  0.40762652  0.66270986  1  0  -0.316283  -0.669457  0  2.310595  0
O  O43  1  0.52608719  0.09275967  0.33734607  1  0  -0.316689  -0.669052  0  2.312973  0
F  F44  1  0.22000351  0.12467052  0.50372097  1  0  -0.302033  -0.630173  0  1.059696  0
F  F45  1  0.71573749  0.37551083  0.49633701  1  0  -0.302106  -0.629701  0  1.0595  0
F  F46  1  0.77999727  0.87532662  0.49627935  1  0  -0.302027  -0.630157  0  1.059688  0
F  F47  1  0.28426544  0.62448516  0.50366261  1  0  -0.3021  -0.62969  0  1.059502  0
