# generated using pymatgen
data_CdH6C8N5ClO2
_symmetry_space_group_name_H-M   'P 1'
_cell_length_a   7.14890965
_cell_length_b   8.99049179
_cell_length_c   17.28733227
_cell_angle_alpha   90.00016033
_cell_angle_beta   90.00067781
_cell_angle_gamma   102.10128697
_symmetry_Int_Tables_number   1
_chemical_formula_structural   CdH6C8N5ClO2
_chemical_formula_sum   'Cd4 H24 C32 N20 Cl4 O8'
_cell_volume   1086.40494218
_cell_formula_units_Z   4
loop_
 _symmetry_equiv_pos_site_id
 _symmetry_equiv_pos_as_xyz
  1  'x, y, z'
loop_
 _atom_site_type_symbol
 _atom_site_label
 _atom_site_symmetry_multiplicity
 _atom_site_fract_x
 _atom_site_fract_y
 _atom_site_fract_z
 _atom_site_occupancy
 _atom_site_hle17_bader_spin_density
 _atom_site_hle17_ddec_charge
 _atom_site_hle17_ddec_spin_density
 _atom_site_hle17_ddec_sum_bond_order
 _atom_site_hle17_magmom
 _atom_site_hse06_10hf_bader_spin_density
 _atom_site_hse06_10hf_ddec_charge
 _atom_site_hse06_10hf_ddec_spin_density
 _atom_site_hse06_10hf_ddec_sum_bond_order
 _atom_site_hse06_10hf_magmom
 _atom_site_hse06_bader_spin_density
 _atom_site_hse06_ddec_charge
 _atom_site_hse06_ddec_spin_density
 _atom_site_hse06_ddec_sum_bond_order
 _atom_site_hse06_magmom
 _atom_site_pbe_bader_spin_density
 _atom_site_pbe_cm5_charge
 _atom_site_pbe_ddec_charge
 _atom_site_pbe_ddec_spin_density
 _atom_site_pbe_ddec_sum_bond_order
 _atom_site_pbe_magmom
Cd  Cd0  1  0.20520529  0.71936817  0.68288661  1  0  1.079035  0  1.821765  0  0  0.903298  0  2.290982  0  0  0.954351  0  2.24137  0  0  0.691778  0.866889  0  2.324976  0
Cd  Cd1  1  0.29478936  0.28063189  0.18288744  1  0  1.079093  0  1.821511  0  0  0.903388  0  2.290654  0  0  0.954424  0  2.241073  0  0  0.691871  0.866982  0  2.324668  0
Cd  Cd2  1  0.79479758  0.28062832  0.31711297  1  0  1.079028  0  1.821772  0  0  0.903302  0  2.290981  0  0  0.95435  0  2.241373  0  0  0.691785  0.866891  0  2.324978  0
Cd  Cd3  1  0.70520941  0.71937028  0.81711271  1  0  1.079084  0  1.821533  0  0  0.903361  0  2.290706  0  0  0.95441  0  2.241103  0  0  0.691863  0.866955  0  2.324719  0
H  H4  1  0.72417060  0.91281675  0.56807620  1  0  0.124498  0  0.973993  0  0  0.131395  0  1.04036  0  0  0.135067  0  1.038579  0  0  0.096532  0.128695  0  1.041858  0
H  H5  1  0.77583037  0.08718602  0.06807667  1  0  0.124514  0  0.973992  0  0  0.131408  0  1.040364  0  0  0.135081  0  1.038582  0  0  0.096528  0.128707  0  1.041871  0
H  H6  1  0.27583596  0.08718315  0.43192337  1  0  0.124533  0  0.973973  0  0  0.131441  0  1.04033  0  0  0.135113  0  1.038547  0  0  0.096519  0.12874  0  1.041828  0
H  H7  1  0.22416700  0.91281615  0.93192290  1  0  0.12452  0  0.973996  0  0  0.131428  0  1.040349  0  0  0.135101  0  1.038568  0  0  0.096515  0.128727  0  1.041857  0
H  H8  1  0.88456076  0.69429957  0.36270467  1  0  0.120142  0  0.940631  0  0  0.129463  0  0.998309  0  0  0.133016  0  0.99705  0  0  0.11  0.126848  0  0.999429  0
H  H9  1  0.61544155  0.30570292  0.86270280  1  0  0.120187  0  0.940542  0  0  0.129496  0  0.998246  0  0  0.133047  0  0.99699  0  0  0.110001  0.126881  0  0.999359  0
H  H10  1  0.11543681  0.30569805  0.63729374  1  0  0.120154  0  0.940592  0  0  0.129472  0  0.998268  0  0  0.133025  0  0.997011  0  0  0.110012  0.126857  0  0.999389  0
H  H11  1  0.38455411  0.69429811  0.13729677  1  0  0.12014  0  0.940525  0  0  0.12946  0  0.998221  0  0  0.133012  0  0.996963  0  0  0.109973  0.126845  0  0.999335  0
H  H12  1  0.80420349  0.68288012  0.50473737  1  0  0.102431  0  0.959328  0  0  0.105045  0  1.032533  0  0  0.108518  0  1.029436  0  0  0.105524  0.102437  0  1.034839  0
H  H13  1  0.69579519  0.31712085  0.00473604  1  0  0.102432  0  0.959321  0  0  0.105034  0  1.032546  0  0  0.108504  0  1.02945  0  0  0.105521  0.102422  0  1.034861  0
H  H14  1  0.19579548  0.31711750  0.49526220  1  0  0.102409  0  0.959286  0  0  0.105002  0  1.032517  0  0  0.108474  0  1.02942  0  0  0.105488  0.102405  0  1.03481  0
H  H15  1  0.30420217  0.68288132  0.99526353  1  0  0.102433  0  0.959286  0  0  0.104992  0  1.032553  0  0  0.108462  0  1.02946  0  0  0.10548  0.102391  0  1.034858  0
H  H16  1  0.52224138  0.50077102  0.62363922  1  0  0.138057  0  0.918573  0  0  0.145157  0  0.987307  0  0  0.147325  0  0.98585  0  0  0.129288  0.143616  0  0.988456  0
H  H17  1  0.97776153  0.49922780  0.12363895  1  0  0.138074  0  0.918598  0  0  0.145193  0  0.987313  0  0  0.147361  0  0.985855  0  0  0.129288  0.143648  0  0.988466  0
H  H18  1  0.47775958  0.49922888  0.37635978  1  0  0.138057  0  0.918584  0  0  0.145157  0  0.987311  0  0  0.147325  0  0.985856  0  0  0.129287  0.143617  0  0.988459  0
H  H19  1  0.02224113  0.50077324  0.87636120  1  0  0.138042  0  0.918667  0  0  0.14517  0  0.987347  0  0  0.147337  0  0.985892  0  0  0.129271  0.143622  0  0.988497  0
H  H20  1  0.52022803  0.33052630  0.67642803  1  0  0.132763  0  0.910866  0  0  0.146417  0  0.964276  0  0  0.148734  0  0.962952  0  0  0.128635  0.144761  0  0.965339  0
H  H21  1  0.97977315  0.66947080  0.17642860  1  0  0.132842  0  0.910753  0  0  0.146471  0  0.964193  0  0  0.148807  0  0.962847  0  0  0.128643  0.144809  0  0.965245  0
H  H22  1  0.47977574  0.66947360  0.32357154  1  0  0.132757  0  0.910853  0  0  0.146393  0  0.964286  0  0  0.148724  0  0.962947  0  0  0.128625  0.144737  0  0.96535  0
H  H23  1  0.02023401  0.33053138  0.82357039  1  0  0.132881  0  0.910713  0  0  0.146491  0  0.964158  0  0  0.148835  0  0.962802  0  0  0.12864  0.144825  0  0.965209  0
H  H24  1  0.89188177  0.93989435  0.29132428  1  0  0.083173  0  0.952293  0  0  0.090087  0  1.016915  0  0  0.09293  0  1.014288  0  0  0.106211  0.087956  0  1.018928  0
H  H25  1  0.60811911  0.06010510  0.79132375  1  0  0.083179  0  0.952409  0  0  0.090125  0  1.016995  0  0  0.09297  0  1.014365  0  0  0.106251  0.087987  0  1.018997  0
H  H26  1  0.10811551  0.06010213  0.70867414  1  0  0.083147  0  0.952335  0  0  0.090102  0  1.016909  0  0  0.092947  0  1.014278  0  0  0.1062  0.087972  0  1.018924  0
H  H27  1  0.39187036  0.93989364  0.20867640  1  0  0.083108  0  0.952361  0  0  0.09012  0  1.016881  0  0  0.092967  0  1.014248  0  0  0.106224  0.087981  0  1.018885  0
C  C28  1  0.78714540  0.50102555  0.68217464  1  0  0.698401  0  3.878381  0  0  0.649788  0  4.178598  0  0  0.683901  0  4.171287  0  0  0.209256  0.626564  0  4.182757  0
C  C29  1  0.71283717  0.49896931  0.18216093  1  0  0.698524  0  3.878208  0  0  0.649957  0  4.178371  0  0  0.684062  0  4.171068  0  0  0.209394  0.626722  0  4.182533  0
C  C30  1  0.21285556  0.49897435  0.31782551  1  0  0.69845  0  3.878254  0  0  0.649826  0  4.178492  0  0  0.683939  0  4.171178  0  0  0.209246  0.626602  0  4.182652  0
C  C31  1  0.28716469  0.50103400  0.81784212  1  0  0.69858  0  3.878121  0  0  0.649993  0  4.178308  0  0  0.684096  0  4.171011  0  0  0.209384  0.626753  0  4.182472  0
C  C32  1  0.72253639  0.18152410  0.49540917  1  0  0.22904  0  3.798021  0  0  0.206708  0  4.069947  0  0  0.214144  0  4.086248  0  0  0.227099  0.201587  0  4.059063  0
C  C33  1  0.77746808  0.81847753  0.99540883  1  0  0.228984  0  3.798135  0  0  0.20676  0  4.06996  0  0  0.214184  0  4.086283  0  0  0.227071  0.201642  0  4.059084  0
C  C34  1  0.27746987  0.81847467  0.50459098  1  0  0.228937  0  3.798007  0  0  0.206736  0  4.069777  0  0  0.214131  0  4.086137  0  0  0.227036  0.201615  0  4.058894  0
C  C35  1  0.22253038  0.18152350  0.00459132  1  0  0.228932  0  3.798151  0  0  0.206729  0  4.069936  0  0  0.214129  0  4.086286  0  0  0.227051  0.201612  0  4.059059  0
C  C36  1  0.76685854  0.04356524  0.46227509  1  0  0.162697  0  3.803684  0  0  0.16466  0  4.041328  0  0  0.170241  0  4.062291  0  0  0.121325  0.160945  0  4.027119  0
C  C37  1  0.73314320  0.95643489  0.96227647  1  0  0.162815  0  3.803736  0  0  0.164707  0  4.04143  0  0  0.170284  0  4.062409  0  0  0.121353  0.16099  0  4.027234  0
C  C38  1  0.23314743  0.95643239  0.53772448  1  0  0.162786  0  3.803634  0  0  0.164716  0  4.04125  0  0  0.170297  0  4.062241  0  0  0.121341  0.161001  0  4.027039  0
C  C39  1  0.26684997  0.04356727  0.03772368  1  0  0.16288  0  3.803635  0  0  0.164794  0  4.041292  0  0  0.170381  0  4.062266  0  0  0.12135  0.161078  0  4.027092  0
C  C40  1  0.76181062  0.91345964  0.50695235  1  0  -0.125885  0  3.667587  0  0  -0.150255  0  3.917443  0  0  -0.156655  0  3.938606  0  0  -0.08228  -0.146086  0  3.903256  0
C  C41  1  0.73819153  0.08654362  0.00695147  1  0  -0.125951  0  3.667686  0  0  -0.150309  0  3.917556  0  0  -0.156708  0  3.938721  0  0  -0.082275  -0.146135  0  3.903377  0
C  C42  1  0.23819315  0.08654026  0.49304722  1  0  -0.125991  0  3.667642  0  0  -0.150375  0  3.917502  0  0  -0.156771  0  3.938666  0  0  -0.082265  -0.146206  0  3.903315  0
C  C43  1  0.26180164  0.91345854  0.99304810  1  0  -0.126061  0  3.66764  0  0  -0.15044  0  3.917501  0  0  -0.15684  0  3.938663  0  0  -0.082291  -0.146268  0  3.903327  0
C  C44  1  0.85194505  0.79230880  0.39284465  1  0  -0.106055  0  3.688113  0  0  -0.121366  0  3.943886  0  0  -0.127514  0  3.964336  0  0  -0.079053  -0.117449  0  3.930212  0
C  C45  1  0.64805731  0.20769059  0.89284337  1  0  -0.106023  0  3.688138  0  0  -0.12132  0  3.943916  0  0  -0.127466  0  3.964366  0  0  -0.078991  -0.11739  0  3.930217  0
C  C46  1  0.14805362  0.20768768  0.60715434  1  0  -0.105976  0  3.688041  0  0  -0.121289  0  3.94382  0  0  -0.127434  0  3.964269  0  0  -0.079032  -0.117373  0  3.930149  0
C  C47  1  0.35193696  0.79231043  0.10715620  1  0  -0.106027  0  3.687936  0  0  -0.121336  0  3.943716  0  0  -0.127483  0  3.964166  0  0  -0.078997  -0.117407  0  3.930021  0
C  C48  1  0.80601217  0.78608924  0.47144255  1  0  -0.002024  0  3.695021  0  0  -0.023115  0  3.955907  0  0  -0.020701  0  3.974753  0  0  -0.069693  -0.024355  0  3.943018  0
C  C49  1  0.69399045  0.21391326  0.97144208  1  0  -0.002092  0  3.695262  0  0  -0.02317  0  3.956125  0  0  -0.020755  0  3.974971  0  0  -0.069722  -0.024404  0  3.943249  0
C  C50  1  0.19398931  0.21390724  0.52855587  1  0  -0.002061  0  3.694991  0  0  -0.023132  0  3.955891  0  0  -0.020719  0  3.974737  0  0  -0.069692  -0.024381  0  3.942994  0
C  C51  1  0.30600551  0.78608890  0.02855749  1  0  -0.001998  0  3.694896  0  0  -0.023034  0  3.955762  0  0  -0.02062  0  3.974609  0  0  -0.069624  -0.024276  0  3.942882  0
C  C52  1  0.60665324  0.41648350  0.63926584  1  0  -0.217364  0  3.592197  0  0  -0.274834  0  3.845073  0  0  -0.276725  0  3.850156  0  0  -0.046088  -0.273591  0  3.841941  0
C  C53  1  0.89334647  0.58351207  0.13926644  1  0  -0.217523  0  3.592329  0  0  -0.274983  0  3.845158  0  0  -0.276884  0  3.85022  0  0  -0.046126  -0.273709  0  3.841992  0
C  C54  1  0.39334802  0.58351754  0.36073489  1  0  -0.217428  0  3.592302  0  0  -0.274857  0  3.845125  0  0  -0.276762  0  3.85021  0  0  -0.046131  -0.273616  0  3.841995  0
C  C55  1  0.10665589  0.41648783  0.86073545  1  0  -0.217595  0  3.592447  0  0  -0.275021  0  3.84525  0  0  -0.276929  0  3.850315  0  0  -0.046116  -0.273728  0  3.842063  0
C  C56  1  0.85495385  0.92737217  0.35260836  1  0  0.138581  0  3.696546  0  0  0.109977  0  3.947144  0  0  0.116398  0  3.965287  0  0  0.050439  0.105748  0  3.934879  0
C  C57  1  0.64504924  0.07262907  0.85260629  1  0  0.138577  0  3.696497  0  0  0.109931  0  3.947118  0  0  0.116352  0  3.965255  0  0  0.050394  0.105723  0  3.934821  0
C  C58  1  0.14504652  0.07262545  0.64739122  1  0  0.138562  0  3.6966  0  0  0.10993  0  3.947201  0  0  0.11635  0  3.965341  0  0  0.050454  0.105701  0  3.93494  0
C  C59  1  0.35494193  0.92737081  0.14739328  1  0  0.138641  0  3.696552  0  0  0.10995  0  3.947179  0  0  0.116373  0  3.965315  0  0  0.050429  0.105741  0  3.934883  0
N  N60  1  0.68093171  0.20135651  0.56969469  1  0  -0.274157  0  2.800697  0  0  -0.266393  0  3.067805  0  0  -0.271467  0  3.080068  0  0  -0.185616  -0.263008  0  3.059772  0
N  N61  1  0.81906842  0.79864287  0.06969466  1  0  -0.274157  0  2.800667  0  0  -0.266426  0  3.067739  0  0  -0.271494  0  3.080005  0  0  -0.185641  -0.263027  0  3.059693  0
N  N62  1  0.31907316  0.79864225  0.43030546  1  0  -0.274067  0  2.800566  0  0  -0.266355  0  3.067642  0  0  -0.271415  0  3.079916  0  0  -0.185555  -0.262971  0  3.059609  0
N  N63  1  0.18092894  0.20135930  0.93030549  1  0  -0.274156  0  2.800601  0  0  -0.266436  0  3.067666  0  0  -0.271497  0  3.079939  0  0  -0.185626  -0.263039  0  3.059625  0
N  N64  1  0.71753160  0.30787273  0.45300884  1  0  -0.267855  0  3.107811  0  0  -0.221186  0  3.397724  0  0  -0.233671  0  3.408281  0  0  -0.198509  -0.212629  0  3.390586  0
N  N65  1  0.78247435  0.69212844  0.95300776  1  0  -0.267969  0  3.107897  0  0  -0.221343  0  3.397815  0  0  -0.233823  0  3.408369  0  0  -0.198542  -0.212782  0  3.390687  0
N  N66  1  0.28247297  0.69212490  0.54699074  1  0  -0.26794  0  3.107931  0  0  -0.221323  0  3.397826  0  0  -0.233792  0  3.408385  0  0  -0.19855  -0.212766  0  3.390689  0
N  N67  1  0.21752721  0.30787373  0.04699181  1  0  -0.26796  0  3.107967  0  0  -0.221341  0  3.397871  0  0  -0.233813  0  3.40843  0  0  -0.19854  -0.212777  0  3.390737  0
N  N68  1  0.67159538  0.40934648  0.50019132  1  0  -0.060677  0  2.829059  0  0  -0.06294  0  3.111277  0  0  -0.057751  0  3.119937  0  0  -0.048649  -0.06629  0  3.105595  0
N  N69  1  0.82840227  0.59065103  0.00019161  1  0  -0.060581  0  2.829034  0  0  -0.062845  0  3.111257  0  0  -0.057655  0  3.119917  0  0  -0.048618  -0.066191  0  3.105576  0
N  N70  1  0.32840469  0.59065001  0.49980825  1  0  -0.060549  0  2.829225  0  0  -0.062805  0  3.111423  0  0  -0.057612  0  3.120079  0  0  -0.048582  -0.066156  0  3.105743  0
N  N71  1  0.17159760  0.40935001  0.99980912  1  0  -0.060565  0  2.829228  0  0  -0.062823  0  3.111443  0  0  -0.057631  0  3.1201  0  0  -0.048603  -0.066168  0  3.105765  0
N  N72  1  0.64984052  0.34201371  0.56921864  1  0  0.255457  0  3.553265  0  0  0.301938  0  3.836937  0  0  0.29912  0  3.857516  0  0  0.007008  0.30354  0  3.823329  0
N  N73  1  0.85015730  0.65798225  0.06921972  1  0  0.255481  0  3.553217  0  0  0.301983  0  3.836876  0  0  0.299162  0  3.857458  0  0  0.007095  0.303584  0  3.823267  0
N  N74  1  0.35016125  0.65798392  0.43078151  1  0  0.25543  0  3.553476  0  0  0.301917  0  3.837143  0  0  0.299099  0  3.857724  0  0  0.007003  0.303521  0  3.823535  0
N  N75  1  0.14984256  0.34201878  0.93078159  1  0  0.255496  0  3.55337  0  0  0.301986  0  3.837033  0  0  0.299167  0  3.857615  0  0  0.007083  0.303581  0  3.823423  0
N  N76  1  0.81383068  0.05083370  0.38654866  1  0  -0.356726  0  3.234078  0  0  -0.289338  0  3.488917  0  0  -0.308452  0  3.508667  0  0  -0.318341  -0.276191  0  3.47521  0
N  N77  1  0.68617259  0.94916449  0.88654980  1  0  -0.35676  0  3.234002  0  0  -0.289343  0  3.488851  0  0  -0.308462  0  3.508622  0  0  -0.318326  -0.276193  0  3.475139  0
N  N78  1  0.18617139  0.94916506  0.61345149  1  0  -0.356717  0  3.234105  0  0  -0.289331  0  3.488952  0  0  -0.308448  0  3.508724  0  0  -0.318335  -0.276185  0  3.475244  0
N  N79  1  0.31382109  0.05083426  0.11345093  1  0  -0.356744  0  3.234028  0  0  -0.289369  0  3.488928  0  0  -0.308487  0  3.50869  0  0  -0.318316  -0.27622  0  3.475215  0
Cl  Cl80  1  0.07905844  0.83021873  0.80455466  1  0  -0.579004  0  1.000306  0  0  -0.520676  0  1.291638  0  0  -0.540289  0  1.267219  0  0  -0.291114  -0.50639  0  1.308242  0
Cl  Cl81  1  0.42094252  0.16978149  0.30455538  1  0  -0.578984  0  1.000261  0  0  -0.520669  0  1.2916  0  0  -0.540282  0  1.267184  0  0  -0.291116  -0.506387  0  1.308203  0
Cl  Cl82  1  0.92093862  0.16978230  0.19544376  1  0  -0.579011  0  1.000306  0  0  -0.520679  0  1.29164  0  0  -0.540289  0  1.267223  0  0  -0.291116  -0.50639  0  1.308237  0
Cl  Cl83  1  0.57905705  0.83021840  0.69544362  1  0  -0.578992  0  1.000292  0  0  -0.520665  0  1.291623  0  0  -0.540279  0  1.267206  0  0  -0.291116  -0.506381  0  1.308222  0
O  O84  1  0.92776342  0.56057289  0.64006442  1  0  -0.624924  0  2.01139  0  0  -0.567078  0  2.26704  0  0  -0.595882  0  2.257091  0  0  -0.326595  -0.54679  0  2.273098  0
O  O85  1  0.57224289  0.43943179  0.14006787  1  0  -0.624737  0  2.01202  0  0  -0.566942  0  2.267715  0  0  -0.595729  0  2.257764  0  0  -0.326543  -0.546673  0  2.273796  0
O  O86  1  0.07223775  0.43942246  0.35993573  1  0  -0.624953  0  2.011367  0  0  -0.567097  0  2.267009  0  0  -0.5959  0  2.257058  0  0  -0.326565  -0.546809  0  2.27307  0
O  O87  1  0.42775536  0.56057379  0.85993576  1  0  -0.624827  0  2.012088  0  0  -0.567014  0  2.267759  0  0  -0.595802  0  2.257806  0  0  -0.32655  -0.546745  0  2.273845  0
O  O88  1  0.77241630  0.50538646  0.75500134  1  0  -0.649608  0  2.015558  0  0  -0.586781  0  2.267843  0  0  -0.61466  0  2.257069  0  0  -0.337266  -0.566872  0  2.27429  0
O  O89  1  0.72759455  0.49460694  0.25500910  1  0  -0.649841  0  2.014641  0  0  -0.587049  0  2.266953  0  0  -0.61494  0  2.256195  0  0  -0.337404  -0.567113  0  2.273378  0
O  O90  1  0.22758187  0.49461343  0.24499881  1  0  -0.649653  0  2.015543  0  0  -0.586809  0  2.267812  0  0  -0.614688  0  2.257037  0  0  -0.337282  -0.566906  0  2.27427  0
O  O91  1  0.27241990  0.50539639  0.74499394  1  0  -0.649796  0  2.014572  0  0  -0.586962  0  2.266824  0  0  -0.614851  0  2.256063  0  0  -0.337367  -0.567031  0  2.273261  0
