# generated using pymatgen
data_ZnH22C22N3ClO2
_symmetry_space_group_name_H-M   'P 1'
_cell_length_a   9.36781713
_cell_length_b   10.75715996
_cell_length_c   11.29700000
_cell_angle_alpha   109.24055033
_cell_angle_beta   102.26584991
_cell_angle_gamma   98.76743154
_symmetry_Int_Tables_number   1
_chemical_formula_structural   ZnH22C22N3ClO2
_chemical_formula_sum   'Zn2 H44 C44 N6 Cl2 O4'
_cell_volume   1019.30553809
_cell_formula_units_Z   2
loop_
 _symmetry_equiv_pos_site_id
 _symmetry_equiv_pos_as_xyz
  1  'x, y, z'
loop_
 _atom_site_type_symbol
 _atom_site_label
 _atom_site_symmetry_multiplicity
 _atom_site_fract_x
 _atom_site_fract_y
 _atom_site_fract_z
 _atom_site_occupancy
 _atom_site_hle17_bader_spin_density
 _atom_site_hle17_ddec_charge
 _atom_site_hle17_ddec_spin_density
 _atom_site_hle17_ddec_sum_bond_order
 _atom_site_hle17_magmom
 _atom_site_hse06_10hf_bader_spin_density
 _atom_site_hse06_10hf_ddec_charge
 _atom_site_hse06_10hf_ddec_spin_density
 _atom_site_hse06_10hf_ddec_sum_bond_order
 _atom_site_hse06_10hf_magmom
 _atom_site_hse06_bader_spin_density
 _atom_site_hse06_ddec_charge
 _atom_site_hse06_ddec_spin_density
 _atom_site_hse06_ddec_sum_bond_order
 _atom_site_hse06_magmom
 _atom_site_pbe_bader_charge
 _atom_site_pbe_bader_spin_density
 _atom_site_pbe_cm5_charge
 _atom_site_pbe_ddec_charge
 _atom_site_pbe_ddec_spin_density
 _atom_site_pbe_ddec_sum_bond_order
 _atom_site_pbe_magmom
Zn  Zn0  1  0.05930231  0.35274676  0.90017525  1  0  1.02149  0  1.96768  0  0  0.850203  0  2.468577  0  0  0.893611  0  2.410958  0  1.237071  0  0.635751  0.82052  0  2.507657  0
Zn  Zn1  1  0.94069933  0.64725396  0.09982562  1  0  1.021492  0  1.967645  0  0  0.850194  0  2.468552  0  0  0.893608  0  2.410933  0  1.237012  0  0.635764  0.820516  0  2.507631  0
H  H2  1  0.62263053  0.23437959  0.08004921  1  0  0.076597  0  0.947822  0  0  0.092962  0  1.010486  0  0  0.092912  0  1.012064  0  0.089547  0  0.110809  0.092869  0  1.009547  0
H  H3  1  0.37736894  0.76561300  0.91994873  1  0  0.076624  0  0.947844  0  0  0.092983  0  1.010528  0  0  0.092938  0  1.012107  0  0.089505  0  0.110808  0.092888  0  1.009596  0
H  H4  1  0.67030045  0.18984441  0.93079901  1  0  0.081478  0  0.943028  0  0  0.093188  0  1.011459  0  0  0.093808  0  1.011249  0  0.094365  0  0.10186  0.093005  0  1.011163  0
H  H5  1  0.32969765  0.81014717  0.06919925  1  0  0.081472  0  0.943076  0  0  0.093211  0  1.011483  0  0  0.093833  0  1.011278  0  0.094396  0  0.101873  0.09303  0  1.011185  0
H  H6  1  0.07433690  0.23387131  0.62453168  1  0  0.106567  0  0.96122  0  0  0.115  0  1.025022  0  0  0.118259  0  1.023234  0  0.097781  0  0.100424  0.113076  0  1.025621  0
H  H7  1  0.92566365  0.76612940  0.37546811  1  0  0.106584  0  0.961194  0  0  0.115018  0  1.024988  0  0  0.118278  0  1.023201  0  0.097785  0  0.100437  0.113094  0  1.025586  0
H  H8  1  0.21516139  0.78965350  0.47340265  1  0  0.261707  0  0.932289  0  0  0.248299  0  0.998201  0  0  0.25354  0  0.995324  0  0.454316  0  0.290544  0.244235  0  1.000904  0
H  H9  1  0.78484052  0.21034823  0.52659858  1  0  0.261719  0  0.93226  0  0  0.248298  0  0.998178  0  0  0.253539  0  0.995299  0  0.454284  0  0.290526  0.244235  0  1.000881  0
H  H10  1  0.44052389  0.27488401  0.16837873  1  0  0.085371  0  0.945427  0  0  0.100473  0  1.007759  0  0  0.102143  0  1.007579  0  0.039774  0  0.098297  0.099247  0  1.007982  0
H  H11  1  0.55947965  0.72511975  0.83162254  1  0  0.085419  0  0.945387  0  0  0.100494  0  1.00777  0  0  0.102167  0  1.007588  0  0.039645  0  0.098294  0.099268  0  1.007992  0
H  H12  1  0.27467744  0.33340053  0.14070852  1  0  0.108046  0  0.953442  0  0  0.123775  0  1.012288  0  0  0.125579  0  1.011972  0  0.097907  0  0.103165  0.122713  0  1.012246  0
H  H13  1  0.72532501  0.66659917  0.85929129  1  0  0.108025  0  0.953439  0  0  0.123764  0  1.012291  0  0  0.125572  0  1.011973  0  0.097884  0  0.103151  0.122702  0  1.012249  0
H  H14  1  0.17847451  0.57012776  0.66569429  1  0  0.116195  0  0.951308  0  0  0.126216  0  1.012347  0  0  0.130081  0  1.010183  0  0.089396  0  0.106334  0.123197  0  1.014412  0
H  H15  1  0.82152658  0.42987498  0.33430888  1  0  0.116198  0  0.95123  0  0  0.126191  0  1.012307  0  0  0.130066  0  1.01013  0  0.089355  0  0.106317  0.123173  0  1.014371  0
H  H16  1  0.54681761  0.06386517  0.69309155  1  0  0.103435  0  0.976004  0  0  0.11446  0  1.037268  0  0  0.117494  0  1.035199  0  0.086936  0  0.096833  0.112759  0  1.037792  0
H  H17  1  0.45318130  0.93613351  0.30690642  1  0  0.10343  0  0.976005  0  0  0.114455  0  1.037263  0  0  0.117468  0  1.035222  0  0.086497  0  0.096831  0.112754  0  1.037787  0
H  H18  1  0.39090841  0.02513417  0.46788111  1  0  0.083458  0  0.990599  0  0  0.095169  0  1.052775  0  0  0.097316  0  1.052105  0  0.030543  0  0.094153  0.093362  0  1.053673  0
H  H19  1  0.60909159  0.97486857  0.53211834  1  0  0.083451  0  0.99062  0  0  0.095165  0  1.05279  0  0  0.097314  0  1.05212  0  0.03053  0  0.094158  0.093357  0  1.053687  0
H  H20  1  0.97552311  0.83988125  0.91494752  1  0  0.095089  0  0.959488  0  0  0.106123  0  1.020262  0  0  0.10937  0  1.018625  0  0.049991  0  0.098094  0.10383  0  1.02132  0
H  H21  1  0.02447744  0.16011946  0.08505404  1  0  0.095073  0  0.95948  0  0  0.106106  0  1.020259  0  0  0.109355  0  1.018621  0  0.050012  0  0.098082  0.103813  0  1.021319  0
H  H22  1  0.13434859  0.94825217  0.62226859  1  0  0.090269  0  1.005526  0  0  0.100497  0  1.070427  0  0  0.102168  0  1.07243  0  0.087433  0  0.096257  0.099125  0  1.069501  0
H  H23  1  0.86565059  0.05174753  0.37773241  1  0  0.090257  0  1.005526  0  0  0.100495  0  1.070418  0  0  0.102169  0  1.072424  0  0.087436  0  0.096243  0.099122  0  1.069495  0
H  H24  1  0.20015217  0.58241483  0.34201706  1  0  0.077513  0  0.930435  0  0  0.095865  0  0.98956  0  0  0.095798  0  0.990128  0  0.077171  0  0.105336  0.095812  0  0.989349  0
H  H25  1  0.79984947  0.41758588  0.65798558  1  0  0.077477  0  0.930441  0  0  0.095856  0  0.989578  0  0  0.09579  0  0.990145  0  0.07713  0  0.105323  0.095802  0  0.989366  0
H  H26  1  0.12646127  0.51509009  0.44557512  1  0  0.05447  0  0.951276  0  0  0.068986  0  1.021679  0  0  0.068746  0  1.02252  0  0.046012  0  0.097757  0.069474  0  1.020339  0
H  H27  1  0.87354146  0.48491062  0.55442770  1  0  0.054436  0  0.951254  0  0  0.068973  0  1.021672  0  0  0.068733  0  1.022513  0  0.046159  0  0.097738  0.069461  0  1.020332  0
H  H28  1  0.25382952  0.33123145  0.39350748  1  0  0.087824  0  0.961114  0  0  0.099834  0  1.022034  0  0  0.10158  0  1.023021  0  0.054565  0  0.096099  0.098037  0  1.022199  0
H  H29  1  0.74617375  0.66877129  0.60649519  1  0  0.087901  0  0.961168  0  0  0.099887  0  1.022088  0  0  0.101632  0  1.023076  0  0.054177  0  0.096136  0.098091  0  1.02225  0
H  H30  1  0.50756423  0.95288556  0.85776463  1  0  0.070072  0  0.933219  0  0  0.089796  0  0.99211  0  0  0.090381  0  0.992696  0  0.01695  0  0.092596  0.089319  0  0.991869  0
H  H31  1  0.49242977  0.04710703  0.14223146  1  0  0.070168  0  0.933172  0  0  0.089865  0  0.992072  0  0  0.09045  0  0.992656  0  0.017032  0  0.092633  0.089387  0  0.991833  0
H  H32  1  0.66353039  0.99877210  0.99688043  1  0  0.076358  0  0.937143  0  0  0.095089  0  0.996292  0  0  0.094917  0  0.998284  0  0.051383  0  0.094099  0.095197  0  0.994773  0
H  H33  1  0.33646362  0.00122049  0.00311743  1  0  0.076375  0  0.937067  0  0  0.09509  0  0.996219  0  0  0.094919  0  0.99821  0  0.051508  0  0.094096  0.095198  0  0.994701  0
H  H34  1  0.02140896  0.00566721  0.80547287  1  0  0.087286  0  0.966875  0  0  0.094313  0  1.034487  0  0  0.09718  0  1.032871  0  0.075185  0  0.09219  0.092296  0  1.0357  0
H  H35  1  0.97859050  0.99433350  0.19452850  1  0  0.087275  0  0.9669  0  0  0.094319  0  1.034501  0  0  0.097188  0  1.032882  0  0.075205  0  0.092179  0.092288  0  1.035726  0
H  H36  1  0.16223872  0.10922313  0.43506188  1  0  0.086935  0  0.980638  0  0  0.097883  0  1.043274  0  0  0.099831  0  1.043655  0  0.097273  0  0.095139  0.096453  0  1.043095  0
H  H37  1  0.83776046  0.89077656  0.56493647  1  0  0.086932  0  0.980667  0  0  0.09787  0  1.043304  0  0  0.099825  0  1.043681  0  0.097286  0  0.095138  0.09644  0  1.043125  0
H  H38  1  0.50916800  0.74597966  0.56787788  1  0  0.086507  0  0.966271  0  0  0.094937  0  1.031758  0  0  0.098015  0  1.03045  0  0.018267  0  0.093726  0.092556  0  1.032953  0
H  H39  1  0.49083391  0.25402206  0.43212424  1  0  0.086534  0  0.96626  0  0  0.09494  0  1.031764  0  0  0.098019  0  1.030453  0  0.018267  0  0.093738  0.092562  0  1.032954  0
H  H40  1  0.49887907  0.52686481  0.27693973  1  0  0.106457  0  0.973338  0  0  0.125732  0  1.036333  0  0  0.126145  0  1.039579  0  0.030051  0  0.087996  0.12539  0  1.034222  0
H  H41  1  0.50112010  0.47313894  0.72305634  1  0  0.106388  0  0.973369  0  0  0.125669  0  1.036337  0  0  0.12608  0  1.039587  0  0.030028  0  0.087947  0.125326  0  1.034227  0
H  H42  1  0.41859023  0.54130473  0.12603761  1  0  0.102406  0  0.94116  0  0  0.12413  0  0.999199  0  0  0.125657  0  0.999241  0  0.04096  0  0.086426  0.12299  0  0.999129  0
H  H43  1  0.58140649  0.45869395  0.87395644  1  0  0.102396  0  0.941101  0  0  0.12401  0  0.999271  0  0  0.125538  0  0.999314  0  0.041041  0  0.086352  0.122869  0  0.999204  0
H  H44  1  0.58783885  0.48434553  0.14963253  1  0  0.104666  0  0.957976  0  0  0.121959  0  1.025037  0  0  0.123751  0  1.024729  0  0.044583  0  0.083947  0.120924  0  1.024814  0
H  H45  1  0.41215869  0.51565620  0.85036262  1  0  0.104658  0  0.957968  0  0  0.121922  0  1.025063  0  0  0.123725  0  1.024743  0  0.044627  0  0.083958  0.120889  0  1.024837  0
C  C46  1  0.39234946  0.16654352  0.78172941  1  0  0.102886  0  3.794948  0  0  0.09488  0  4.037166  0  0  0.098253  0  4.059881  0  0.294687  0  0.094231  0.092389  0  4.02142  0
C  C47  1  0.60765218  0.83345719  0.21826968  1  0  0.10292  0  3.794836  0  0  0.094917  0  4.037078  0  0  0.098297  0  4.059774  0  0.294691  0  0.094263  0.092425  0  4.02133  0
C  C48  1  0.58251251  0.16704470  0.97672757  1  0  0.007745  0  3.617241  0  0  -0.053177  0  3.87442  0  0  -0.048763  0  3.885985  0  0.270602  0  -0.053952  -0.056121  0  3.866294  0
C  C49  1  0.41748395  0.83294891  0.02327016  1  0  0.007644  0  3.617331  0  0  -0.053324  0  3.874561  0  0  -0.048927  0  3.88615  0  0.27054  0  -0.054007  -0.056268  0  3.866431  0
C  C50  1  0.17600481  0.19667327  0.63894037  1  0  -0.14057  0  3.729872  0  0  -0.154152  0  3.973727  0  0  -0.157021  0  3.993332  0  -0.103623  0  -0.091259  -0.152287  0  3.959928  0
C  C51  1  0.82399601  0.80332846  0.36106067  1  0  -0.140587  0  3.729925  0  0  -0.154179  0  3.973764  0  0  -0.157049  0  3.993378  0  -0.103635  0  -0.091301  -0.152314  0  3.959967  0
C  C52  1  0.07401603  0.69633223  0.79466717  1  0  -0.069202  0  3.832337  0  0  -0.046178  0  4.069278  0  0  -0.052448  0  4.092822  0  -0.101746  0  -0.027929  -0.041884  0  4.053322  0
C  C53  1  0.92598369  0.30366949  0.20533633  1  0  -0.069355  0  3.832356  0  0  -0.046332  0  4.069308  0  0  -0.052601  0  4.092854  0  -0.10166  0  -0.02798  -0.042041  0  4.053354  0
C  C54  1  0.38349913  0.33367851  0.11904520  1  0  -0.180994  0  3.732988  0  0  -0.217791  0  3.987679  0  0  -0.221438  0  3.998273  0  -0.01832  0  -0.158531  -0.215358  0  3.979993  0
C  C55  1  0.61650114  0.66632118  0.88095334  1  0  -0.181027  0  3.732975  0  0  -0.21784  0  3.98768  0  0  -0.221497  0  3.998285  0  -0.018385  0  -0.158524  -0.215407  0  3.979993  0
C  C56  1  0.14334569  0.66515243  0.69344650  1  0  -0.200679  0  3.691305  0  0  -0.227512  0  3.940251  0  0  -0.230704  0  3.957617  0  -0.066735  0  -0.105296  -0.225611  0  3.92859  0
C  C57  1  0.85665349  0.33484726  0.30655538  1  0  -0.200572  0  3.691193  0  0  -0.227399  0  3.940114  0  0  -0.230595  0  3.95749  0  -0.066718  0  -0.105242  -0.225496  0  3.928453  0
C  C58  1  0.44357913  0.09829149  0.67722751  1  0  -0.142232  0  3.759341  0  0  -0.165357  0  4.017174  0  0  -0.16731  0  4.035909  0  0.086966  0  -0.096515  -0.163962  0  4.003654  0
C  C59  1  0.55642114  0.90170821  0.32277014  1  0  -0.142223  0  3.759281  0  0  -0.165341  0  4.017118  0  0  -0.167277  0  4.035857  0  0.087409  0  -0.096501  -0.163947  0  4.003599  0
C  C60  1  0.26060615  0.21464581  0.76395423  1  0  0.152784  0  3.84377  0  0  0.147741  0  4.088273  0  0  0.151324  0  4.112267  0  0.390821  0  0.087549  0.146232  0  4.071073  0
C  C61  1  0.73939548  0.78535490  0.23604664  1  0  0.152766  0  3.843735  0  0  0.14775  0  4.088209  0  0  0.151331  0  4.112205  0  0.390896  0  0.087565  0.146241  0  4.07101  0
C  C62  1  0.35740637  0.07933282  0.55314903  1  0  -0.079443  0  3.791025  0  0  -0.096252  0  4.048563  0  0  -0.097916  0  4.069842  0  -0.098796  0  -0.10075  -0.095099  0  4.034981  0
C  C63  1  0.64259199  0.92066789  0.44684949  1  0  -0.079398  0  3.79102  0  0  -0.096211  0  4.048563  0  0  -0.097878  0  4.06984  0  -0.098772  0  -0.100743  -0.095058  0  4.03498  0
C  C64  1  0.16310142  0.75459512  0.62770154  1  0  0.24792  0  3.8514  0  0  0.243436  0  4.100916  0  0  0.253023  0  4.120633  0  0.419555  0  0.096659  0.237159  0  4.087081  0
C  C65  1  0.83689885  0.24540457  0.37230143  1  0  0.247886  0  3.851507  0  0  0.243432  0  4.100951  0  0  0.253018  0  4.120669  0  0.419525  0  0.096635  0.237154  0  4.087117  0
C  C66  1  0.02886142  0.81812854  0.83605828  1  0  -0.118667  0  3.774843  0  0  -0.145074  0  4.026033  0  0  -0.147131  0  4.046698  0  0.059876  0  -0.10769  -0.1431  0  4.011736  0
C  C67  1  0.97113776  0.18187116  0.16394272  1  0  -0.118567  0  3.774817  0  0  -0.144972  0  4.026008  0  0  -0.147032  0  4.046676  0  0.05987  0  -0.107634  -0.142999  0  4.01171  0
C  C68  1  0.36580431  0.54426110  0.47849815  1  0  0.055879  0  3.744503  0  0  0.076703  0  3.981244  0  0  0.075997  0  4.005253  0  -0.021559  0  -0.016772  0.076892  0  3.965294  0
C  C69  1  0.63419651  0.45574063  0.52150466  1  0  0.055833  0  3.744622  0  0  0.076704  0  3.981344  0  0  0.075999  0  4.005355  0  -0.021497  0  -0.016776  0.076892  0  3.965393  0
C  C70  1  0.04543830  0.59763696  0.85820656  1  0  0.663719  0  3.883121  0  0  0.610189  0  4.174217  0  0  0.645523  0  4.165199  0  1.516045  0  0.22023  0.586127  0  4.179764  0
C  C71  1  0.95456333  0.40236375  0.14179431  1  0  0.663854  0  3.882989  0  0  0.610328  0  4.174091  0  0  0.645661  0  4.165072  0  1.515998  0  0.220341  0.586269  0  4.179633  0
C  C72  1  0.11993613  0.87847021  0.67248630  1  0  -0.167445  0  3.724947  0  0  -0.187072  0  3.973812  0  0  -0.191469  0  3.994466  0  -0.041048  0  -0.100657  -0.18421  0  3.960159  0
C  C73  1  0.88006359  0.12153151  0.32751543  1  0  -0.167459  0  3.724984  0  0  -0.187111  0  3.973848  0  0  -0.191513  0  3.994506  0  -0.041041  0  -0.100657  -0.184248  0  3.960188  0
C  C74  1  0.35407438  0.26805718  0.97517436  1  0  0.379054  0  3.641866  0  0  0.344288  0  3.916863  0  0  0.364171  0  3.928255  0  1.026355  0  0.242563  0.331343  0  3.908571  0
C  C75  1  0.64592562  0.73194150  0.02482469  1  0  0.378964  0  3.641877  0  0  0.344242  0  3.916869  0  0  0.364129  0  3.928262  0  1.02636  0  0.242543  0.331298  0  3.908576  0
C  C76  1  0.22144034  0.58828393  0.44372214  1  0  0.01147  0  3.69909  0  0  -0.051611  0  3.955664  0  0  -0.046465  0  3.967263  0  0.337312  0  -0.058239  -0.055051  0  3.947461  0
C  C77  1  0.77856157  0.41171779  0.55628086  1  0  0.011653  0  3.698872  0  0  -0.051557  0  3.955599  0  0  -0.046415  0  3.967201  0  0.337109  0  -0.058194  -0.054998  0  3.947399  0
C  C78  1  0.36202016  0.40566202  0.44026451  1  0  -0.120685  0  3.766059  0  0  -0.136566  0  4.009192  0  0  -0.139609  0  4.031899  0  -0.0956  0  -0.094219  -0.134677  0  3.994879  0
C  C79  1  0.63798284  0.59433971  0.55973780  1  0  -0.120788  0  3.766169  0  0  -0.136653  0  4.009297  0  0  -0.139696  0  4.032004  0  -0.09523  0  -0.094273  -0.134762  0  3.994982  0
C  C80  1  0.55318547  0.01807298  0.96219806  1  0  -0.125599  0  3.672561  0  0  -0.168308  0  3.936551  0  0  -0.169483  0  3.950174  0  -0.031158  0  -0.163828  -0.167224  0  3.927035  0
C  C81  1  0.44680799  0.98192164  0.03779768  1  0  -0.125688  0  3.672414  0  0  -0.168343  0  3.936403  0  0  -0.169511  0  3.950029  0  -0.005925  0  -0.163847  -0.167258  0  3.926889  0
C  C82  1  0.05531872  0.90992597  0.77526016  1  0  -0.062126  0  3.812681  0  0  -0.073451  0  4.067097  0  0  -0.072911  0  4.085836  0  -0.087936  0  -0.099611  -0.074066  0  4.054491  0
C  C83  1  0.94467964  0.09007474  0.22474013  1  0  -0.062115  0  3.812742  0  0  -0.073456  0  4.067142  0  0  -0.072914  0  4.085882  0  -0.087904  0  -0.099607  -0.074055  0  4.054535  0
C  C84  1  0.22624666  0.12761164  0.53415027  1  0  -0.075538  0  3.789916  0  0  -0.092715  0  4.042911  0  0  -0.094681  0  4.06516  0  0.013053  0  -0.09869  -0.091592  0  4.028436  0
C  C85  1  0.77375415  0.87239009  0.46584988  1  0  -0.075584  0  3.789955  0  0  -0.092748  0  4.042952  0  0  -0.094721  0  4.0652  0  0.013057  0  -0.098701  -0.091624  0  4.028475  0
C  C86  1  0.50536764  0.63801862  0.53885865  1  0  -0.113085  0  3.772791  0  0  -0.131203  0  4.01864  0  0  -0.133441  0  4.039577  0  -0.00225  0  -0.097433  -0.12971  0  4.004794  0
C  C87  1  0.49463426  0.36198311  0.46114435  1  0  -0.113186  0  3.77293  0  0  -0.131291  0  4.018785  0  0  -0.13353  0  4.039723  0  -0.002247  0  -0.097511  -0.129799  0  4.004939  0
C  C88  1  0.47846083  0.48053796  0.17081793  1  0  -0.269607  0  3.650556  0  0  -0.341482  0  3.891732  0  0  -0.343976  0  3.902261  0  -0.040926  0  -0.245388  -0.339523  0  3.884128  0
C  C89  1  0.52153644  0.51946275  0.82917686  1  0  -0.269479  0  3.650548  0  0  -0.341224  0  3.89171  0  0  -0.343727  0  3.902235  0  -0.040853  0  -0.245276  -0.339265  0  3.884105  0
N  N90  1  0.44865744  0.20201278  0.91558762  1  0  -0.162864  0  3.462776  0  0  -0.07671  0  3.682504  0  0  -0.093838  0  3.705306  0  -1.224799  0  -0.235976  -0.064995  0  3.666608  0
N  N91  1  0.55134147  0.79798590  0.08441124  1  0  -0.162778  0  3.462751  0  0  -0.076682  0  3.682568  0  0  -0.093807  0  3.705373  0  -1.224812  0  -0.235982  -0.064966  0  3.66667  0
N  N92  1  0.23948214  0.27605174  0.88604637  1  0  -0.492681  0  3.216569  0  0  -0.421792  0  3.515237  0  0  -0.445134  0  3.525109  0  -1.258559  0  -0.362263  -0.406867  0  3.508082  0
N  N93  1  0.76051868  0.72394999  0.11395378  1  0  -0.492676  0  3.216515  0  0  -0.421783  0  3.515149  0  0  -0.445128  0  3.525025  0  -1.258632  0  -0.362273  -0.406858  0  3.507994  0
N  N94  1  0.22080203  0.72531353  0.52210139  1  0  -0.406166  0  3.344051  0  0  -0.350005  0  3.590756  0  0  -0.368845  0  3.603983  0  -1.217635  0  -0.444432  -0.336595  0  3.581505  0
N  N95  1  0.77919961  0.27468719  0.47790125  1  0  -0.406288  0  3.344065  0  0  -0.350067  0  3.590758  0  0  -0.36891  0  3.603991  0  -1.217628  0  -0.444437  -0.336657  0  3.581507  0
Cl  Cl96  1  0.84209727  0.20943616  0.76767301  1  0  -0.588757  0  0.889821  0  0  -0.524583  0  1.156044  0  0  -0.540562  0  1.131456  0  -0.667376  0  -0.301789  -0.513476  0  1.171669  0
Cl  Cl97  1  0.15790519  0.79056354  0.23232857  1  0  -0.588766  0  0.889812  0  0  -0.5246  0  1.156048  0  0  -0.540577  0  1.131456  0  -0.667348  0  -0.301802  -0.513495  0  1.171672  0
O  O98  1  0.12207473  0.50812122  0.84829588  1  0  -0.611913  0  2.070439  0  0  -0.540362  0  2.340792  0  0  -0.566693  0  2.325249  0  -1.155346  0  -0.308232  -0.521929  0  2.350597  0
O  O99  1  0.87792691  0.49187949  0.15170587  1  0  -0.611944  0  2.07036  0  0  -0.540393  0  2.340717  0  0  -0.566728  0  2.325177  0  -1.155334  0  -0.308309  -0.521963  0  2.350521  0
O  O100  1  0.94207698  0.60469206  0.91647568  1  0  -0.663344  0  2.146364  0  0  -0.590682  0  2.434899  0  0  -0.616648  0  2.415532  0  -1.20198  0  -0.329548  -0.573103  0  2.447839  0
O  O101  1  0.05792329  0.39530764  0.08352551  1  0  -0.66338  0  2.14635  0  0  -0.590732  0  2.434906  0  0  -0.616695  0  2.415535  0  -1.201971  0  -0.329559  -0.573152  0  2.447843  0
