# generated using pymatgen
data_CdH19C28N4ClO4
_symmetry_space_group_name_H-M   'P 1'
_cell_length_a   8.48537365
_cell_length_b   11.65879005
_cell_length_c   14.55177218
_cell_angle_alpha   113.05017712
_cell_angle_beta   93.33852874
_cell_angle_gamma   106.70596027
_symmetry_Int_Tables_number   1
_chemical_formula_structural   CdH19C28N4ClO4
_chemical_formula_sum   'Cd2 H38 C56 N8 Cl2 O8'
_cell_volume   1244.70041942
_cell_formula_units_Z   2
loop_
 _symmetry_equiv_pos_site_id
 _symmetry_equiv_pos_as_xyz
  1  'x, y, z'
loop_
 _atom_site_type_symbol
 _atom_site_label
 _atom_site_symmetry_multiplicity
 _atom_site_fract_x
 _atom_site_fract_y
 _atom_site_fract_z
 _atom_site_occupancy
 _atom_site_hle17_bader_spin_density
 _atom_site_hle17_ddec_charge
 _atom_site_hle17_ddec_spin_density
 _atom_site_hle17_ddec_sum_bond_order
 _atom_site_hle17_magmom
 _atom_site_hse06_10hf_bader_spin_density
 _atom_site_hse06_10hf_ddec_charge
 _atom_site_hse06_10hf_ddec_spin_density
 _atom_site_hse06_10hf_ddec_sum_bond_order
 _atom_site_hse06_10hf_magmom
 _atom_site_hse06_bader_spin_density
 _atom_site_hse06_ddec_charge
 _atom_site_hse06_ddec_spin_density
 _atom_site_hse06_ddec_sum_bond_order
 _atom_site_hse06_magmom
 _atom_site_pbe_bader_spin_density
 _atom_site_pbe_cm5_charge
 _atom_site_pbe_ddec_charge
 _atom_site_pbe_ddec_spin_density
 _atom_site_pbe_ddec_sum_bond_order
 _atom_site_pbe_magmom
Cd  Cd0  1  0.70418045  0.06710274  0.08408087  1  0  1.019288  0  1.852028  0  0  0.847899  0  2.308174  0  0  0.898733  0  2.26266  0  0  0.677503  0.812104  0  2.338984  0
Cd  Cd1  1  0.29582328  0.93290395  0.91592047  1  0  1.019216  0  1.852092  0  0  0.84781  0  2.308241  0  0  0.898641  0  2.262731  0  0  0.677498  0.812021  0  2.33904  0
H  H2  1  0.98209767  0.51097604  0.09732944  1  0  0.09727  0  0.965845  0  0  0.104934  0  1.03164  0  0  0.107708  0  1.030478  0  0  0.100475  0.1029  0  1.032522  0
H  H3  1  0.01790501  0.48902568  0.90266962  1  0  0.097246  0  0.965815  0  0  0.104913  0  1.031612  0  0  0.107688  0  1.030449  0  0  0.100463  0.102879  0  1.032493  0
H  H4  1  0.23370339  0.69693899  0.11704908  1  0  0.104979  0  0.965659  0  0  0.114978  0  1.028398  0  0  0.117485  0  1.02827  0  0  0.105791  0.113194  0  1.028594  0
H  H5  1  0.76629621  0.30306377  0.88295020  1  0  0.104889  0  0.96561  0  0  0.114909  0  1.028337  0  0  0.117418  0  1.028205  0  0  0.105748  0.113124  0  1.028534  0
H  H6  1  0.54380685  0.46090211  0.11855779  1  0  0.108252  0  0.951091  0  0  0.12155  0  1.007054  0  0  0.124677  0  1.005498  0  0  0.107673  0.119295  0  1.0083  0
H  H7  1  0.45619892  0.53910654  0.88144011  1  0  0.10834  0  0.951084  0  0  0.121585  0  1.007104  0  0  0.124703  0  1.005562  0  0  0.107643  0.119332  0  1.008348  0
H  H8  1  0.29035707  0.27901531  0.10501471  1  0  0.107084  0  0.959476  0  0  0.112537  0  1.028604  0  0  0.115841  0  1.026094  0  0  0.100987  0.110124  0  1.030411  0
H  H9  1  0.70965206  0.72099030  0.89498235  1  0  0.107158  0  0.959388  0  0  0.112542  0  1.028585  0  0  0.115843  0  1.026077  0  0  0.100977  0.11013  0  1.030394  0
H  H10  1  0.41488098  0.77044702  0.03852193  1  0  0.106974  0  0.957191  0  0  0.113087  0  1.027419  0  0  0.116137  0  1.022955  0  0  0.135132  0.110794  0  1.030639  0
H  H11  1  0.58511832  0.22955774  0.96147522  1  0  0.107085  0  0.957103  0  0  0.113112  0  1.0274  0  0  0.116152  0  1.022966  0  0  0.13513  0.110819  0  1.030619  0
H  H12  1  0.03477802  0.98094904  0.14699642  1  0  0.124653  0  0.935494  0  0  0.134653  0  0.996796  0  0  0.137631  0  0.995027  0  0  0.108585  0.132462  0  0.998207  0
H  H13  1  0.96522567  0.01904967  0.85300241  1  0  0.124702  0  0.935437  0  0  0.134687  0  0.996758  0  0  0.137664  0  0.994988  0  0  0.10861  0.132496  0  0.998161  0
H  H14  1  0.19548185  0.90635820  0.24880113  1  0  0.086015  0  0.96056  0  0  0.098713  0  1.020611  0  0  0.101292  0  1.019723  0  0  0.096751  0.096851  0  1.02135  0
H  H15  1  0.80451877  0.09364155  0.75119862  1  0  0.086042  0  0.960549  0  0  0.098737  0  1.020605  0  0  0.101317  0  1.019714  0  0  0.09676  0.096874  0  1.021342  0
H  H16  1  0.05058674  0.72326657  0.29245454  1  0  0.080487  0  0.959069  0  0  0.092321  0  1.018601  0  0  0.095079  0  1.017458  0  0  0.0961  0.090339  0  1.019478  0
H  H17  1  0.94941460  0.27673218  0.70754354  1  0  0.080433  0  0.959083  0  0  0.092271  0  1.018619  0  0  0.095033  0  1.01747  0  0  0.09607  0.090289  0  1.019497  0
H  H18  1  0.74292994  0.60682638  0.23668837  1  0  0.101137  0  0.964747  0  0  0.114083  0  1.021361  0  0  0.116986  0  1.019589  0  0  0.104692  0.112006  0  1.022696  0
H  H19  1  0.25706893  0.39317739  0.76330983  1  0  0.101151  0  0.964754  0  0  0.114122  0  1.021333  0  0  0.117024  0  1.019563  0  0  0.104697  0.112041  0  1.022676  0
H  H20  1  0.05205338  0.27548259  0.26299417  1  0  0.090314  0  0.956832  0  0  0.098444  0  1.023599  0  0  0.100773  0  1.020115  0  0  0.13606  0.096717  0  1.025988  0
H  H21  1  0.94794420  0.72451820  0.73701337  1  0  0.09037  0  0.956863  0  0  0.098454  0  1.02366  0  0  0.100781  0  1.020179  0  0  0.136066  0.09673  0  1.026046  0
H  H22  1  0.49889721  0.98025375  0.26716684  1  0  0.101447  0  0.967347  0  0  0.109178  0  1.036007  0  0  0.111924  0  1.034292  0  0  0.095019  0.107141  0  1.03738  0
H  H23  1  0.50110292  0.01973704  0.73282939  1  0  0.101433  0  0.967315  0  0  0.109183  0  1.035966  0  0  0.111932  0  1.034248  0  0  0.095029  0.107142  0  1.037333  0
H  H24  1  0.47653802  0.88931438  0.39866424  1  0  0.0885  0  0.955263  0  0  0.101408  0  1.011383  0  0  0.103882  0  1.011049  0  0  0.096211  0.099624  0  1.011707  0
H  H25  1  0.52344860  0.11067262  0.60132898  1  0  0.088466  0  0.955129  0  0  0.101395  0  1.01124  0  0  0.103871  0  1.010905  0  0  0.096251  0.099624  0  1.011552  0
H  H26  1  0.72003002  0.95833579  0.53298345  1  0  0.085457  0  0.96174  0  0  0.096752  0  1.022466  0  0  0.09852  0  1.023524  0  0  0.095888  0.095481  0  1.021803  0
H  H27  1  0.27995896  0.04165118  0.46701121  1  0  0.085392  0  0.961755  0  0  0.096704  0  1.022471  0  0  0.098486  0  1.023488  0  0  0.095872  0.095436  0  1.021806  0
H  H28  1  0.99578072  0.11488329  0.54078874  1  0  0.098792  0  0.991632  0  0  0.106208  0  1.060638  0  0  0.108536  0  1.060639  0  0  0.09907  0.104564  0  1.06066  0
H  H29  1  0.00421104  0.88510464  0.45920699  1  0  0.098769  0  0.991577  0  0  0.106176  0  1.060616  0  0  0.108502  0  1.060623  0  0  0.09908  0.104542  0  1.060621  0
H  H30  1  0.17675022  0.33093406  0.58261702  1  0  0.107012  0  0.951637  0  0  0.118185  0  1.010901  0  0  0.121424  0  1.009157  0  0  0.108631  0.115845  0  1.012297  0
H  H31  1  0.82324997  0.66906470  0.41738652  1  0  0.107027  0  0.951545  0  0  0.11819  0  1.010842  0  0  0.121429  0  1.009099  0  0  0.108639  0.115849  0  1.012238  0
H  H32  1  0.48389365  0.40929274  0.65129216  1  0  0.100524  0  0.951978  0  0  0.109164  0  1.015126  0  0  0.11172  0  1.014207  0  0  0.105494  0.107294  0  1.015853  0
H  H33  1  0.51610659  0.59071400  0.34871458  1  0  0.100614  0  0.952001  0  0  0.10923  0  1.015172  0  0  0.111784  0  1.014254  0  0  0.105512  0.107357  0  1.015899  0
H  H34  1  0.57969041  0.28706320  0.34603789  1  0  0.113842  0  0.940757  0  0  0.121271  0  1.002674  0  0  0.124674  0  1.000299  0  0  0.109474  0.118781  0  1.004444  0
H  H35  1  0.42030084  0.71293669  0.65396435  1  0  0.113833  0  0.94072  0  0  0.121217  0  1.002673  0  0  0.124625  0  1.000282  0  0  0.109495  0.118725  0  1.004451  0
H  H36  1  0.27481908  0.20069298  0.27690890  1  0  0.117678  0  0.959327  0  0  0.125549  0  1.023776  0  0  0.128591  0  1.022465  0  0  0.104276  0.123325  0  1.024859  0
H  H37  1  0.72517587  0.79930984  0.72309987  1  0  0.117675  0  0.95934  0  0  0.125478  0  1.023921  0  0  0.128521  0  1.022611  0  0  0.104271  0.123252  0  1.025001  0
H  H38  1  0.90286424  0.47227230  0.65566752  1  0  0.402691  0  0.795785  0  0  0.388142  0  0.848601  0  0  0.397309  0  0.838883  0  0  0.34172  0.38151  0  0.855755  0
H  H39  1  0.09713140  0.52772155  0.34433777  1  0  0.402783  0  0.795652  0  0  0.388185  0  0.848528  0  0  0.39735  0  0.838814  0  0  0.341767  0.381556  0  0.855678  0
C  C40  1  0.96607336  0.27066944  0.08502935  1  0  0.61329  0  3.950347  0  0  0.56687  0  4.238842  0  0  0.601055  0  4.234229  0  0  0.181355  0.543818  0  4.240977  0
C  C41  1  0.03393490  0.72933419  0.91497255  1  0  0.613475  0  3.950049  0  0  0.567081  0  4.23851  0  0  0.601266  0  4.233892  0  0  0.181423  0.544028  0  4.240647  0
C  C42  1  0.11990521  0.38280426  0.09854797  1  0  -0.072031  0  3.75792  0  0  -0.048058  0  3.988188  0  0  -0.058061  0  4.012175  0  0  -0.022952  -0.041776  0  3.972169  0
C  C43  1  0.88009880  0.61720042  0.90145344  1  0  -0.072195  0  3.758078  0  0  -0.048251  0  3.988365  0  0  -0.058257  0  4.012353  0  0  -0.023053  -0.041967  0  3.972345  0
C  C44  1  0.10573523  0.50127746  0.10266139  1  0  -0.049881  0  3.753306  0  0  -0.072273  0  3.99774  0  0  -0.069885  0  4.017395  0  0  -0.08245  -0.073512  0  3.984393  0
C  C45  1  0.89426555  0.49872528  0.89734068  1  0  -0.049752  0  3.753307  0  0  -0.072141  0  3.997726  0  0  -0.069754  0  4.017383  0  0  -0.082399  -0.073379  0  3.984376  0
C  C46  1  0.24709613  0.60531484  0.11352861  1  0  -0.154643  0  3.735864  0  0  -0.173886  0  3.985735  0  0  -0.179719  0  4.006192  0  0  -0.092593  -0.170175  0  3.971977  0
C  C47  1  0.75290346  0.39468793  0.88646793  1  0  -0.154713  0  3.735705  0  0  -0.173957  0  3.985615  0  0  -0.17979  0  4.00607  0  0  -0.092545  -0.170247  0  3.971857  0
C  C48  1  0.40538253  0.59101532  0.11864978  1  0  0.195636  0  3.772224  0  0  0.187688  0  4.021526  0  0  0.196008  0  4.04245  0  0  0.09755  0.182307  0  4.007208  0
C  C49  1  0.59461854  0.40899340  0.88134524  1  0  0.196117  0  3.771664  0  0  0.188128  0  4.021023  0  0  0.196449  0  4.041942  0  0  0.097663  0.182745  0  4.006712  0
C  C50  1  0.42186121  0.47399939  0.11689776  1  0  -0.162931  0  3.729783  0  0  -0.185682  0  3.988751  0  0  -0.191149  0  4.008056  0  0  -0.097365  -0.182143  0  3.975696  0
C  C51  1  0.57814321  0.52600629  0.88309573  1  0  -0.163312  0  3.730024  0  0  -0.186016  0  3.988984  0  0  -0.191477  0  4.008291  0  0  -0.097427  -0.182475  0  3.975928  0
C  C52  1  0.27938431  0.37117394  0.10787260  1  0  -0.042475  0  3.720965  0  0  -0.068118  0  3.974046  0  0  -0.065374  0  3.99293  0  0  -0.081371  -0.069622  0  3.96121  0
C  C53  1  0.72062319  0.62883070  0.89212341  1  0  -0.04239  0  3.721188  0  0  -0.067955  0  3.974216  0  0  -0.065209  0  3.993102  0  0  -0.08127  -0.069462  0  3.961383  0
C  C54  1  0.53345051  0.77913228  0.07831549  1  0  0.202545  0  3.646844  0  0  0.139904  0  3.921158  0  0  0.157293  0  3.930928  0  0  0.162511  0.128683  0  3.914059  0
C  C55  1  0.46655336  0.22087740  0.92168267  1  0  0.202258  0  3.646906  0  0  0.139711  0  3.921222  0  0  0.157099  0  3.930982  0  0  0.162408  0.128492  0  3.914121  0
C  C56  1  0.79834803  0.83959938  0.13991026  1  0  0.151029  0  3.815086  0  0  0.147882  0  4.061133  0  0  0.150855  0  4.085181  0  0  0.090271  0.145772  0  4.044954  0
C  C57  1  0.20165418  0.16040135  0.86008366  1  0  0.151053  0  3.815056  0  0  0.147831  0  4.061139  0  0  0.150799  0  4.085189  0  0  0.090256  0.145722  0  4.044961  0
C  C58  1  0.97201760  0.90272613  0.16902705  1  0  -0.111759  0  3.69662  0  0  -0.135171  0  3.952106  0  0  -0.136805  0  3.97215  0  0  -0.084797  -0.134033  0  3.938619  0
C  C59  1  0.02798668  0.09727656  0.83097168  1  0  -0.111822  0  3.696698  0  0  -0.135203  0  3.952188  0  0  -0.136835  0  3.972232  0  0  -0.084807  -0.13406  0  3.93869  0
C  C60  1  0.05978542  0.85913975  0.22455900  1  0  -0.079665  0  3.774252  0  0  -0.095496  0  4.02863  0  0  -0.098404  0  4.051145  0  0  -0.098401  -0.093475  0  4.013306  0
C  C61  1  0.94021826  0.14085896  0.77543777  1  0  -0.079721  0  3.77423  0  0  -0.09556  0  4.028609  0  0  -0.098468  0  4.051124  0  0  -0.098425  -0.093537  0  4.013284  0
C  C62  1  0.97678742  0.75464523  0.24917525  1  0  -0.069365  0  3.797893  0  0  -0.082189  0  4.050085  0  0  -0.083674  0  4.072309  0  0  -0.095942  -0.081063  0  4.034862  0
C  C63  1  0.02321860  0.24535345  0.75082159  1  0  -0.069259  0  3.797891  0  0  -0.08209  0  4.050088  0  0  -0.083575  0  4.072317  0  0  -0.095925  -0.080965  0  4.034867  0
C  C64  1  0.80401195  0.68853214  0.21810633  1  0  -0.153732  0  3.764038  0  0  -0.173301  0  4.01652  0  0  -0.176503  0  4.036454  0  0  -0.097049  -0.171079  0  4.00296  0
C  C65  1  0.19598719  0.31146963  0.78188919  1  0  -0.153787  0  3.764115  0  0  -0.173399  0  4.016553  0  0  -0.176596  0  4.036474  0  0  -0.097022  -0.171174  0  4.002995  0
C  C66  1  0.71547442  0.73210410  0.16230911  1  0  0.109902  0  3.746865  0  0  0.101578  0  3.989496  0  0  0.105678  0  4.012214  0  0  0.095157  0.098837  0  3.974153  0
C  C67  1  0.28452544  0.26789666  0.83768543  1  0  0.109943  0  3.746822  0  0  0.101742  0  3.989324  0  0  0.105845  0  4.012039  0  0  0.095255  0.098999  0  3.973983  0
C  C68  1  0.97171056  0.22110040  0.29814295  1  0  0.226292  0  3.655068  0  0  0.160808  0  3.933362  0  0  0.179507  0  3.941055  0  0  0.162341  0.148672  0  3.927654  0
C  C69  1  0.02828612  0.77889841  0.70186255  1  0  0.226239  0  3.655409  0  0  0.160906  0  3.933692  0  0  0.179608  0  3.941384  0  0  0.162426  0.148765  0  3.927988  0
C  C70  1  0.76070345  0.09575571  0.32988884  1  0  0.150498  0  3.810262  0  0  0.149093  0  4.056192  0  0  0.152041  0  4.080507  0  0  0.087209  0.147045  0  4.039788  0
C  C71  1  0.23929228  0.90423315  0.67010800  1  0  0.150504  0  3.810087  0  0  0.148961  0  4.056199  0  0  0.151907  0  4.080521  0  0  0.087233  0.146912  0  4.039792  0
C  C72  1  0.60550481  0.00834484  0.32643611  1  0  -0.134368  0  3.738123  0  0  -0.155724  0  3.993388  0  0  -0.158658  0  4.014976  0  0  -0.095675  -0.15366  0  3.978766  0
C  C73  1  0.39449383  0.99163999  0.67355888  1  0  -0.134316  0  3.738001  0  0  -0.155648  0  3.993296  0  0  -0.158582  0  4.014885  0  0  -0.0957  -0.153574  0  3.978669  0
C  C74  1  0.59483370  0.95902723  0.39973666  1  0  -0.080125  0  3.791025  0  0  -0.096003  0  4.045345  0  0  -0.098529  0  4.068148  0  0  -0.100971  -0.094185  0  4.029757  0
C  C75  1  0.40515539  0.04095476  0.60025575  1  0  -0.079936  0  3.790865  0  0  -0.095836  0  4.045201  0  0  -0.098362  0  4.068002  0  0  -0.100893  -0.094033  0  4.029615  0
C  C76  1  0.73386187  0.99846782  0.47651385  1  0  -0.075017  0  3.79237  0  0  -0.088983  0  4.044503  0  0  -0.090947  0  4.067248  0  0  -0.10019  -0.087577  0  4.028974  0
C  C77  1  0.26613106  0.00152009  0.52348123  1  0  -0.075021  0  3.792368  0  0  -0.088996  0  4.044509  0  0  -0.090955  0  4.067264  0  0  -0.100189  -0.087592  0  4.02899  0
C  C78  1  0.88905018  0.08674444  0.48182124  1  0  -0.15915  0  3.778542  0  0  -0.177752  0  4.02989  0  0  -0.180795  0  4.050028  0  0  -0.10112  -0.175592  0  4.016223  0
C  C79  1  0.11094280  0.91325144  0.51817979  1  0  -0.159136  0  3.778523  0  0  -0.177762  0  4.029892  0  0  -0.180808  0  4.050032  0  0  -0.101193  -0.175612  0  4.016213  0
C  C80  1  0.90040414  0.13317404  0.40670620  1  0  0.117132  0  3.749726  0  0  0.107561  0  3.990413  0  0  0.111599  0  4.0123  0  0  0.092826  0.104818  0  3.975664  0
C  C81  1  0.09959148  0.86681981  0.59329359  1  0  0.116986  0  3.749666  0  0  0.107587  0  3.990353  0  0  0.111624  0  4.012243  0  0  0.092814  0.104851  0  3.975596  0
C  C82  1  0.20736957  0.26198821  0.42599007  1  0  0.21034  0  3.76175  0  0  0.200051  0  4.010964  0  0  0.20825  0  4.031966  0  0  0.106325  0.194651  0  3.996681  0
C  C83  1  0.79262934  0.73801555  0.57401776  1  0  0.210147  0  3.761858  0  0  0.199994  0  4.011054  0  0  0.208197  0  4.032049  0  0  0.106167  0.194586  0  3.996778  0
C  C84  1  0.26536090  0.32016854  0.53138805  1  0  -0.145573  0  3.720327  0  0  -0.167506  0  3.978523  0  0  -0.172568  0  3.997591  0  0  -0.086327  -0.164236  0  3.96566  0
C  C85  1  0.73464257  0.67984014  0.46862010  1  0  -0.145434  0  3.720244  0  0  -0.167405  0  3.978471  0  0  -0.172464  0  3.997529  0  0  -0.086273  -0.164133  0  3.965608  0
C  C86  1  0.43676935  0.36480762  0.56952762  1  0  -0.043158  0  3.724046  0  0  -0.066909  0  3.972107  0  0  -0.064865  0  3.992326  0  0  -0.075715  -0.067989  0  3.958323  0
C  C87  1  0.56323354  0.63520506  0.43047902  1  0  -0.043483  0  3.724354  0  0  -0.067197  0  3.972445  0  0  -0.065149  0  3.99266  0  0  -0.075801  -0.068275  0  3.958657  0
C  C88  1  0.55045400  0.35358808  0.50293580  1  0  -0.087126  0  3.782779  0  0  -0.062862  0  4.009672  0  0  -0.073276  0  4.035293  0  0  -0.019454  -0.056122  0  3.992469  0
C  C89  1  0.44954740  0.64641864  0.49706960  1  0  -0.086808  0  3.782831  0  0  -0.062531  0  4.009707  0  0  -0.07295  0  4.035332  0  0  -0.019378  -0.055796  0  3.992501  0
C  C90  1  0.49107305  0.29691928  0.39752740  1  0  -0.033211  0  3.724096  0  0  -0.05672  0  3.968958  0  0  -0.054849  0  3.989711  0  0  -0.071593  -0.057669  0  3.95483  0
C  C91  1  0.50892319  0.70307854  0.60247847  1  0  -0.0333  0  3.724084  0  0  -0.056775  0  3.96897  0  0  -0.054898  0  3.989723  0  0  -0.071652  -0.057722  0  3.954836  0
C  C92  1  0.32033551  0.25008975  0.35902247  1  0  -0.160871  0  3.723495  0  0  -0.180688  0  3.977014  0  0  -0.187249  0  3.998614  0  0  -0.089355  -0.176443  0  3.962528  0
C  C93  1  0.67965811  0.74991011  0.64098602  1  0  -0.160798  0  3.723547  0  0  -0.180574  0  3.977081  0  0  -0.187137  0  3.998681  0  0  -0.089228  -0.176326  0  3.962596  0
C  C94  1  0.73380385  0.39865293  0.53858057  1  0  0.629926  0  3.823946  0  0  0.58528  0  4.12269  0  0  0.61748  0  4.114495  0  0  0.226313  0.563338  0  4.127856  0
C  C95  1  0.26620849  0.60134665  0.46141676  1  0  0.629825  0  3.823695  0  0  0.585166  0  4.122474  0  0  0.617369  0  4.114281  0  0  0.226346  0.563226  0  4.127635  0
N  N96  1  0.81014329  0.15381114  0.26409801  1  0  -0.419315  0  3.152741  0  0  -0.361083  0  3.435812  0  0  -0.381704  0  3.450278  0  0  -0.346846  -0.346972  0  3.425519  0
N  N97  1  0.18985351  0.84618269  0.73590525  1  0  -0.419281  0  3.152684  0  0  -0.361019  0  3.435761  0  0  -0.381646  0  3.450235  0  0  -0.346869  -0.346908  0  3.42547  0
N  N98  1  0.03427519  0.21296146  0.38352793  1  0  -0.15338  0  3.539052  0  0  -0.069431  0  3.755724  0  0  -0.086706  0  3.777988  0  0  -0.223502  -0.057859  0  3.740313  0
N  N99  1  0.96572061  0.78703537  0.61647693  1  0  -0.153202  0  3.539234  0  0  -0.069532  0  3.756097  0  0  -0.086807  0  3.778358  0  0  -0.223502  -0.057959  0  3.740685  0
N  N100  1  0.54548589  0.69503466  0.12134236  1  0  -0.151144  0  3.535102  0  0  -0.069065  0  3.752335  0  0  -0.086546  0  3.775761  0  0  -0.220763  -0.057433  0  3.736148  0
N  N101  1  0.45451652  0.30497704  0.87865640  1  0  -0.151247  0  3.534888  0  0  -0.069214  0  3.752111  0  0  -0.086694  0  3.775532  0  0  -0.22083  -0.057582  0  3.735926  0
N  N102  1  0.68049144  0.86595089  0.08835810  1  0  -0.412113  0  3.223781  0  0  -0.345199  0  3.502056  0  0  -0.367071  0  3.518926  0  0  -0.349117  -0.330232  0  3.49007  0
N  N103  1  0.31951401  0.13405178  0.91163723  1  0  -0.412008  0  3.22369  0  0  -0.345095  0  3.501986  0  0  -0.366965  0  3.518855  0  0  -0.349114  -0.330128  0  3.489999  0
Cl  Cl104  1  0.40437531  0.05922215  0.11551438  1  0  -0.564449  0  0.93624  0  0  -0.498258  0  1.211356  0  0  -0.516251  0  1.187832  0  0  -0.293445  -0.485433  0  1.227353  0
Cl  Cl105  1  0.59562960  0.94078452  0.88448836  1  0  -0.564468  0  0.936324  0  0  -0.498261  0  1.211425  0  0  -0.516254  0  1.187905  0  0  -0.293434  -0.485434  0  1.22742  0
O  O106  1  0.98506468  0.16383086  0.08076822  1  0  -0.614709  0  1.952542  0  0  -0.553242  0  2.191198  0  0  -0.581716  0  2.18282  0  0  -0.331302  -0.533341  0  2.196122  0
O  O107  1  0.01494034  0.83617083  0.91923227  1  0  -0.614808  0  1.952477  0  0  -0.553297  0  2.191059  0  0  -0.581769  0  2.182677  0  0  -0.331313  -0.533396  0  2.195985  0
O  O108  1  0.82317767  0.28632226  0.08128531  1  0  -0.647498  0  1.909638  0  0  -0.591346  0  2.139666  0  0  -0.618253  0  2.129888  0  0  -0.348072  -0.572418  0  2.145516  0
O  O109  1  0.17683104  0.71368236  0.91871760  1  0  -0.64752  0  1.909614  0  0  -0.591398  0  2.139664  0  0  -0.618302  0  2.129874  0  0  -0.348079  -0.572477  0  2.145533  0
O  O110  1  0.78011075  0.44409902  0.64162826  1  0  -0.549952  0  2.047057  0  0  -0.506968  0  2.255247  0  0  -0.526769  0  2.242367  0  0  -0.338861  -0.493034  0  2.263796  0
O  O111  1  0.21988840  0.55590276  0.35836727  1  0  -0.550025  0  2.046841  0  0  -0.506988  0  2.255099  0  0  -0.526785  0  2.242213  0  0  -0.33893  -0.493057  0  2.263647  0
O  O112  1  0.83681697  0.39606079  0.48315908  1  0  -0.521347  0  1.968498  0  0  -0.493847  0  2.192725  0  0  -0.512364  0  2.18605  0  0  -0.282196  -0.481213  0  2.197069  0
O  O113  1  0.16318096  0.60392504  0.51684101  1  0  -0.52143  0  1.968154  0  0  -0.493918  0  2.192386  0  0  -0.512436  0  2.185708  0  0  -0.28229  -0.481281  0  2.196723  0
