# generated using pymatgen
data_AgH14C16ClO4
_symmetry_space_group_name_H-M   'P 1'
_cell_length_a   5.38523353
_cell_length_b   13.25893636
_cell_length_c   20.39948729
_cell_angle_alpha   89.99946130
_cell_angle_beta   90.00058856
_cell_angle_gamma   89.99928313
_symmetry_Int_Tables_number   1
_chemical_formula_structural   AgH14C16ClO4
_chemical_formula_sum   'Ag4 H56 C64 Cl4 O16'
_cell_volume   1456.57375106
_cell_formula_units_Z   4
loop_
 _symmetry_equiv_pos_site_id
 _symmetry_equiv_pos_as_xyz
  1  'x, y, z'
loop_
 _atom_site_type_symbol
 _atom_site_label
 _atom_site_symmetry_multiplicity
 _atom_site_fract_x
 _atom_site_fract_y
 _atom_site_fract_z
 _atom_site_occupancy
 _atom_site_hle17_bader_spin_density
 _atom_site_hle17_ddec_charge
 _atom_site_hle17_ddec_spin_density
 _atom_site_hle17_ddec_sum_bond_order
 _atom_site_hle17_magmom
 _atom_site_hse06_10hf_bader_charge
 _atom_site_hse06_10hf_bader_spin_density
 _atom_site_hse06_10hf_ddec_charge
 _atom_site_hse06_10hf_ddec_spin_density
 _atom_site_hse06_10hf_ddec_sum_bond_order
 _atom_site_hse06_10hf_magmom
 _atom_site_hse06_bader_spin_density
 _atom_site_hse06_ddec_charge
 _atom_site_hse06_ddec_spin_density
 _atom_site_hse06_ddec_sum_bond_order
 _atom_site_hse06_magmom
 _atom_site_pbe_bader_spin_density
 _atom_site_pbe_cm5_charge
 _atom_site_pbe_ddec_charge
 _atom_site_pbe_ddec_spin_density
 _atom_site_pbe_ddec_sum_bond_order
 _atom_site_pbe_magmom
Ag  Ag0  1  0.72100370  0.23549182  0.25000031  1  0  0.62045  0  1.300798  0  0.651994  0  0.553022  0  1.678658  0  0  0.564465  0  1.648223  0  0  0.498224  0.54493  0  1.699855  0
Ag  Ag1  1  0.22099655  0.26451263  0.74999538  1  0  0.620438  0  1.300787  0  0.651957  0  0.553043  0  1.678663  0  0  0.564481  0  1.64823  0  0  0.498252  0.544955  0  1.699861  0
Ag  Ag2  1  0.77899877  0.73549333  0.25000093  1  0  0.620404  0  1.300799  0  0.651991  0  0.552997  0  1.678674  0  0  0.564436  0  1.648241  0  0  0.49824  0.54491  0  1.69987  0
Ag  Ag3  1  0.27899161  0.76450886  0.75000042  1  0  0.620415  0  1.300785  0  0.65195  0  0.552974  0  1.678662  0  0  0.564415  0  1.648228  0  0  0.498219  0.544885  0  1.69986  0
H  H4  1  0.05240963  0.15860288  0.12470374  1  0  0.10176  0  0.957557  0  0.089198  0  0.110745  0  1.02193  0  0  0.113576  0  1.020738  0  0  0.100498  0.108615  0  1.022993  0
H  H5  1  0.55241050  0.34138623  0.62470526  1  0  0.101682  0  0.957682  0  0.089437  0  0.110688  0  1.02205  0  0  0.113514  0  1.020858  0  0  0.10052  0.108598  0  1.023066  0
H  H6  1  0.05239360  0.15861981  0.37529533  1  0  0.101662  0  0.957662  0  0.089532  0  0.110656  0  1.022052  0  0  0.113489  0  1.020857  0  0  0.100508  0.108568  0  1.023067  0
H  H7  1  0.44761199  0.65860658  0.12470486  1  0  0.101725  0  0.957629  0  0.089347  0  0.110709  0  1.022024  0  0  0.113539  0  1.02083  0  0  0.100485  0.108609  0  1.023052  0
H  H8  1  0.94759125  0.84137969  0.87529503  1  0  0.101634  0  0.957682  0  0.089458  0  0.110634  0  1.022061  0  0  0.113465  0  1.020872  0  0  0.100511  0.108546  0  1.023077  0
H  H9  1  0.44760709  0.65861521  0.37529253  1  0  0.101588  0  0.957705  0  0.089564  0  0.110584  0  1.022098  0  0  0.113414  0  1.020912  0  0  0.10046  0.108496  0  1.023112  0
H  H10  1  0.94759615  0.84138615  0.62470736  1  0  0.101693  0  0.957799  0  0.089372  0  0.110681  0  1.022203  0  0  0.113507  0  1.021013  0  0  0.100489  0.108592  0  1.02322  0
H  H11  1  0.55239818  0.34137147  0.87529097  1  0  0.101549  0  0.957889  0  0.089585  0  0.110538  0  1.022289  0  0  0.113374  0  1.021094  0  0  0.100444  0.108451  0  1.023303  0
H  H12  1  0.07821555  0.32532617  0.18030372  1  0  0.106527  0  0.960496  0  0.115469  0  0.115925  0  1.021829  0  0  0.118522  0  1.020707  0  0  0.102115  0.114008  0  1.022765  0
H  H13  1  0.57820504  0.17465743  0.68030325  1  0  0.106383  0  0.960542  0  0.115482  0  0.115814  0  1.021867  0  0  0.11841  0  1.020748  0  0  0.102089  0.113899  0  1.0228  0
H  H14  1  0.07818086  0.32534848  0.31969840  1  0  0.106479  0  0.960383  0  0.115739  0  0.115915  0  1.021689  0  0  0.118511  0  1.020568  0  0  0.102101  0.113996  0  1.022625  0
H  H15  1  0.42179712  0.82533528  0.18029839  1  0  0.106465  0  0.960392  0  0.115627  0  0.115891  0  1.02171  0  0  0.118486  0  1.02059  0  0  0.102089  0.113973  0  1.022651  0
H  H16  1  0.92180762  0.67465263  0.81969750  1  0  0.106473  0  0.960507  0  0.115549  0  0.115902  0  1.021826  0  0  0.118498  0  1.020706  0  0  0.102118  0.113986  0  1.02276  0
H  H17  1  0.42180142  0.82534476  0.31969405  1  0  0.106446  0  0.960542  0  0.115628  0  0.115898  0  1.021832  0  0  0.118495  0  1.020712  0  0  0.102128  0.113984  0  1.022762  0
H  H18  1  0.92180146  0.67465823  0.68030429  1  0  0.106414  0  0.960522  0  0.115526  0  0.11583  0  1.02186  0  0  0.118425  0  1.020741  0  0  0.102104  0.113912  0  1.022795  0
H  H19  1  0.57816292  0.17464504  0.81969057  1  0  0.106613  0  0.960203  0  0.115923  0  0.116022  0  1.021521  0  0  0.11862  0  1.020398  0  0  0.102132  0.114104  0  1.022459  0
H  H20  1  0.72365254  0.44659682  0.17311494  1  0  0.111657  0  0.963284  0  0.133782  0  0.120039  0  1.026199  0  0  0.123078  0  1.024671  0  0  0.101029  0.117795  0  1.027407  0
H  H21  1  0.22364284  0.05339297  0.67310876  1  0  0.111751  0  0.963075  0  0.133825  0  0.120092  0  1.026029  0  0  0.123132  0  1.024499  0  0  0.101072  0.117871  0  1.027211  0
H  H22  1  0.72361809  0.44661525  0.32689282  1  0  0.111859  0  0.96292  0  0.133806  0  0.120064  0  1.026026  0  0  0.1231  0  1.024504  0  0  0.10108  0.117843  0  1.027207  0
H  H23  1  0.77635535  0.94660211  0.17310673  1  0  0.111598  0  0.963359  0  0.133783  0  0.120012  0  1.026211  0  0  0.123053  0  1.024675  0  0  0.100991  0.11776  0  1.027429  0
H  H24  1  0.27637806  0.55338727  0.82689314  1  0  0.111873  0  0.962911  0  0.133811  0  0.120096  0  1.025998  0  0  0.123134  0  1.024471  0  0  0.101081  0.11786  0  1.027197  0
H  H25  1  0.77634690  0.94661752  0.32689245  1  0  0.111837  0  0.962847  0  0.133707  0  0.120006  0  1.026074  0  0  0.123038  0  1.024558  0  0  0.101057  0.117787  0  1.027254  0
H  H26  1  0.27637165  0.55339373  0.67311183  1  0  0.111759  0  0.963069  0  0.133839  0  0.120092  0  1.026042  0  0  0.12313  0  1.024515  0  0  0.101066  0.117854  0  1.027243  0
H  H27  1  0.22358611  0.05338424  0.82688763  1  0  0.111958  0  0.962733  0  0.133756  0  0.120124  0  1.025889  0  0  0.12316  0  1.024368  0  0  0.101102  0.117905  0  1.027071  0
H  H28  1  0.36210216  0.40533024  0.10124163  1  0  0.096653  0  0.95987  0  0.104405  0  0.107617  0  1.020549  0  0  0.110007  0  1.020513  0  0  0.10028  0.105887  0  1.020678  0
H  H29  1  0.86209791  0.09467280  0.60123720  1  0  0.096719  0  0.959777  0  0.104115  0  0.107685  0  1.020448  0  0  0.110074  0  1.020412  0  0  0.100296  0.105919  0  1.020622  0
H  H30  1  0.36207766  0.40534379  0.39876529  1  0  0.096625  0  0.959705  0  0.104225  0  0.107587  0  1.020415  0  0  0.109974  0  1.020385  0  0  0.100253  0.105858  0  1.020539  0
H  H31  1  0.13790890  0.90532867  0.10123938  1  0  0.096716  0  0.959822  0  0.104032  0  0.107643  0  1.02053  0  0  0.110031  0  1.020496  0  0  0.100308  0.105908  0  1.020667  0
H  H32  1  0.63792101  0.59466516  0.89876645  1  0  0.09671  0  0.9597  0  0.103999  0  0.107638  0  1.020432  0  0  0.110026  0  1.0204  0  0  0.100275  0.105881  0  1.020589  0
H  H33  1  0.13789740  0.90533995  0.39876304  1  0  0.096634  0  0.959885  0  0.104202  0  0.107606  0  1.020572  0  0  0.109994  0  1.020538  0  0  0.100228  0.105887  0  1.020688  0
H  H34  1  0.63791580  0.59466896  0.60123936  1  0  0.096669  0  0.959712  0  0.104031  0  0.107579  0  1.020467  0  0  0.109968  0  1.020434  0  0  0.100265  0.105869  0  1.020572  0
H  H35  1  0.86205856  0.09466749  0.89876576  1  0  0.096708  0  0.959778  0  0.103931  0  0.107573  0  1.020587  0  0  0.109959  0  1.02056  0  0  0.100267  0.105835  0  1.020721  0
H  H36  1  0.34827696  0.24506525  0.04059839  1  0  0.086696  0  0.980482  0  0.080617  0  0.097406  0  1.044356  0  0  0.099291  0  1.045248  0  0  0.096959  0.096021  0  1.043863  0
H  H37  1  0.84827873  0.25494181  0.54059697  1  0  0.086662  0  0.980491  0  0.080545  0  0.097366  0  1.044378  0  0  0.099276  0  1.045245  0  0  0.096949  0.095953  0  1.04391  0
H  H38  1  0.34825644  0.24507183  0.45940401  1  0  0.086614  0  0.980492  0  0.080551  0  0.097293  0  1.044421  0  0  0.099178  0  1.045315  0  0  0.096928  0.095934  0  1.043898  0
H  H39  1  0.15173524  0.74505983  0.04060304  1  0  0.086693  0  0.980501  0  0.080616  0  0.097436  0  1.044341  0  0  0.099322  0  1.045235  0  0  0.096934  0.096022  0  1.043878  0
H  H40  1  0.65173693  0.75493543  0.95940185  1  0  0.086608  0  0.980548  0  0.080495  0  0.097345  0  1.044403  0  0  0.099231  0  1.045294  0  0  0.096916  0.09594  0  1.04393  0
H  H41  1  0.15174258  0.74506490  0.45939641  1  0  0.086666  0  0.980472  0  0.080683  0  0.097383  0  1.044349  0  0  0.099268  0  1.045241  0  0  0.096961  0.096005  0  1.043849  0
H  H42  1  0.65171845  0.75493790  0.54059721  1  0  0.086651  0  0.980525  0  0.080589  0  0.097374  0  1.044385  0  0  0.099271  0  1.045264  0  0  0.096956  0.095959  0  1.043923  0
H  H43  1  0.84825822  0.25494085  0.95939916  1  0  0.086595  0  0.980556  0  0.080557  0  0.097326  0  1.044428  0  0  0.099215  0  1.045315  0  0  0.096914  0.095912  0  1.043964  0
H  H44  1  0.85959523  0.04507728  0.05236178  1  0  0.084375  0  0.958671  0  0.04264  0  0.09786  0  1.020878  0  0  0.100004  0  1.020785  0  0  0.0985  0.096332  0  1.020984  0
H  H45  1  0.35962284  0.45491974  0.55237096  1  0  0.084239  0  0.958713  0  0.042636  0  0.097814  0  1.020835  0  0  0.099958  0  1.020719  0  0  0.098518  0.096282  0  1.020947  0
H  H46  1  0.85960030  0.04508781  0.44763348  1  0  0.084313  0  0.958582  0  0.042895  0  0.097812  0  1.020787  0  0  0.099961  0  1.020685  0  0  0.09845  0.096278  0  1.0209  0
H  H47  1  0.64043611  0.54507116  0.05236934  1  0  0.084429  0  0.958559  0  0.04293  0  0.098007  0  1.020669  0  0  0.10015  0  1.020573  0  0  0.098552  0.096472  0  1.020782  0
H  H48  1  0.14037037  0.95490907  0.94763012  1  0  0.084297  0  0.958778  0  0.042664  0  0.097826  0  1.020925  0  0  0.09997  0  1.02081  0  0  0.098523  0.096294  0  1.021044  0
H  H49  1  0.64041333  0.54508773  0.44763369  1  0  0.084359  0  0.958576  0  0.042977  0  0.097889  0  1.020728  0  0  0.10004  0  1.020623  0  0  0.09847  0.096354  0  1.020843  0
H  H50  1  0.14037644  0.95491966  0.55236676  1  0  0.084301  0  0.958712  0  0.042602  0  0.097809  0  1.020908  0  0  0.099948  0  1.020809  0  0  0.098513  0.096283  0  1.02101  0
H  H51  1  0.35960934  0.45490840  0.94762452  1  0  0.084293  0  0.958761  0  0.042819  0  0.097829  0  1.020916  0  0  0.099975  0  1.020804  0  0  0.098496  0.096291  0  1.021045  0
H  H52  1  0.32283335  0.09143558  0.00922055  1  0  0.081564  0  0.959308  0  0.062212  0  0.096079  0  1.01914  0  0  0.097874  0  1.019496  0  0  0.09828  0.09476  0  1.019021  0
H  H53  1  0.82286736  0.40858114  0.50921825  1  0  0.08167  0  0.959294  0  0.062498  0  0.096153  0  1.019128  0  0  0.097945  0  1.01949  0  0  0.098345  0.094832  0  1.019013  0
H  H54  1  0.32284736  0.09144092  0.49078510  1  0  0.081542  0  0.959306  0  0.062154  0  0.09615  0  1.019026  0  0  0.097944  0  1.019383  0  0  0.098254  0.094816  0  1.018934  0
H  H55  1  0.17718451  0.59143080  0.00921547  1  0  0.081567  0  0.959236  0  0.062053  0  0.096072  0  1.019078  0  0  0.097866  0  1.019437  0  0  0.098287  0.094756  0  1.01895  0
H  H56  1  0.67712854  0.90857113  0.99077773  1  0  0.081671  0  0.959287  0  0.06247  0  0.096161  0  1.019126  0  0  0.097953  0  1.019485  0  0  0.098315  0.09484  0  1.019014  0
H  H57  1  0.17716324  0.59144217  0.49078395  1  0  0.081537  0  0.959371  0  0.062151  0  0.096096  0  1.019149  0  0  0.097891  0  1.019504  0  0  0.09826  0.094776  0  1.019033  0
H  H58  1  0.67713495  0.90857182  0.50922445  1  0  0.0817  0  0.959332  0  0.062379  0  0.096164  0  1.019195  0  0  0.097957  0  1.019555  0  0  0.098333  0.094847  0  1.019071  0
H  H59  1  0.82287023  0.40857592  0.99078280  1  0  0.081648  0  0.959244  0  0.062443  0  0.096146  0  1.019085  0  0  0.097938  0  1.019444  0  0  0.09833  0.094826  0  1.01897  0
C  C60  1  0.89958830  0.21215115  0.11997777  1  0  -0.118533  0  3.703014  0  -0.088654  0  -0.134958  0  3.946835  0  0  -0.137199  0  3.966104  0  0  -0.095138  -0.13338  0  3.933837  0
C  C61  1  0.39958411  0.28784011  0.61997908  1  0  -0.118579  0  3.70304  0  -0.088448  0  -0.135026  0  3.946943  0  0  -0.137264  0  3.966215  0  0  -0.095218  -0.133473  0  3.933922  0
C  C62  1  0.89956500  0.21216951  0.38002107  1  0  -0.118523  0  3.703386  0  -0.088796  0  -0.134874  0  3.947275  0  0  -0.137116  0  3.966549  0  0  -0.095187  -0.133324  0  3.934254  0
C  C63  1  0.60042151  0.71215428  0.11998129  1  0  -0.118443  0  3.702696  0  -0.089253  0  -0.134881  0  3.946562  0  0  -0.137119  0  3.96583  0  0  -0.095118  -0.133322  0  3.933546  0
C  C64  1  0.10042744  0.78783369  0.88002051  1  0  -0.118487  0  3.703196  0  -0.08859  0  -0.134918  0  3.947063  0  0  -0.137162  0  3.96634  0  0  -0.095166  -0.133366  0  3.93404  0
C  C65  1  0.60042978  0.71216208  0.38001577  1  0  -0.11837  0  3.702862  0  -0.089141  0  -0.134783  0  3.946744  0  0  -0.137026  0  3.966019  0  0  -0.095113  -0.133233  0  3.933723  0
C  C66  1  0.10041546  0.78784022  0.61997966  1  0  -0.118638  0  3.703209  0  -0.08844  0  -0.135129  0  3.947073  0  0  -0.137367  0  3.966343  0  0  -0.095203  -0.133579  0  3.934051  0
C  C67  1  0.39956081  0.28783132  0.88001503  1  0  -0.118242  0  3.703138  0  -0.089008  0  -0.134652  0  3.946974  0  0  -0.136895  0  3.966249  0  0  -0.095053  -0.133105  0  3.933956  0
C  C68  1  0.90990266  0.30450895  0.15383131  1  0  -0.123194  0  3.850714  0  -0.162052  0  -0.126963  0  4.100431  0  0  -0.129087  0  4.119109  0  0  -0.12704  -0.125456  0  4.087691  0
C  C69  1  0.40988842  0.19547872  0.65382972  1  0  -0.123122  0  3.850658  0  -0.162166  0  -0.126937  0  4.100413  0  0  -0.129057  0  4.11908  0  0  -0.12711  -0.125431  0  4.087689  0
C  C70  1  0.90986889  0.30452104  0.34616899  1  0  -0.123282  0  3.850753  0  -0.162144  0  -0.127094  0  4.100454  0  0  -0.129217  0  4.119125  0  0  -0.127075  -0.125585  0  4.087727  0
C  C71  1  0.59012766  0.80451515  0.15382892  1  0  -0.123281  0  3.850902  0  -0.162392  0  -0.127088  0  4.100646  0  0  -0.129208  0  4.119315  0  0  -0.127075  -0.12558  0  4.087913  0
C  C72  1  0.09011680  0.69547665  0.84617040  1  0  -0.123226  0  3.850641  0  -0.162072  0  -0.127041  0  4.10037  0  0  -0.129163  0  4.119042  0  0  -0.127079  -0.125534  0  4.087642  0
C  C73  1  0.59012360  0.80452347  0.34616758  1  0  -0.123298  0  3.850916  0  -0.162196  0  -0.127119  0  4.10062  0  0  -0.12924  0  4.119285  0  0  -0.127135  -0.125612  0  4.087899  0
C  C74  1  0.09011343  0.69548341  0.65383125  1  0  -0.123012  0  3.850439  0  -0.16219  0  -0.12679  0  4.100155  0  0  -0.128911  0  4.118826  0  0  -0.127039  -0.125283  0  4.087425  0
C  C75  1  0.40985094  0.19546894  0.84616446  1  0  -0.123462  0  3.850636  0  -0.162802  0  -0.127243  0  4.100355  0  0  -0.129366  0  4.119021  0  0  -0.127036  -0.125736  0  4.087637  0
C  C76  1  0.71358498  0.37433483  0.14786057  1  0  -0.08197  0  3.736903  0  -0.077306  0  -0.095149  0  3.987946  0  0  -0.095938  0  4.006487  0  0  -0.098148  -0.094556  0  3.9754  0
C  C77  1  0.21357854  0.12565539  0.64785644  1  0  -0.081954  0  3.736959  0  -0.077402  0  -0.095089  0  3.988014  0  0  -0.095878  0  4.006555  0  0  -0.098099  -0.094513  0  3.975446  0
C  C78  1  0.71355699  0.37435362  0.35214512  1  0  -0.082055  0  3.736824  0  -0.078108  0  -0.095085  0  3.987881  0  0  -0.09587  0  4.006418  0  0  -0.098151  -0.094512  0  3.975322  0
C  C79  1  0.78642062  0.87433932  0.14785827  1  0  -0.081737  0  3.737216  0  -0.077084  0  -0.094909  0  3.988195  0  0  -0.095698  0  4.006739  0  0  -0.098011  -0.094309  0  3.975651  0
C  C80  1  0.28644562  0.62565001  0.85214506  1  0  -0.082066  0  3.736863  0  -0.078157  0  -0.09511  0  3.987908  0  0  -0.095896  0  4.006447  0  0  -0.098163  -0.094526  0  3.975352  0
C  C81  1  0.78641120  0.87435057  0.35214135  1  0  -0.081854  0  3.73657  0  -0.077402  0  -0.094892  0  3.987605  0  0  -0.095677  0  4.006144  0  0  -0.098034  -0.09432  0  3.975054  0
C  C82  1  0.28643276  0.62565762  0.64785806  1  0  -0.081928  0  3.736772  0  -0.077428  0  -0.09506  0  3.987784  0  0  -0.095849  0  4.006329  0  0  -0.098072  -0.094474  0  3.975243  0
C  C83  1  0.21353384  0.12564929  0.85214049  1  0  -0.08212  0  3.736733  0  -0.077658  0  -0.095142  0  3.987816  0  0  -0.095925  0  4.006354  0  0  -0.098276  -0.094564  0  3.975241  0
C  C84  1  0.51295451  0.35122595  0.10674656  1  0  -0.073605  0  3.776498  0  -0.081735  0  -0.088273  0  4.028928  0  0  -0.090878  0  4.050633  0  0  -0.095308  -0.086492  0  4.014238  0
C  C85  1  0.01295477  0.14877419  0.60674229  1  0  -0.073645  0  3.776542  0  -0.081495  0  -0.088306  0  4.028922  0  0  -0.090912  0  4.050636  0  0  -0.095303  -0.086498  0  4.014239  0
C  C86  1  0.51294282  0.35123580  0.39325867  1  0  -0.073588  0  3.776917  0  -0.081593  0  -0.088242  0  4.029214  0  0  -0.09085  0  4.050929  0  0  -0.095283  -0.086457  0  4.014534  0
C  C87  1  0.98705967  0.85122869  0.10674437  1  0  -0.073724  0  3.776527  0  -0.081386  0  -0.088353  0  4.02891  0  0  -0.090958  0  4.050619  0  0  -0.095367  -0.086567  0  4.014211  0
C  C88  1  0.48706123  0.64876719  0.89326054  1  0  -0.073701  0  3.776744  0  -0.081111  0  -0.088325  0  4.029066  0  0  -0.090932  0  4.050778  0  0  -0.095323  -0.086516  0  4.014378  0
C  C89  1  0.98705726  0.85123704  0.39325745  1  0  -0.073787  0  3.776525  0  -0.081677  0  -0.088448  0  4.028857  0  0  -0.091053  0  4.050563  0  0  -0.095357  -0.086673  0  4.014172  0
C  C90  1  0.48705249  0.64877393  0.60674353  1  0  -0.073678  0  3.776576  0  -0.081388  0  -0.088307  0  4.028994  0  0  -0.090914  0  4.050708  0  0  -0.095314  -0.086538  0  4.01429  0
C  C91  1  0.01291522  0.14876897  0.89325930  1  0  -0.073773  0  3.776639  0  -0.081335  0  -0.088344  0  4.028939  0  0  -0.090954  0  4.050649  0  0  -0.095309  -0.086548  0  4.01425  0
C  C92  1  0.50492787  0.26024834  0.07290380  1  0  -0.103528  0  3.699557  0  -0.057869  0  -0.121678  0  3.942448  0  0  -0.123962  0  3.963968  0  0  -0.087532  -0.120043  0  3.927891  0
C  C93  1  0.00491964  0.23975462  0.57290098  1  0  -0.10351  0  3.699421  0  -0.05767  0  -0.121651  0  3.942342  0  0  -0.123957  0  3.963852  0  0  -0.087526  -0.119989  0  3.927788  0
C  C94  1  0.50490065  0.26026069  0.42709653  1  0  -0.103315  0  3.699278  0  -0.057629  0  -0.121393  0  3.942295  0  0  -0.123673  0  3.963812  0  0  -0.08739  -0.119777  0  3.927728  0
C  C95  1  0.99509732  0.76024502  0.07290850  1  0  -0.103537  0  3.69961  0  -0.057893  0  -0.121709  0  3.942478  0  0  -0.123998  0  3.964001  0  0  -0.087526  -0.120047  0  3.927936  0
C  C96  1  0.49509344  0.73974781  0.92709742  1  0  -0.103413  0  3.699444  0  -0.057553  0  -0.121585  0  3.942346  0  0  -0.123867  0  3.963863  0  0  -0.087447  -0.119932  0  3.927793  0
C  C97  1  0.99509053  0.76025134  0.42709240  1  0  -0.103295  0  3.699405  0  -0.058435  0  -0.121443  0  3.942358  0  0  -0.123726  0  3.963875  0  0  -0.087425  -0.119811  0  3.927805  0
C  C98  1  0.49507795  0.73974904  0.57290077  1  0  -0.10339  0  3.69953  0  -0.057801  0  -0.121572  0  3.942383  0  0  -0.123866  0  3.963898  0  0  -0.087495  -0.119915  0  3.927851  0
C  C99  1  0.00489985  0.23975038  0.92709419  1  0  -0.103265  0  3.699406  0  -0.057475  0  -0.121418  0  3.942289  0  0  -0.123701  0  3.963803  0  0  -0.087402  -0.119759  0  3.927747  0
C  C100  1  0.69561911  0.18783553  0.07968437  1  0  0.08362  0  3.831335  0  0.05918  0  0.10132  0  4.062534  0  0  0.102002  0  4.086531  0  0  -0.01516  0.100807  0  4.046226  0
C  C101  1  0.19562343  0.31216338  0.57968505  1  0  0.083715  0  3.831021  0  0.058818  0  0.101378  0  4.06229  0  0  0.102059  0  4.08629  0  0  -0.015119  0.10086  0  4.045995  0
C  C102  1  0.69560651  0.18785100  0.42031597  1  0  0.083776  0  3.830925  0  0.059121  0  0.101211  0  4.062482  0  0  0.10189  0  4.086484  0  0  -0.015198  0.100691  0  4.046191  0
C  C103  1  0.80441234  0.68783615  0.07968653  1  0  0.083739  0  3.831041  0  0.059576  0  0.10142  0  4.062313  0  0  0.102102  0  4.086307  0  0  -0.015092  0.100904  0  4.046008  0
C  C104  1  0.30438178  0.81215610  0.92031685  1  0  0.083832  0  3.831225  0  0.058992  0  0.101477  0  4.062481  0  0  0.102158  0  4.086478  0  0  -0.015151  0.100961  0  4.046183  0
C  C105  1  0.80439974  0.68784635  0.42031323  1  0  0.083699  0  3.830995  0  0.059832  0  0.101297  0  4.062344  0  0  0.101978  0  4.08634  0  0  -0.015176  0.10078  0  4.04605  0
C  C106  1  0.30437581  0.81216024  0.57968427  1  0  0.083595  0  3.831279  0  0.058823  0  0.101369  0  4.062376  0  0  0.10205  0  4.086374  0  0  -0.015184  0.100854  0  4.046078  0
C  C107  1  0.19560525  0.31215548  0.92031518  1  0  0.083642  0  3.831062  0  0.059259  0  0.10126  0  4.062377  0  0  0.101939  0  4.086375  0  0  -0.015214  0.100743  0  4.046079  0
C  C108  1  0.69047455  0.09020729  0.04750736  1  0  -0.111546  0  3.732099  0  -0.145624  0  -0.130055  0  3.980992  0  0  -0.133191  0  4.003305  0  0  -0.089294  -0.12782  0  3.965703  0
C  C109  1  0.19049061  0.40979666  0.54751140  1  0  -0.111444  0  3.731878  0  -0.148091  0  -0.129998  0  3.980781  0  0  -0.133122  0  4.003086  0  0  -0.089312  -0.127768  0  3.965499  0
C  C110  1  0.69047422  0.09021850  0.45249058  1  0  -0.111506  0  3.731574  0  -0.145709  0  -0.129925  0  3.980544  0  0  -0.133065  0  4.002865  0  0  -0.089226  -0.127702  0  3.965285  0
C  C111  1  0.80955703  0.59020638  0.04751199  1  0  -0.111743  0  3.732252  0  -0.145903  0  -0.130324  0  3.981158  0  0  -0.133459  0  4.003468  0  0  -0.089371  -0.128099  0  3.965896  0
C  C112  1  0.30950405  0.90978735  0.95248749  1  0  -0.111403  0  3.731915  0  -0.145387  0  -0.129888  0  3.980778  0  0  -0.133012  0  4.003083  0  0  -0.089185  -0.127669  0  3.965513  0
C  C113  1  0.80953628  0.59021910  0.45248982  1  0  -0.111557  0  3.732045  0  -0.145985  0  -0.130035  0  3.980938  0  0  -0.133178  0  4.00326  0  0  -0.089236  -0.127813  0  3.965676  0
C  C114  1  0.30950438  0.90979425  0.54751162  1  0  -0.111318  0  3.731712  0  -0.147898  0  -0.129831  0  3.980546  0  0  -0.132956  0  4.002849  0  0  -0.08921  -0.127602  0  3.965264  0
C  C115  1  0.19047728  0.40978600  0.95248678  1  0  -0.111424  0  3.732284  0  -0.145555  0  -0.129924  0  3.981162  0  0  -0.133053  0  4.003473  0  0  -0.089212  -0.127701  0  3.96589  0
C  C116  1  0.49619522  0.04913686  0.01445439  1  0  -0.060794  0  3.79041  0  0.00371  0  -0.074852  0  4.038892  0  0  -0.076371  0  4.061653  0  0  -0.091917  -0.073749  0  4.023354  0
C  C117  1  0.99623530  0.45087366  0.51445774  1  0  -0.06106  0  3.790588  0  0.00624  0  -0.075101  0  4.039141  0  0  -0.076624  0  4.061903  0  0  -0.092049  -0.073989  0  4.023579  0
C  C118  1  0.49620905  0.04914227  0.48554810  1  0  -0.06095  0  3.790269  0  0.003881  0  -0.075061  0  4.038729  0  0  -0.076582  0  4.061492  0  0  -0.091955  -0.073953  0  4.023187  0
C  C119  1  0.00381118  0.54913820  0.01445566  1  0  -0.060788  0  3.790549  0  0.003911  0  -0.074846  0  4.039055  0  0  -0.076365  0  4.061815  0  0  -0.091979  -0.073735  0  4.023495  0
C  C120  1  0.50376296  0.95086684  0.98554241  1  0  -0.061324  0  3.790365  0  0.06994  0  -0.075391  0  4.038905  0  0  -0.076912  0  4.061664  0  0  -0.092198  -0.074285  0  4.023364  0
C  C121  1  0.00379530  0.54914965  0.48554348  1  0  -0.060985  0  3.790616  0  0.070243  0  -0.075099  0  4.039123  0  0  -0.076619  0  4.061885  0  0  -0.092024  -0.073995  0  4.023575  0
C  C122  1  0.50377141  0.95086896  0.51445950  1  0  -0.061326  0  3.790407  0  0.072441  0  -0.07539  0  4.038994  0  0  -0.076912  0  4.061752  0  0  -0.092193  -0.074279  0  4.023446  0
C  C123  1  0.99624355  0.45086701  0.98554065  1  0  -0.061322  0  3.790664  0  0.070023  0  -0.075382  0  4.03919  0  0  -0.076909  0  4.061959  0  0  -0.092216  -0.074267  0  4.023624  0
Cl  Cl124  1  0.23278055  0.06951288  0.25000545  1  0  1.382007  0  6.162269  0  3.140666  0  1.31893  0  6.720949  0  0  1.371278  0  6.699251  0  0  0.729637  1.282849  0  6.734425  0
Cl  Cl125  1  0.73277671  0.43047945  0.75000303  1  0  1.381718  0  6.163128  0  3.141875  0  1.318749  0  6.721676  0  0  1.371102  0  6.699987  0  0  0.729615  1.282662  0  6.735161  0
Cl  Cl126  1  0.26722417  0.56951972  0.24999721  1  0  1.381781  0  6.163282  0  3.141863  0  1.318784  0  6.721887  0  0  1.371137  0  6.700194  0  0  0.729611  1.282693  0  6.735374  0
Cl  Cl127  1  0.76721477  0.93047799  0.74999479  1  0  1.381756  0  6.163037  0  3.141273  0  1.318711  0  6.721649  0  0  1.371063  0  6.699955  0  0  0.729473  1.28262  0  6.735144  0
O  O128  1  0.30782106  0.17789017  0.25001016  1  0  -0.584684  0  1.927937  0  -0.941532  0  -0.546909  0  2.215518  0  0  -0.563464  0  2.198082  0  0  -0.330617  -0.53509  0  2.227001  0
O  O129  1  0.80779655  0.32209802  0.75000492  1  0  -0.584425  0  1.92796  0  -0.941726  0  -0.546772  0  2.215615  0  0  -0.56333  0  2.198183  0  0  -0.330557  -0.534957  0  2.227105  0
O  O130  1  0.19220062  0.67790040  0.25000414  1  0  -0.584474  0  1.928059  0  -0.941666  0  -0.546783  0  2.215687  0  0  -0.563335  0  2.198256  0  0  -0.330563  -0.534966  0  2.227173  0
O  O131  1  0.69218168  0.82209995  0.74999842  1  0  -0.584622  0  1.928173  0  -0.941775  0  -0.546856  0  2.215769  0  0  -0.56341  0  2.198329  0  0  -0.330577  -0.53504  0  2.227261  0
O  O132  1  0.95954016  0.06702373  0.25000360  1  0  -0.559607  0  1.918708  0  -1.024568  0  -0.526502  0  2.189236  0  0  -0.543819  0  2.174246  0  0  -0.310145  -0.514181  0  2.19899  0
O  O133  1  0.45954061  0.43297881  0.75000016  1  0  -0.559618  0  1.918981  0  -1.024549  0  -0.526477  0  2.189435  0  0  -0.543796  0  2.174451  0  0  -0.310123  -0.514153  0  2.199187  0
O  O134  1  0.54046585  0.56702338  0.25000302  1  0  -0.559589  0  1.918918  0  -1.024675  0  -0.52646  0  2.189388  0  0  -0.54378  0  2.174405  0  0  -0.310112  -0.514137  0  2.19914  0
O  O135  1  0.04045330  0.93297167  0.75000350  1  0  -0.559576  0  1.918885  0  -1.024481  0  -0.526433  0  2.189377  0  0  -0.543758  0  2.174394  0  0  -0.310084  -0.514116  0  2.199141  0
O  O136  1  0.32732978  0.02112521  0.30867583  1  0  -0.508713  0  1.851259  0  -1.024726  0  -0.474214  0  2.086059  0  0  -0.49184  0  2.076096  0  0  -0.291661  -0.461865  0  2.092399  0
O  O137  1  0.82734111  0.47885896  0.80867362  1  0  -0.508602  0  1.851508  0  -1.025074  0  -0.474158  0  2.08629  0  0  -0.491784  0  2.076328  0  0  -0.291598  -0.461806  0  2.092624  0
O  O138  1  0.32732958  0.02114346  0.19132582  1  0  -0.508587  0  1.851181  0  -1.024256  0  -0.474171  0  2.086034  0  0  -0.491793  0  2.076066  0  0  -0.291555  -0.461821  0  2.092366  0
O  O139  1  0.17265626  0.52113629  0.30866976  1  0  -0.508597  0  1.851359  0  -1.024864  0  -0.474147  0  2.086124  0  0  -0.491771  0  2.076159  0  0  -0.291626  -0.461796  0  2.092463  0
O  O140  1  0.67267668  0.97885209  0.69132049  1  0  -0.508574  0  1.85148  0  -1.025293  0  -0.474125  0  2.08629  0  0  -0.491748  0  2.076327  0  0  -0.291598  -0.461774  0  2.092624  0
O  O141  1  0.17268020  0.52115454  0.19131926  1  0  -0.508641  0  1.851552  0  -1.025077  0  -0.474222  0  2.086345  0  0  -0.491847  0  2.076378  0  0  -0.291659  -0.46187  0  2.092681  0
O  O142  1  0.67264159  0.97885873  0.80866951  1  0  -0.508558  0  1.851161  0  -1.024147  0  -0.474116  0  2.08596  0  0  -0.491738  0  2.075995  0  0  -0.29157  -0.461764  0  2.092297  0
O  O143  1  0.82734091  0.47884856  0.69132361  1  0  -0.508608  0  1.851229  0  -1.02493  0  -0.474194  0  2.086016  0  0  -0.491816  0  2.076052  0  0  -0.291695  -0.461847  0  2.092355  0
