# generated using pymatgen
data_NaH17(C7O2)3
_symmetry_space_group_name_H-M   'P 1'
_cell_length_a   6.80683770
_cell_length_b   11.90349496
_cell_length_c   13.22896228
_cell_angle_alpha   109.68430427
_cell_angle_beta   99.80379852
_cell_angle_gamma   104.93519332
_symmetry_Int_Tables_number   1
_chemical_formula_structural   NaH17(C7O2)3
_chemical_formula_sum   'Na2 H34 C42 O12'
_cell_volume   935.40107848
_cell_formula_units_Z   2
loop_
 _symmetry_equiv_pos_site_id
 _symmetry_equiv_pos_as_xyz
  1  'x, y, z'
loop_
 _atom_site_type_symbol
 _atom_site_label
 _atom_site_symmetry_multiplicity
 _atom_site_fract_x
 _atom_site_fract_y
 _atom_site_fract_z
 _atom_site_occupancy
 _atom_site_hle17_bader_spin_density
 _atom_site_hle17_ddec_charge
 _atom_site_hle17_ddec_spin_density
 _atom_site_hle17_ddec_sum_bond_order
 _atom_site_hle17_magmom
 _atom_site_hse06_10hf_bader_spin_density
 _atom_site_hse06_10hf_ddec_charge
 _atom_site_hse06_10hf_ddec_spin_density
 _atom_site_hse06_10hf_ddec_sum_bond_order
 _atom_site_hse06_10hf_magmom
 _atom_site_hse06_bader_spin_density
 _atom_site_hse06_ddec_charge
 _atom_site_hse06_ddec_spin_density
 _atom_site_hse06_ddec_sum_bond_order
 _atom_site_hse06_magmom
 _atom_site_pbe_bader_spin_density
 _atom_site_pbe_cm5_charge
 _atom_site_pbe_ddec_charge
 _atom_site_pbe_ddec_spin_density
 _atom_site_pbe_ddec_sum_bond_order
 _atom_site_pbe_magmom
Na  Na0  1  0.00000746  0.00000534  0.99999959  1  0  0.905311  0  0.380427  0  0  0.857286  0  0.540195  0  0  0.869717  0  0.515964  0  0  0.682501  0.848062  0  0.557664  0
Na  Na1  1  0.50000544  0.99999651  0.99999704  1  0  0.907531  0  0.364201  0  0  0.859854  0  0.518251  0  0  0.872493  0  0.494526  0  0  0.672799  0.850427  0  0.535403  0
H  H2  1  0.16554538  0.07624761  0.24923272  1  0  0.403951  0  0.900413  0  0  0.371458  0  0.978878  0  0  0.384679  0  0.960607  0  0  0.301732  0.362218  0  0.989771  0
H  H3  1  0.83443859  0.92374075  0.75076455  1  0  0.403868  0  0.900497  0  0  0.371375  0  0.978981  0  0  0.384595  0  0.960711  0  0  0.301723  0.362136  0  0.989838  0
H  H4  1  0.61123089  0.25142706  0.19881744  1  0  0.401788  0  0.89814  0  0  0.369578  0  0.978154  0  0  0.382614  0  0.963136  0  0  0.30133  0.360449  0  0.987423  0
H  H5  1  0.38878763  0.74858039  0.80118503  1  0  0.401766  0  0.898039  0  0  0.36951  0  0.978184  0  0  0.382537  0  0.963215  0  0  0.301325  0.360382  0  0.987449  0
H  H6  1  0.64869056  0.21285448  0.37164977  1  0  0.094106  0  0.967894  0  0  0.101512  0  1.034456  0  0  0.104655  0  1.032625  0  0  0.101031  0.099264  0  1.035757  0
H  H7  1  0.35130441  0.78713208  0.62834190  1  0  0.09395  0  0.967945  0  0  0.101388  0  1.034482  0  0  0.104528  0  1.032657  0  0  0.100942  0.09914  0  1.035785  0
H  H8  1  0.29633398  0.31478875  0.35851079  1  0  0.093324  0  0.958791  0  0  0.101275  0  1.025384  0  0  0.104482  0  1.023557  0  0  0.099652  0.098921  0  1.026776  0
H  H9  1  0.70366375  0.68519492  0.64148856  1  0  0.093361  0  0.958823  0  0  0.101272  0  1.025446  0  0  0.104477  0  1.023622  0  0  0.099633  0.098957  0  1.026794  0
H  H10  1  0.14814554  0.48403845  0.66646003  1  0  0.087878  0  0.971191  0  0  0.095625  0  1.039388  0  0  0.098425  0  1.038121  0  0  0.097136  0.093595  0  1.040377  0
H  H11  1  0.85183887  0.51595850  0.33353083  1  0  0.087755  0  0.971316  0  0  0.0955  0  1.039515  0  0  0.098298  0  1.038253  0  0  0.097094  0.09347  0  1.040503  0
H  H12  1  0.41233691  0.46367974  0.55966144  1  0  0.085699  0  0.965189  0  0  0.096915  0  1.027435  0  0  0.099376  0  1.026857  0  0  0.099005  0.095143  0  1.02797  0
H  H13  1  0.58764964  0.53631054  0.44033514  1  0  0.08573  0  0.965273  0  0  0.097004  0  1.02744  0  0  0.099466  0  1.02686  0  0  0.09905  0.095232  0  1.027975  0
H  H14  1  0.52611137  0.53590225  0.25576853  1  0  0.09305  0  0.974501  0  0  0.101163  0  1.04299  0  0  0.103827  0  1.041785  0  0  0.101462  0.099193  0  1.043942  0
H  H15  1  0.47390381  0.46411272  0.74424198  1  0  0.09307  0  0.974554  0  0  0.101227  0  1.04296  0  0  0.103888  0  1.041758  0  0  0.101485  0.09925  0  1.043923  0
H  H16  1  0.50161849  0.00931522  0.42594946  1  0  0.093221  0  0.979966  0  0  0.102831  0  1.044954  0  0  0.105502  0  1.043365  0  0  0.102875  0.100895  0  1.046108  0
H  H17  1  0.49836666  0.99067789  0.57404785  1  0  0.093235  0  0.979982  0  0  0.102842  0  1.04497  0  0  0.105514  0  1.043382  0  0  0.102904  0.100907  0  1.046125  0
H  H18  1  0.76672166  0.35664395  0.57327053  1  0  0.082118  0  0.971672  0  0  0.093282  0  1.03163  0  0  0.095607  0  1.031851  0  0  0.094781  0.091629  0  1.031547  0
H  H19  1  0.23326183  0.64334348  0.42672339  1  0  0.082123  0  0.97175  0  0  0.09331  0  1.031688  0  0  0.095635  0  1.031909  0  0  0.094799  0.091659  0  1.031609  0
H  H20  1  0.96224539  0.23828932  0.01646912  1  0  0.099581  0  0.992482  0  0  0.104825  0  1.064441  0  0  0.108842  0  1.061006  0  0  0.107381  0.101953  0  1.066904  0
H  H21  1  0.03777556  0.76171718  0.98353554  1  0  0.099562  0  0.992514  0  0  0.104777  0  1.064506  0  0  0.108797  0  1.061058  0  0  0.10732  0.101893  0  1.066987  0
H  H22  1  0.53767771  0.82523641  0.09247119  1  0  0.093792  0  0.985463  0  0  0.101854  0  1.052606  0  0  0.105559  0  1.049477  0  0  0.107492  0.099185  0  1.054867  0
H  H23  1  0.46232757  0.17476340  0.90753076  1  0  0.093813  0  0.98543  0  0  0.101857  0  1.052611  0  0  0.105562  0  1.049474  0  0  0.107485  0.099172  0  1.054887  0
H  H24  1  0.77106654  0.39218780  0.03865770  1  0  0.090863  0  0.941623  0  0  0.104724  0  0.994183  0  0  0.107192  0  0.994079  0  0  0.102639  0.102932  0  0.994416  0
H  H25  1  0.22893975  0.60781109  0.96134104  1  0  0.090828  0  0.941628  0  0  0.104689  0  0.994199  0  0  0.107157  0  0.994095  0  0  0.10259  0.102898  0  0.994433  0
H  H26  1  0.81420594  0.75103419  0.16448967  1  0  0.085016  0  0.959511  0  0  0.097401  0  1.016506  0  0  0.100064  0  1.015693  0  0  0.101209  0.095461  0  1.017273  0
H  H27  1  0.18579740  0.24896750  0.83551268  1  0  0.08504  0  0.959441  0  0  0.097409  0  1.016451  0  0  0.100073  0  1.015635  0  0  0.10121  0.09547  0  1.017218  0
H  H28  1  0.95698317  0.61836961  0.16831370  1  0  0.081226  0  0.965646  0  0  0.093946  0  1.024082  0  0  0.096369  0  1.022884  0  0  0.099917  0.092207  0  1.02497  0
H  H29  1  0.04301609  0.38163016  0.83168996  1  0  0.081186  0  0.965607  0  0  0.093887  0  1.024078  0  0  0.09631  0  1.02288  0  0  0.099907  0.092144  0  1.024975  0
H  H30  1  0.33744361  0.69109958  0.27406794  1  0  0.081901  0  0.98649  0  0  0.09076  0  1.05005  0  0  0.092295  0  1.051887  0  0  0.095256  0.089654  0  1.048861  0
H  H31  1  0.66255898  0.30890875  0.72593486  1  0  0.081966  0  0.986414  0  0  0.090823  0  1.049972  0  0  0.092358  0  1.051811  0  0  0.095271  0.089716  0  1.048782  0
H  H32  1  0.77116404  0.92665122  0.49999528  1  0  0.098132  0  0.953743  0  0  0.107767  0  1.014059  0  0  0.110992  0  1.012929  0  0  0.101373  0.105442  0  1.014998  0
H  H33  1  0.22882020  0.07334566  0.50000538  1  0  0.098112  0  0.953753  0  0  0.10774  0  1.014074  0  0  0.110964  0  1.012945  0  0  0.101382  0.105415  0  1.015012  0
H  H34  1  0.93043804  0.79921182  0.36963332  1  0  0.085412  0  0.956793  0  0  0.09661  0  1.016937  0  0  0.098704  0  1.017082  0  0  0.100338  0.095085  0  1.016882  0
H  H35  1  0.06954646  0.20078029  0.63037044  1  0  0.085448  0  0.956767  0  0  0.096619  0  1.016933  0  0  0.098713  0  1.017078  0  0  0.100318  0.095093  0  1.016875  0
C  C36  1  0.50089017  0.92154954  0.25493613  1  0  -0.0984  0  3.789771  0  0  -0.072511  0  4.020277  0  0  -0.082838  0  4.045271  0  0  -0.022379  -0.065824  0  4.003475  0
C  C37  1  0.49911273  0.07845124  0.74506137  1  0  -0.09823  0  3.789634  0  0  -0.072388  0  4.020178  0  0  -0.082717  0  4.045169  0  0  -0.022394  -0.065701  0  4.003371  0
C  C38  1  0.96511961  0.25405097  0.35253195  1  0  -0.086286  0  3.769183  0  0  -0.05884  0  3.993658  0  0  -0.067521  0  4.017904  0  0  -0.021991  -0.053235  0  3.977326  0
C  C39  1  0.03487662  0.74594317  0.64746140  1  0  -0.086235  0  3.769035  0  0  -0.058764  0  3.993472  0  0  -0.067439  0  4.017705  0  0  -0.021972  -0.053163  0  3.977158  0
C  C40  1  0.81629611  0.26679137  0.41320672  1  0  -0.06987  0  3.734954  0  0  -0.090924  0  3.975908  0  0  -0.090854  0  3.997013  0  0  -0.085934  -0.090721  0  3.961541  0
C  C41  1  0.18370048  0.73320085  0.58678986  1  0  -0.069619  0  3.734727  0  0  -0.090688  0  3.975661  0  0  -0.090617  0  3.996762  0  0  -0.085839  -0.090489  0  3.961297  0
C  C42  1  0.89221010  0.16821822  0.23124723  1  0  0.689184  0  3.867292  0  0  0.638162  0  4.164004  0  0  0.671957  0  4.155581  0  0  0.227513  0.615284  0  4.168993  0
C  C43  1  0.10778217  0.83177685  0.76874604  1  0  0.689175  0  3.867222  0  0  0.638129  0  4.163977  0  0  0.67192  0  4.15555  0  0  0.227474  0.615251  0  4.168966  0
C  C44  1  0.25599658  0.37674600  0.13626508  1  0  -0.093263  0  3.784939  0  0  -0.067361  0  4.014086  0  0  -0.077456  0  4.039561  0  0  -0.022785  -0.060813  0  3.996961  0
C  C45  1  0.74402298  0.62326614  0.86374572  1  0  -0.093252  0  3.784867  0  0  -0.067474  0  4.014049  0  0  -0.077568  0  4.039539  0  0  -0.02287  -0.060914  0  3.996899  0
C  C46  1  0.18104250  0.32368659  0.40615998  1  0  -0.071251  0  3.729571  0  0  -0.092383  0  3.97033  0  0  -0.092243  0  3.991232  0  0  -0.084418  -0.092189  0  3.956098  0
C  C47  1  0.81895363  0.67630750  0.59383939  1  0  -0.071247  0  3.729678  0  0  -0.092348  0  3.970442  0  0  -0.092209  0  3.991342  0  0  -0.084365  -0.092185  0  3.956196  0
C  C48  1  0.33989945  0.96970154  0.20997277  1  0  0.679112  0  3.808701  0  0  0.630498  0  4.102637  0  0  0.664737  0  4.092736  0  0  0.236635  0.607253  0  4.108881  0
C  C49  1  0.66009691  0.03029825  0.79002534  1  0  0.679153  0  3.808617  0  0  0.630571  0  4.1025  0  0  0.664811  0  4.092593  0  0  0.236651  0.607325  0  4.108746  0
C  C50  1  0.36736740  0.28269544  0.12626618  1  0  0.672882  0  3.813507  0  0  0.624116  0  4.108982  0  0  0.658441  0  4.098447  0  0  0.235876  0.600787  0  4.115698  0
C  C51  1  0.63265170  0.71731578  0.87374051  1  0  0.672637  0  3.814034  0  0  0.624138  0  4.109154  0  0  0.658441  0  4.098662  0  0  0.235898  0.600812  0  4.115859  0
C  C52  1  0.09692051  0.41814871  0.57893810  1  0  -0.054076  0  3.756284  0  0  -0.071319  0  4.007307  0  0  -0.071454  0  4.028168  0  0  -0.084488  -0.070986  0  3.993041  0
C  C53  1  0.90306620  0.58184444  0.42105559  1  0  -0.053772  0  3.756326  0  0  -0.070982  0  4.007308  0  0  -0.071114  0  4.028164  0  0  -0.084406  -0.07065  0  3.993042  0
C  C54  1  0.24562972  0.40656641  0.51860864  1  0  -0.082219  0  3.771953  0  0  -0.092721  0  4.019786  0  0  -0.096443  0  4.041963  0  0  -0.093097  -0.09026  0  4.004641  0
C  C55  1  0.75436221  0.59342291  0.48139192  1  0  -0.082379  0  3.772109  0  0  -0.092943  0  4.019945  0  0  -0.096665  0  4.042119  0  0  -0.093164  -0.090486  0  4.004814  0
C  C56  1  0.36072978  0.50470473  0.20865967  1  0  -0.074002  0  3.742873  0  0  -0.098582  0  3.98552  0  0  -0.098088  0  4.006908  0  0  -0.085561  -0.098627  0  3.971011  0
C  C57  1  0.63927837  0.49530832  0.79134962  1  0  -0.074053  0  3.742796  0  0  -0.098652  0  3.985442  0  0  -0.098152  0  4.006835  0  0  -0.085593  -0.098697  0  3.97093  0
C  C58  1  0.56887309  0.95052145  0.36987350  1  0  -0.071452  0  3.744525  0  0  -0.096681  0  3.990084  0  0  -0.095764  0  4.011035  0  0  -0.082637  -0.097027  0  3.975843  0
C  C59  1  0.43111972  0.04947737  0.63012626  1  0  -0.071505  0  3.744501  0  0  -0.096718  0  3.990056  0  0  -0.095801  0  4.011003  0  0  -0.082672  -0.097066  0  3.975818  0
C  C60  1  0.88262741  0.34731078  0.52626215  1  0  -0.078272  0  3.778765  0  0  -0.085903  0  4.021278  0  0  -0.089743  0  4.043666  0  0  -0.092156  -0.083369  0  4.006033  0
C  C61  1  0.11735875  0.65268140  0.47373270  1  0  -0.078482  0  3.778952  0  0  -0.086164  0  4.021482  0  0  -0.090004  0  4.043869  0  0  -0.092243  -0.083632  0  4.00624  0
C  C62  1  0.04379163  0.33697319  0.07398730  1  0  -0.064429  0  3.719937  0  0  -0.091284  0  3.969507  0  0  -0.090659  0  3.989735  0  0  -0.080084  -0.091442  0  3.955753  0
C  C63  1  0.95622443  0.66303520  0.92601598  1  0  -0.064247  0  3.719852  0  0  -0.091036  0  3.969397  0  0  -0.090412  0  3.98963  0  0  -0.079972  -0.091193  0  3.95563  0
C  C64  1  0.58895349  0.84805728  0.18166242  1  0  -0.057427  0  3.730737  0  0  -0.085607  0  3.979873  0  0  -0.083906  0  3.999298  0  0  -0.07553  -0.086441  0  3.966622  0
C  C65  1  0.41104989  0.15194443  0.81833767  1  0  -0.057484  0  3.730592  0  0  -0.085652  0  3.979717  0  0  -0.083939  0  3.999126  0  0  -0.075503  -0.086472  0  3.966476  0
C  C66  1  0.93625108  0.42357397  0.08672255  1  0  -0.066055  0  3.760363  0  0  -0.077959  0  4.012031  0  0  -0.081386  0  4.033745  0  0  -0.08671  -0.075744  0  3.997255  0
C  C67  1  0.06375784  0.57642965  0.91327938  1  0  -0.066084  0  3.760564  0  0  -0.078001  0  4.012207  0  0  -0.081431  0  4.033927  0  0  -0.086639  -0.075784  0  3.997427  0
C  C68  1  0.74469772  0.80571781  0.22286345  1  0  -0.067741  0  3.750309  0  0  -0.07958  0  4.00144  0  0  -0.083407  0  4.02231  0  0  -0.08513  -0.077111  0  3.987246  0
C  C69  1  0.25530469  0.19428484  0.77713760  1  0  -0.067788  0  3.750288  0  0  -0.079607  0  4.001405  0  0  -0.083433  0  4.022268  0  0  -0.085133  -0.07714  0  3.987207  0
C  C70  1  0.04109524  0.55068876  0.15927027  1  0  -0.050529  0  3.754473  0  0  -0.066599  0  4.002999  0  0  -0.066654  0  4.023487  0  0  -0.082517  -0.066293  0  3.988935  0
C  C71  1  0.95891370  0.44931767  0.84073631  1  0  -0.050374  0  3.75445  0  0  -0.066424  0  4.002968  0  0  -0.066479  0  4.023459  0  0  -0.082466  -0.066119  0  3.988901  0
C  C72  1  0.25400520  0.59153531  0.21921680  1  0  -0.08233  0  3.788521  0  0  -0.090848  0  4.034864  0  0  -0.094789  0  4.057874  0  0  -0.093495  -0.088269  0  4.019238  0
C  C73  1  0.74599993  0.40847492  0.78078757  1  0  -0.082469  0  3.788334  0  0  -0.090974  0  4.034676  0  0  -0.094917  0  4.057686  0  0  -0.093511  -0.088394  0  4.019047  0
C  C74  1  0.72094355  0.90545723  0.41080102  1  0  -0.084395  0  3.756527  0  0  -0.093726  0  4.003422  0  0  -0.098097  0  4.025154  0  0  -0.09056  -0.090865  0  3.988642  0
C  C75  1  0.27904787  0.09454443  0.58919873  1  0  -0.084404  0  3.756443  0  0  -0.093734  0  4.003335  0  0  -0.098104  0  4.025065  0  0  -0.090545  -0.090874  0  3.988556  0
C  C76  1  0.81025236  0.83347448  0.33721084  1  0  -0.041091  0  3.733322  0  0  -0.057515  0  3.980979  0  0  -0.056679  0  4.001187  0  0  -0.080129  -0.057767  0  3.967035  0
C  C77  1  0.18974396  0.16652530  0.66278953  1  0  -0.041082  0  3.733269  0  0  -0.057484  0  3.980903  0  0  -0.056648  0  4.001111  0  0  -0.080119  -0.057732  0  3.966956  0
O  O78  1  0.01130005  0.11130408  0.18781828  1  0  -0.677343  0  2.050409  0  0  -0.62392  0  2.2911  0  0  -0.64865  0  2.278745  0  0  -0.366497  -0.606631  0  2.29853  0
O  O79  1  0.98868613  0.88868811  0.81217507  1  0  -0.677317  0  2.050404  0  0  -0.623859  0  2.29105  0  0  -0.648615  0  2.278753  0  0  -0.366479  -0.606569  0  2.298474  0
O  O80  1  0.27383851  0.94320275  0.10791178  1  0  -0.669323  0  1.973712  0  0  -0.628463  0  2.21781  0  0  -0.647828  0  2.203351  0  0  -0.383943  -0.615118  0  2.227534  0
O  O81  1  0.72617209  0.05680376  0.89208514  1  0  -0.669393  0  1.973659  0  0  -0.628586  0  2.217803  0  0  -0.64795  0  2.203337  0  0  -0.383975  -0.615245  0  2.227532  0
O  O82  1  0.27497697  0.04302760  0.28694262  1  0  -0.557228  0  2.085588  0  0  -0.503943  0  2.304663  0  0  -0.527268  0  2.287579  0  0  -0.323204  -0.487771  0  2.314705  0
O  O83  1  0.72500512  0.95696267  0.71305204  1  0  -0.557265  0  2.085556  0  0  -0.503969  0  2.304647  0  0  -0.527292  0  2.287568  0  0  -0.323225  -0.487796  0  2.314663  0
O  O84  1  0.30494877  0.17747452  0.04604598  1  0  -0.655475  0  1.959928  0  0  -0.616412  0  2.202763  0  0  -0.635606  0  2.189042  0  0  -0.368408  -0.603148  0  2.211955  0
O  O85  1  0.69506484  0.82253761  0.95396277  1  0  -0.655414  0  1.960108  0  0  -0.616475  0  2.202904  0  0  -0.635614  0  2.18909  0  0  -0.368423  -0.603213  0  2.212094  0
O  O86  1  0.53871736  0.32115950  0.21068243  1  0  -0.556802  0  2.09577  0  0  -0.503179  0  2.321533  0  0  -0.52661  0  2.307176  0  0  -0.321933  -0.486906  0  2.33014  0
O  O87  1  0.46131148  0.67885561  0.78931727  1  0  -0.556634  0  2.095824  0  0  -0.503126  0  2.321605  0  0  -0.526543  0  2.307294  0  0  -0.321968  -0.486858  0  2.330213  0
O  O88  1  0.71050283  0.15349978  0.17280511  1  0  -0.68941  0  2.057234  0  0  -0.6366  0  2.301585  0  0  -0.661486  0  2.289873  0  0  -0.37869  -0.619213  0  2.308845  0
O  O89  1  0.28949163  0.84650192  0.82719114  1  0  -0.689457  0  2.057309  0  0  -0.636601  0  2.301698  0  0  -0.661483  0  2.289997  0  0  -0.378643  -0.619213  0  2.308959  0
