# generated using pymatgen
data_Zr6H17C52S10(NO6)7
_symmetry_space_group_name_H-M   'P 1'
_cell_length_a   16.45666409
_cell_length_b   16.44810580
_cell_length_c   16.52457372
_cell_angle_alpha   61.66453324
_cell_angle_beta   59.75679030
_cell_angle_gamma   60.21873109
_symmetry_Int_Tables_number   1
_chemical_formula_structural   Zr6H17C52S10(NO6)7
_chemical_formula_sum   'Zr6 H17 C52 S10 N7 O42'
_cell_volume   3199.95587629
_cell_formula_units_Z   1
loop_
 _symmetry_equiv_pos_site_id
 _symmetry_equiv_pos_as_xyz
  1  'x, y, z'
loop_
 _atom_site_type_symbol
 _atom_site_label
 _atom_site_symmetry_multiplicity
 _atom_site_fract_x
 _atom_site_fract_y
 _atom_site_fract_z
 _atom_site_occupancy
 _atom_site_pbe_bader_charge
 _atom_site_pbe_bader_spin_density
 _atom_site_pbe_cm5_charge
 _atom_site_pbe_ddec_charge
 _atom_site_pbe_ddec_spin_density
 _atom_site_pbe_ddec_sum_bond_order
 _atom_site_pbe_magmom
Zr  Zr0  1  0.88774215  0.90276696  0.59784289  1  2.634677  0  1.63255  2.372259  0  2.787862  0
Zr  Zr1  1  0.11075415  0.10357351  0.39736255  1  2.636081  0  1.629635  2.372588  0  2.772349  0
Zr  Zr2  1  0.10209596  0.89386318  0.60662081  1  2.635137  0  1.625554  2.376036  0  2.73529  0
Zr  Zr3  1  0.89661851  0.11310591  0.38897109  1  2.637082  0  1.61963  2.375247  0  2.732746  0
Zr  Zr4  1  0.10788920  0.89418207  0.38878543  1  2.638767  0  1.624511  2.378526  0  2.734077  0
Zr  Zr5  1  0.89007682  0.11139787  0.60781858  1  2.635725  0  1.622627  2.377222  0  2.731012  0
H  H6  1  0.07729716  0.75311456  0.57772827  1  0.598257  0  0.333477  0.426563  0  0.851213  0
H  H7  1  0.09118941  0.08369674  0.24780825  1  0.602024  0  0.333006  0.426607  0  0.853062  0
H  H8  1  0.08325350  0.08209852  0.58957327  1  0.605586  0  0.330701  0.424858  0  0.853788  0
H  H9  1  0.74453066  0.09467436  0.57776221  1  0.629703  0  0.331371  0.425017  0  0.852727  0
H  H10  1  0.12431285  0.61314642  0.36003056  1  0.128203  0  0.127235  0.154295  0  0.962258  0
H  H11  1  0.60632919  0.13038877  0.89585108  1  0.129001  0  0.125588  0.152425  0  0.964749  0
H  H12  1  0.86903912  0.12691956  0.11531729  1  0.128284  0  0.121237  0.146862  0  0.972291  0
H  H13  1  0.62561628  0.39783912  0.36261961  1  0.136492  0  0.123391  0.149843  0  0.968028  0
H  H14  1  0.10032250  0.64058828  0.86944407  1  0.097819  0  0.106581  0.116387  0  1.033933  0
H  H15  1  0.84339024  0.65647307  0.84920329  1  0.079676  0  0.102981  0.119461  0  1.012752  0
H  H16  1  0.88923243  0.37800035  0.13525319  1  0.092843  0  0.100881  0.105748  0  1.034128  0
H  H17  1  0.15343543  0.35391977  0.14901805  1  0.094636  0  0.103086  0.121461  0  1.013373  0
H  H18  1  0.62006501  0.87686037  0.61110197  1  0.121301  0  0.125725  0.152566  0  0.966275  0
H  H19  1  0.20257798  0.55751484  0.92911166  1  0.475874  0  0.306661  0.308311  0  0.965132  0
H  H20  1  0.24138038  0.46541581  0.02328568  1  0.470776  0  0.316019  0.312234  0  0.926175  0
H  H21  1  0.82204497  0.43078483  0.04103428  1  0.440099  0  0.302372  0.292413  0  0.964544  0
H  H22  1  0.77406303  0.52872492  0.95725137  1  0.428911  0  0.310578  0.305026  0  0.933308  0
C  C23  1  0.99461688  0.73930985  0.48445673  1  1.587668  0  0.227502  0.643492  0  4.160289  0
C  C24  1  0.28180081  0.98750653  0.23546334  1  1.612775  0  0.228323  0.651534  0  4.157764  0
C  C25  1  0.99578401  0.27348010  0.50530029  1  1.606402  0  0.227905  0.651836  0  4.159822  0
C  C26  1  0.72413150  0.00858692  0.76802742  1  1.57735  0  0.227905  0.644577  0  4.157595  0
C  C27  1  0.98122545  0.74171431  0.76539158  1  1.494517  0  0.235439  0.644345  0  4.078889  0
C  C28  1  0.73053157  0.00740760  0.48660063  1  1.599646  0  0.226188  0.643939  0  4.158388  0
C  C29  1  0.01255789  0.27138571  0.23523077  1  1.50455  0  0.234258  0.643348  0  4.076406  0
C  C30  1  0.27572543  0.99279500  0.49990909  1  1.616015  0  0.227519  0.65257  0  4.158963  0
C  C31  1  0.27275191  0.73127230  0.49519668  1  1.598329  0  0.227283  0.652219  0  4.153002  0
C  C32  1  0.99077713  0.99594373  0.77819493  1  1.622047  0  0.227825  0.652951  0  4.154967  0
C  C33  1  0.73330251  0.28183243  0.49513557  1  1.580319  0  0.22885  0.647025  0  4.144592  0
C  C34  1  0.99940852  0.00070762  0.22649316  1  1.589696  0  0.228315  0.646414  0  4.151005  0
C  C35  1  0.92481792  0.42456604  0.56308669  1  0.288005  0  0.075967  0.032099  0  3.962167  0
C  C36  1  0.06136376  0.59368029  0.42268270  1  0.066701  0  -0.083664  -0.129553  0  3.953367  0
C  C37  1  0.99146893  0.36705409  0.50043876  1  -0.112702  0  -0.013173  -0.168369  0  3.92964  0
C  C38  1  0.99403008  0.64943326  0.48639823  1  -0.16399  0  -0.018277  -0.113705  0  3.965333  0
C  C39  1  0.03613702  0.51099918  0.45155848  1  -0.160117  0  -0.01529  -0.003458  0  4.064043  0
C  C40  1  0.95001346  0.50626131  0.53694467  1  -0.147764  0  -0.018934  -0.072074  0  4.080297  0
C  C41  1  0.42613703  0.92296684  0.08987880  1  0.285642  0  0.077225  0.033817  0  3.954677  0
C  C42  1  0.58665891  0.06754375  0.91591662  1  -0.023327  0  -0.084796  -0.131394  0  3.959534  0
C  C43  1  0.37261470  0.98596614  0.14716679  1  -0.140898  0  -0.011698  -0.166958  0  3.92117  0
C  C44  1  0.63828439  0.00398621  0.86011994  1  -0.123673  0  -0.018344  -0.113894  0  3.967618  0
C  C45  1  0.50793360  0.03847032  0.99904104  1  -0.148347  0  -0.016872  -0.006756  0  4.071097  0
C  C46  1  0.50245768  0.95301865  0.00419276  1  -0.12433  0  -0.017801  -0.071923  0  4.07995  0
C  C47  1  0.05407940  0.92540026  0.92101054  1  0.249806  0  0.078057  0.034751  0  3.953291  0
C  C48  1  0.92941049  0.06384949  0.09203155  1  -0.018445  0  -0.087458  -0.134843  0  3.967972  0
C  C49  1  0.98890328  0.99209861  0.87005117  1  -0.086451  0  -0.014617  -0.168876  0  3.924966  0
C  C50  1  0.99657414  0.99742637  0.14035685  1  -0.093308  0  -0.018453  -0.115833  0  3.955986  0
C  C51  1  0.95130964  0.03763916  0.01148290  1  -0.176569  0  -0.017137  -7.6e-05  0  4.064229  0
C  C52  1  0.03477940  0.95108220  0.00084671  1  -0.110762  0  -0.017989  -0.074235  0  4.066631  0
C  C53  1  0.41162272  0.59349209  0.56218611  1  0.259579  0  0.074841  0.030821  0  3.96522  0
C  C54  1  0.59787469  0.42085385  0.42630580  1  0.091682  0  -0.0854  -0.130228  0  3.959816  0
C  C55  1  0.36398043  0.64436840  0.49412591  1  -0.081591  0  -0.016379  -0.174698  0  3.935812  0
C  C56  1  0.64438202  0.37133431  0.49499395  1  -0.215916  0  -0.018255  -0.117881  0  3.952471  0
C  C57  1  0.51272307  0.50173553  0.45144826  1  -0.168321  0  -0.016483  -0.004323  0  4.068712  0
C  C58  1  0.49649034  0.51167482  0.53936917  1  -0.151786  0  -0.019991  -0.078383  0  4.073794  0
C  C59  1  0.04288056  0.60901039  0.89906388  1  0.005327  0  -0.092883  -0.153217  0  3.958555  0
C  C60  1  0.89592096  0.61896599  0.88787164  1  0.03712  0  -0.111584  -0.243433  0  3.978009  0
C  C61  1  0.88730372  0.53684002  0.96896924  1  0.353778  0  0.097115  0.261199  0  4.086987  0
C  C62  1  0.95758947  0.48836251  0.01890689  1  0.005344  0  -0.010725  -0.001904  0  3.974797  0
C  C63  1  0.95000801  0.40609755  0.10271414  1  -0.042155  0  -0.105792  -0.179989  0  4.003717  0
C  C64  1  0.09962928  0.39291624  0.11161619  1  -0.010092  0  -0.113822  -0.252271  0  3.972593  0
C  C65  1  0.10929036  0.47490958  0.02963347  1  0.411812  0  0.107633  0.280356  0  4.084331  0
C  C66  1  0.03698877  0.52525147  0.98144586  1  0.009004  0  -0.00885  -0.004255  0  3.951215  0
C  C67  1  0.97318931  0.65500629  0.85336492  1  -0.042874  0  -0.02681  -0.031597  0  4.053919  0
C  C68  1  0.02031014  0.35923906  0.14796363  1  -0.02599  0  -0.027235  -0.027476  0  4.064287  0
C  C69  1  0.41724548  0.05859445  0.42987843  1  0.292868  0  0.074506  0.03275  0  3.969715  0
C  C70  1  0.59520820  0.93641835  0.55181645  1  -0.027901  0  -0.08345  -0.127921  0  3.956229  0
C  C71  1  0.36741303  0.99188024  0.49579059  1  -0.149153  0  -0.016726  -0.178655  0  3.943021  0
C  C72  1  0.64323848  0.00430057  0.48579350  1  -0.122683  0  -0.019374  -0.114443  0  3.963867  0
C  C73  1  0.51250373  0.95665192  0.53114949  1  -0.130075  0  -0.014976  -0.004175  0  4.066218  0
C  C74  1  0.49993787  0.04006613  0.44910334  1  -0.134467  0  -0.02005  -0.073573  0  4.079056  0
S  S75  1  0.08587776  0.41337591  0.40789250  1  0.341137  0  0.128537  0.196789  0  2.748062  0
S  S76  1  0.90035957  0.60267067  0.58178183  1  0.297381  0  0.099122  0.156553  0  2.758541  0
S  S77  1  0.41697706  0.08190455  0.09691201  1  0.358417  0  0.130386  0.203947  0  2.78676  0
S  S78  1  0.59257201  0.90923252  0.90670433  1  0.320521  0  0.105577  0.166314  0  2.761866  0
S  S79  1  0.90137815  0.08693100  0.92132074  1  0.302447  0  0.112448  0.170457  0  2.727847  0
S  S80  1  0.08672217  0.90290339  0.08890626  1  0.311019  0  0.109606  0.17457  0  2.734786  0
S  S81  1  0.42377809  0.59215862  0.39988787  1  0.326976  0  0.122425  0.192972  0  2.759125  0
S  S82  1  0.58603432  0.42231488  0.59023070  1  0.318164  0  0.110463  0.18308  0  2.763105  0
S  S83  1  0.42240667  0.90417963  0.58275009  1  0.346938  0  0.135888  0.213375  0  2.744665  0
S  S84  1  0.58930807  0.09315307  0.39792213  1  0.301621  0  0.092838  0.148364  0  2.728801  0
N  N85  1  0.83670682  0.40613749  0.64820317  1  0.409781  0  0.064167  0.542496  0  4.210618  0
N  N86  1  0.41015274  0.83350099  0.11234851  1  0.392124  0  0.061805  0.536856  0  4.213364  0
N  N87  1  0.13578119  0.83627035  0.89774261  1  0.408161  0  0.066073  0.53831  0  4.215302  0
N  N88  1  0.37904701  0.61991567  0.65016110  1  0.416708  0  0.068691  0.547373  0  4.210914  0
N  N89  1  0.38917743  0.14157028  0.34782351  1  0.417767  0  0.065432  0.547122  0  4.215756  0
N  N90  1  0.18490245  0.50900557  0.99663708  1  -1.284508  0  -0.586598  -0.609593  0  3.34047  0
N  N91  1  0.80970975  0.50320983  0.00423664  1  -1.212818  0  -0.597541  -0.61611  0  3.311543  0
O  O92  1  0.92297198  0.77740675  0.55211816  1  -1.180641  0  -0.355593  -0.615253  0  2.29581  0
O  O93  1  0.24883575  0.05538378  0.27255953  1  -1.167147  0  -0.347535  -0.603519  0  2.281799  0
O  O94  1  0.06812717  0.23611973  0.43764871  1  -1.172661  0  -0.347983  -0.604164  0  2.284383  0
O  O95  1  0.75658246  0.94289364  0.72812927  1  -1.171716  0  -0.356017  -0.614291  0  2.298218  0
O  O96  1  0.05268699  0.77304987  0.73308816  1  -1.171917  0  -0.357849  -0.617809  0  2.278339  0
O  O97  1  0.76528464  0.07610790  0.42073708  1  -1.179947  0  -0.351959  -0.617649  0  2.255577  0
O  O98  1  0.94108283  0.24026502  0.26680043  1  -1.181624  0  -0.358726  -0.625979  0  2.26897  0
O  O99  1  0.23970259  0.92584929  0.56733202  1  -1.177997  0  -0.34325  -0.59887  0  2.248092  0
O  O100  1  0.24043558  0.76429298  0.42578340  1  -1.165317  0  -0.345923  -0.603331  0  2.252344  0
O  O101  1  0.92238515  0.06653133  0.74508499  1  -1.179937  0  -0.347721  -0.609785  0  2.251202  0
O  O102  1  0.76497390  0.24644743  0.56569815  1  -1.168109  0  -0.351239  -0.610537  0  2.26256  0
O  O103  1  0.06844631  0.93154725  0.25965175  1  -1.177621  0  -0.35245  -0.612923  0  2.265303  0
O  O104  1  0.06239102  0.92965629  0.73860153  1  -1.181977  0  -0.354152  -0.60521  0  2.286843  0
O  O105  1  0.77027180  0.24593786  0.42514463  1  -1.173338  0  -0.359255  -0.614417  0  2.259949  0
O  O106  1  0.93325554  0.07298122  0.25997881  1  -1.176296  0  -0.357952  -0.614383  0  2.25687  0
O  O107  1  0.23314061  0.76526743  0.56710137  1  -1.171009  0  -0.356881  -0.608827  0  2.282972  0
O  O108  1  0.91569539  0.77966232  0.72527588  1  -1.184129  0  -0.371131  -0.628912  0  2.308454  0
O  O109  1  0.23939941  0.06366729  0.43480402  1  -1.173854  0  -0.360925  -0.610209  0  2.300228  0
O  O110  1  0.08029049  0.23042912  0.27322981  1  -1.181423  0  -0.368361  -0.624505  0  2.306086  0
O  O111  1  0.76301684  0.94043783  0.55552394  1  -1.176918  0  -0.36072  -0.610189  0  2.286213  0
O  O112  1  0.75847586  0.07726390  0.73528725  1  -1.179059  0  -0.357143  -0.609505  0  2.25613  0
O  O113  1  0.06645831  0.77058792  0.41753896  1  -1.183536  0  -0.354937  -0.607126  0  2.252405  0
O  O114  1  0.24242552  0.92375386  0.26509218  1  -1.166285  0  -0.355905  -0.602767  0  2.297738  0
O  O115  1  0.92888058  0.23740352  0.57652883  1  -1.169022  0  -0.35578  -0.605144  0  2.281145  0
O  O116  1  0.81698784  0.06950525  0.55453255  1  -1.256755  0  -0.693089  -1.070712  0  2.353887  0
O  O117  1  0.05887420  0.05941496  0.56430071  1  -1.234563  0  -0.692734  -1.072748  0  2.351121  0
O  O118  1  0.06579166  0.05935853  0.31889332  1  -1.230144  0  -0.695069  -1.071475  0  2.36375  0
O  O119  1  0.05593398  0.82419134  0.55305636  1  -1.224066  0  -0.695453  -1.071836  0  2.362163  0
O  O120  1  0.13366038  0.95418592  0.45588362  1  -1.198769  0  -0.787989  -1.150508  0  2.115309  0
O  O121  1  0.95548379  0.96215978  0.44849937  1  -1.204012  0  -0.789319  -1.149396  0  2.11957  0
O  O122  1  0.95740939  0.13530348  0.45730318  1  -1.196688  0  -0.789671  -1.148075  0  2.126224  0
O  O123  1  0.95032342  0.96179657  0.62980551  1  -1.198117  0  -0.790812  -1.148917  0  2.128404  0
O  O124  1  0.83589417  0.39365885  0.72880802  1  -0.450334  0  -0.143855  -0.342431  0  1.839045  0
O  O125  1  0.76923295  0.40821255  0.63350226  1  -0.421634  0  -0.11539  -0.314545  0  1.941562  0
O  O126  1  0.40057031  0.82663137  0.04615251  1  -0.436751  0  -0.139646  -0.335258  0  1.845464  0
O  O127  1  0.41144950  0.77058012  0.19218943  1  -0.423396  0  -0.121343  -0.321094  0  1.942136  0
O  O128  1  0.22134156  0.83381140  0.87335481  1  -0.427731  0  -0.128758  -0.324264  0  1.847095  0
O  O129  1  0.11298859  0.76989076  0.90832670  1  -0.427841  0  -0.107974  -0.303151  0  1.919708  0
O  O130  1  0.32863961  0.57460615  0.72832142  1  -0.440792  0  -0.124711  -0.322944  0  1.863041  0
O  O131  1  0.40783142  0.68182728  0.63964915  1  -0.415871  0  -0.115524  -0.315551  0  1.904411  0
O  O132  1  0.34395947  0.22347929  0.36065186  1  -0.434335  0  -0.130564  -0.330222  0  1.867031  0
O  O133  1  0.41694469  0.12374288  0.27148681  1  -0.427811  0  -0.122789  -0.326071  0  1.924622  0
