# generated using pymatgen
data_LiH17C19O3
_symmetry_space_group_name_H-M   'P 1'
_cell_length_a   7.81820309
_cell_length_b   8.41469217
_cell_length_c   12.54095691
_cell_angle_alpha   87.98020257
_cell_angle_beta   83.08954455
_cell_angle_gamma   72.92890174
_symmetry_Int_Tables_number   1
_chemical_formula_structural   LiH17C19O3
_chemical_formula_sum   'Li2 H34 C38 O6'
_cell_volume   782.96176109
_cell_formula_units_Z   2
loop_
 _symmetry_equiv_pos_site_id
 _symmetry_equiv_pos_as_xyz
  1  'x, y, z'
loop_
 _atom_site_type_symbol
 _atom_site_label
 _atom_site_symmetry_multiplicity
 _atom_site_fract_x
 _atom_site_fract_y
 _atom_site_fract_z
 _atom_site_occupancy
 _atom_site_hle17_bader_spin_density
 _atom_site_hle17_ddec_charge
 _atom_site_hle17_ddec_spin_density
 _atom_site_hle17_ddec_sum_bond_order
 _atom_site_hle17_magmom
 _atom_site_hse06_10hf_bader_spin_density
 _atom_site_hse06_10hf_ddec_charge
 _atom_site_hse06_10hf_ddec_spin_density
 _atom_site_hse06_10hf_ddec_sum_bond_order
 _atom_site_hse06_10hf_magmom
 _atom_site_hse06_bader_spin_density
 _atom_site_hse06_ddec_charge
 _atom_site_hse06_ddec_spin_density
 _atom_site_hse06_ddec_sum_bond_order
 _atom_site_hse06_magmom
 _atom_site_pbe_bader_spin_density
 _atom_site_pbe_cm5_charge
 _atom_site_pbe_ddec_charge
 _atom_site_pbe_ddec_spin_density
 _atom_site_pbe_ddec_sum_bond_order
 _atom_site_pbe_magmom
Li  Li0  1  0.98205512  0.38070413  0.57471526  1  0  0.844578  0  0.413323  0  0  0.803605  0  0.517229  0  0  0.814512  0  0.498825  0  0  0.532144  0.795576  0  0.530615  0
Li  Li1  1  0.01794187  0.61928676  0.42528131  1  0  0.844616  0  0.413253  0  0  0.803607  0  0.517234  0  0  0.814514  0  0.498827  0  0  0.532139  0.795557  0  0.53064  0
H  H2  1  0.24843914  0.33260999  0.68984395  1  0  0.060409  0  0.956129  0  0  0.07163  0  1.026499  0  0  0.074042  0  1.023731  0  0  0.109353  0.069815  0  1.028652  0
H  H3  1  0.75155380  0.66739333  0.31015742  1  0  0.060411  0  0.956059  0  0  0.071613  0  1.026469  0  0  0.074036  0  1.023682  0  0  0.109373  0.069799  0  1.028617  0
H  H4  1  0.04656311  0.47040574  0.82311879  1  0  0.081646  0  0.963162  0  0  0.093829  0  1.026861  0  0  0.0969  0  1.025031  0  0  0.100806  0.091635  0  1.028228  0
H  H5  1  0.95343382  0.52960510  0.17688130  1  0  0.081659  0  0.963017  0  0  0.093823  0  1.026753  0  0  0.096894  0  1.024923  0  0  0.100815  0.091625  0  1.028123  0
H  H6  1  0.95200912  0.67952004  0.96950198  1  0  0.079377  0  0.960952  0  0  0.092965  0  1.017837  0  0  0.095205  0  1.017576  0  0  0.095548  0.091284  0  1.018178  0
H  H7  1  0.04799388  0.32049585  0.03049434  1  0  0.079337  0  0.960939  0  0  0.092944  0  1.017809  0  0  0.095183  0  1.017551  0  0  0.095551  0.091273  0  1.018141  0
H  H8  1  0.17397614  0.80997912  0.02830904  1  0  0.081625  0  0.973125  0  0  0.094719  0  1.032767  0  0  0.097131  0  1.03226  0  0  0.095492  0.093003  0  1.033171  0
H  H9  1  0.82603058  0.19002932  0.97168638  1  0  0.08162  0  0.973152  0  0  0.094774  0  1.032723  0  0  0.097177  0  1.032225  0  0  0.095499  0.093057  0  1.033128  0
H  H10  1  0.48981839  0.72583177  0.93955328  1  0  0.074699  0  0.983269  0  0  0.087366  0  1.043885  0  0  0.089395  0  1.043529  0  0  0.09333  0.085883  0  1.044229  0
H  H11  1  0.51019118  0.27416797  0.06044451  1  0  0.074706  0  0.983294  0  0  0.087362  0  1.043914  0  0  0.08939  0  1.043559  0  0  0.093318  0.085882  0  1.044254  0
H  H12  1  0.58405288  0.51386844  0.79548138  1  0  0.104434  0  0.974938  0  0  0.11407  0  1.036639  0  0  0.11734  0  1.034881  0  0  0.100956  0.111714  0  1.037984  0
H  H13  1  0.41594769  0.48613121  0.20451631  1  0  0.104426  0  0.974839  0  0  0.11405  0  1.036563  0  0  0.117317  0  1.034806  0  0  0.100942  0.111697  0  1.037904  0
H  H14  1  0.53345457  0.09838818  0.56876648  1  0  0.087358  0  0.960941  0  0  0.099112  0  1.023514  0  0  0.10156  0  1.023392  0  0  0.099692  0.097359  0  1.023697  0
H  H15  1  0.46654810  0.90160900  0.43122950  1  0  0.08739  0  0.960933  0  0  0.099165  0  1.023481  0  0  0.101615  0  1.023357  0  0  0.09972  0.097412  0  1.023663  0
H  H16  1  0.71947735  0.81375889  0.60622163  1  0  0.092495  0  0.956187  0  0  0.102024  0  1.017221  0  0  0.105474  0  1.014841  0  0  0.108723  0.099529  0  1.019015  0
H  H17  1  0.28051850  0.18623946  0.39377803  1  0  0.092416  0  0.956255  0  0  0.101953  0  1.017288  0  0  0.105404  0  1.014908  0  0  0.10869  0.099457  0  1.019082  0
H  H18  1  0.78834999  0.73165592  0.79311866  1  0  0.082016  0  0.96283  0  0  0.095122  0  1.02227  0  0  0.097773  0  1.021237  0  0  0.099693  0.093219  0  1.023083  0
H  H19  1  0.21163774  0.26834361  0.20688079  1  0  0.082018  0  0.962754  0  0  0.095121  0  1.022193  0  0  0.09775  0  1.02119  0  0  0.099695  0.093219  0  1.023006  0
H  H20  1  0.66835473  0.93989506  0.94134958  1  0  0.07582  0  0.961384  0  0  0.088215  0  1.022133  0  0  0.090757  0  1.020965  0  0  0.095046  0.086335  0  1.023097  0
H  H21  1  0.33164031  0.06010578  0.05864850  1  0  0.075779  0  0.961371  0  0  0.088187  0  1.022111  0  0  0.09073  0  1.020942  0  0  0.095039  0.086298  0  1.023086  0
H  H22  1  0.48332029  0.22530278  0.90201033  1  0  0.080656  0  0.998065  0  0  0.089671  0  1.065686  0  0  0.091951  0  1.06577  0  0  0.093013  0.088037  0  1.065716  0
H  H23  1  0.51667691  0.77469934  0.09798675  1  0  0.080706  0  0.998027  0  0  0.089716  0  1.065664  0  0  0.091997  0  1.065748  0  0  0.093033  0.088083  0  1.065691  0
H  H24  1  0.23467960  0.84315219  0.54508169  1  0  0.135998  0  0.957111  0  0  0.152093  0  1.021398  0  0  0.153914  0  1.021021  0  0  0.10323  0.150775  0  1.021645  0
H  H25  1  0.76533255  0.15684757  0.45492149  1  0  0.136019  0  0.957132  0  0  0.152097  0  1.021435  0  0  0.153918  0  1.021056  0  0  0.103263  0.150774  0  1.02169  0
H  H26  1  0.09384360  0.79383681  0.65742316  1  0  0.147751  0  0.933236  0  0  0.167191  0  0.99256  0  0  0.168323  0  0.993734  0  0  0.11106  0.166337  0  0.99181  0
H  H27  1  0.90616551  0.20616042  0.34257792  1  0  0.147696  0  0.933262  0  0  0.167123  0  0.992604  0  0  0.168241  0  0.993792  0  0  0.111051  0.166258  0  0.991866  0
H  H28  1  0.30791633  0.80718323  0.67710907  1  0  0.141674  0  0.943991  0  0  0.159736  0  1.007016  0  0  0.159714  0  1.010549  0  0  0.103406  0.159686  0  1.004644  0
H  H29  1  0.69209400  0.19281027  0.32289440  1  0  0.14152  0  0.943958  0  0  0.159606  0  1.006966  0  0  0.159571  0  1.010507  0  0  0.103352  0.159554  0  1.004595  0
H  H30  1  0.95816261  0.21421884  0.77936177  1  0  0.139428  0  0.947084  0  0  0.15548  0  1.011638  0  0  0.158141  0  1.009572  0  0  0.107775  0.15353  0  1.01317  0
H  H31  1  0.04183831  0.78577582  0.22063919  1  0  0.139462  0  0.947136  0  0  0.155507  0  1.011692  0  0  0.158168  0  1.009624  0  0  0.107821  0.153557  0  1.013224  0
H  H32  1  0.17210405  0.08259432  0.81219860  1  0  0.141834  0  0.933066  0  0  0.161969  0  0.992287  0  0  0.162544  0  0.99401  0  0  0.106086  0.161554  0  0.991083  0
H  H33  1  0.82789438  0.91740406  0.18780725  1  0  0.141835  0  0.933043  0  0  0.161958  0  0.992277  0  0  0.162534  0  0.994  0  0  0.106077  0.161544  0  0.991072  0
H  H34  1  0.98896577  0.99911043  0.81360696  1  0  0.133467  0  0.963519  0  0  0.151577  0  1.025937  0  0  0.152441  0  1.027779  0  0  0.097587  0.150883  0  1.024761  0
H  H35  1  0.01103644  0.00088424  0.18639470  1  0  0.133465  0  0.963459  0  0  0.15158  0  1.025877  0  0  0.152438  0  1.027725  0  0  0.097594  0.150886  0  1.024703  0
C  C36  1  0.32075024  0.49251290  0.52849468  1  0  0.308648  0  3.827007  0  0  0.288249  0  4.100359  0  0  0.307797  0  4.108311  0  0  0.11894  0.2752  0  4.094403  0
C  C37  1  0.67923749  0.50748663  0.47150318  1  0  0.308447  0  3.827249  0  0  0.288128  0  4.100431  0  0  0.307691  0  4.108367  0  0  0.118921  0.275085  0  4.094473  0
C  C38  1  0.61986287  0.43783621  0.58034780  1  0  0.305186  0  3.822368  0  0  0.286196  0  4.095311  0  0  0.307754  0  4.100471  0  0  0.124907  0.271831  0  4.091281  0
C  C39  1  0.38013041  0.56216212  0.41965206  1  0  0.305361  0  3.822003  0  0  0.286323  0  4.095057  0  0  0.307883  0  4.100219  0  0  0.124967  0.271959  0  4.091027  0
C  C40  1  0.44202674  0.42665253  0.60334700  1  0  -0.22461  0  3.753173  0  0  -0.222313  0  4.013965  0  0  -0.242787  0  4.043006  0  0  -0.053464  -0.208696  0  3.99419  0
C  C41  1  0.55796532  0.57334953  0.39665286  1  0  -0.224644  0  3.753244  0  0  -0.222316  0  4.013969  0  0  -0.242795  0  4.043003  0  0  -0.053486  -0.208715  0  3.994214  0
C  C42  1  0.37502954  0.35377176  0.70701921  1  0  -0.036703  0  3.677139  0  0  -0.053195  0  3.898341  0  0  -0.050302  0  3.911332  0  0  -0.068359  -0.054942  0  3.889367  0
C  C43  1  0.62496462  0.64622783  0.29298055  1  0  -0.036673  0  3.677066  0  0  -0.053168  0  3.898217  0  0  -0.05027  0  3.911191  0  0  -0.068378  -0.054913  0  3.889297  0
C  C44  1  0.32186601  0.47817207  0.79880670  1  0  0.074231  0  3.716335  0  0  0.094607  0  3.949792  0  0  0.094766  0  3.973348  0  0  -0.005914  0.094482  0  3.933817  0
C  C45  1  0.67813031  0.52182879  0.20119367  1  0  0.074199  0  3.716413  0  0  0.094611  0  3.949818  0  0  0.094767  0  3.973378  0  0  -0.005895  0.094487  0  3.933831  0
C  C46  1  0.14433859  0.52648922  0.84890384  1  0  -0.138444  0  3.770325  0  0  -0.161148  0  4.022265  0  0  -0.164428  0  4.043998  0  0  -0.096578  -0.158866  0  4.007464  0
C  C47  1  0.85565949  0.47351414  0.15109554  1  0  -0.138386  0  3.770209  0  0  -0.16108  0  4.022141  0  0  -0.16436  0  4.043877  0  0  -0.096567  -0.158795  0  4.007336  0
C  C48  1  0.09051434  0.64516528  0.93101703  1  0  -0.076893  0  3.820874  0  0  -0.08782  0  4.067781  0  0  -0.089772  0  4.090945  0  0  -0.098833  -0.086316  0  4.051956  0
C  C49  1  0.90948725  0.35484311  0.06898276  1  0  -0.076898  0  3.820882  0  0  -0.08785  0  4.067831  0  0  -0.089801  0  4.090993  0  0  -0.098895  -0.086356  0  4.052001  0
C  C50  1  0.21436542  0.71772195  0.96420377  1  0  -0.090609  0  3.798772  0  0  -0.102007  0  4.039587  0  0  -0.104648  0  4.061883  0  0  -0.102048  -0.100159  0  4.02434  0
C  C51  1  0.78564117  0.28227901  0.03579581  1  0  -0.090622  0  3.798532  0  0  -0.102068  0  4.03936  0  0  -0.104699  0  4.061657  0  0  -0.102018  -0.10022  0  4.024117  0
C  C52  1  0.39176391  0.66984795  0.91495440  1  0  -0.065412  0  3.805218  0  0  -0.077597  0  4.051574  0  0  -0.07927  0  4.074533  0  0  -0.095216  -0.07633  0  4.035949  0
C  C53  1  0.60824093  0.33015049  0.08504538  1  0  -0.065362  0  3.805045  0  0  -0.077539  0  4.051417  0  0  -0.079211  0  4.074373  0  0  -0.095204  -0.076275  0  4.035793  0
C  C54  1  0.44550458  0.55112803  0.83353193  1  0  -0.12404  0  3.729397  0  0  -0.143641  0  3.975142  0  0  -0.14681  0  3.995868  0  0  -0.095269  -0.141454  0  3.961124  0
C  C55  1  0.55449985  0.44887165  0.16646546  1  0  -0.124063  0  3.729389  0  0  -0.143673  0  3.975137  0  0  -0.146843  0  3.995866  0  0  -0.095263  -0.141487  0  3.961116  0
C  C56  1  0.56348380  0.06359191  0.65063150  1  0  -0.116713  0  3.72985  0  0  -0.135816  0  3.974557  0  0  -0.138966  0  3.995941  0  0  -0.092545  -0.133672  0  3.960103  0
C  C57  1  0.43651461  0.93640647  0.34936558  1  0  -0.116779  0  3.729951  0  0  -0.135914  0  3.974679  0  0  -0.139066  0  3.996067  0  0  -0.092576  -0.133753  0  3.960235  0
C  C58  1  0.66753220  0.90276645  0.67188331  1  0  -0.069001  0  3.779874  0  0  -0.078062  0  4.026712  0  0  -0.078665  0  4.046481  0  0  -0.089334  -0.077544  0  4.013276  0
C  C59  1  0.33246196  0.09723313  0.32811486  1  0  -0.068953  0  3.779964  0  0  -0.078008  0  4.026785  0  0  -0.078608  0  4.046549  0  0  -0.089293  -0.077488  0  4.01334  0
C  C60  1  0.70632820  0.85705093  0.77653624  1  0  -0.089248  0  3.803712  0  0  -0.105818  0  4.05441  0  0  -0.108523  0  4.076468  0  0  -0.098053  -0.103951  0  4.039379  0
C  C61  1  0.29366339  0.14294863  0.22346213  1  0  -0.089259  0  3.803601  0  0  -0.10583  0  4.054318  0  0  -0.108517  0  4.076376  0  0  -0.09809  -0.103963  0  4.039278  0
C  C62  1  0.63925679  0.97360957  0.85916914  1  0  -0.084231  0  3.823498  0  0  -0.09446  0  4.073165  0  0  -0.095955  0  4.095165  0  0  -0.099945  -0.093277  0  4.05815  0
C  C63  1  0.36073696  0.02639126  0.14082824  1  0  -0.084098  0  3.823436  0  0  -0.094332  0  4.073076  0  0  -0.095825  0  4.095067  0  0  -0.099863  -0.093143  0  4.058065  0
C  C64  1  0.53467736  0.13451132  0.83741991  1  0  -0.137447  0  3.766033  0  0  -0.156835  0  4.012  0  0  -0.160753  0  4.034599  0  0  -0.100798  -0.154146  0  3.996674  0
C  C65  1  0.46531936  0.86548829  0.16257726  1  0  -0.137608  0  3.766127  0  0  -0.157007  0  4.012104  0  0  -0.160926  0  4.034706  0  0  -0.100882  -0.154301  0  3.996784  0
C  C66  1  0.11368856  0.04121081  0.65694233  1  0  0.642136  0  3.594941  0  0  0.639202  0  3.856628  0  0  0.660493  0  3.858728  0  0  0.193538  0.624574  0  3.85508  0
C  C67  1  0.88632657  0.95878774  0.34306145  1  0  0.642362  0  3.594403  0  0  0.639258  0  3.856354  0  0  0.660553  0  3.858442  0  0  0.193514  0.624633  0  3.854806  0
C  C68  1  0.19288840  0.86093777  0.63125407  1  0  -0.443651  0  3.644291  0  0  -0.522387  0  3.871141  0  0  -0.528628  0  3.878474  0  0  -0.238196  -0.517795  0  3.866079  0
C  C69  1  0.80712288  0.13906073  0.36874921  1  0  -0.443458  0  3.6442  0  0  -0.522164  0  3.87115  0  0  -0.528377  0  3.878508  0  0  -0.23816  -0.517566  0  3.866095  0
C  C70  1  0.05189729  0.08851832  0.77252267  1  0  -0.452564  0  3.649666  0  0  -0.530551  0  3.87736  0  0  -0.536145  0  3.88314  0  0  -0.237777  -0.526418  0  3.873379  0
C  C71  1  0.94810580  0.91147761  0.22748128  1  0  -0.452643  0  3.649531  0  0  -0.530559  0  3.877272  0  0  -0.536146  0  3.883061  0  0  -0.237801  -0.52643  0  3.873296  0
C  C72  1  0.49650830  0.18234430  0.73282840  1  0  0.085072  0  3.70021  0  0  0.103598  0  3.934207  0  0  0.104263  0  3.957395  0  0  -0.003279  0.103108  0  3.918532  0
C  C73  1  0.50348883  0.81765407  0.26716878  1  0  0.085169  0  3.700175  0  0  0.103698  0  3.934175  0  0  0.104362  0  3.957366  0  0  -0.003263  0.103158  0  3.918564  0
O  O74  1  0.15326604  0.50126974  0.54357882  1  0  -0.70183  0  2.056041  0  0  -0.656159  0  2.293758  0  0  -0.675173  0  2.283939  0  0  -0.439583  -0.642741  0  2.300094  0
O  O75  1  0.84672548  0.49872608  0.45641963  1  0  -0.701776  0  2.056014  0  0  -0.656145  0  2.293695  0  0  -0.675165  0  2.283873  0  0  -0.439569  -0.64272  0  2.300029  0
O  O76  1  0.73917460  0.39480484  0.64416312  1  0  -0.571273  0  1.980908  0  0  -0.529193  0  2.201131  0  0  -0.546809  0  2.194763  0  0  -0.347456  -0.516929  0  2.20523  0
O  O77  1  0.26082165  0.60519227  0.35583416  1  0  -0.571373  0  1.980773  0  0  -0.529269  0  2.201036  0  0  -0.546883  0  2.194665  0  0  -0.347491  -0.516996  0  2.205128  0
O  O78  1  0.10308311  0.14786318  0.58538705  1  0  -0.577819  0  1.916664  0  0  -0.535207  0  2.12489  0  0  -0.554542  0  2.119094  0  0  -0.327676  -0.522085  0  2.128916  0
O  O79  1  0.89693803  0.85213667  0.41461784  1  0  -0.57807  0  1.916434  0  0  -0.5353  0  2.124614  0  0  -0.554655  0  2.118857  0  0  -0.327681  -0.522161  0  2.128631  0
