# generated using pymatgen
data_ZnH16C33N5O6F7
_symmetry_space_group_name_H-M   'P 1'
_cell_length_a   14.08226691
_cell_length_b   15.24992023
_cell_length_c   23.71266650
_cell_angle_alpha   89.00871361
_cell_angle_beta   89.84511950
_cell_angle_gamma   89.55225941
_symmetry_Int_Tables_number   1
_chemical_formula_structural   ZnH16C33N5O6F7
_chemical_formula_sum   'Zn2 H32 C66 N10 O12 F14'
_cell_volume   5091.44247561
_cell_formula_units_Z   2
loop_
 _symmetry_equiv_pos_site_id
 _symmetry_equiv_pos_as_xyz
  1  'x, y, z'
loop_
 _atom_site_type_symbol
 _atom_site_label
 _atom_site_symmetry_multiplicity
 _atom_site_fract_x
 _atom_site_fract_y
 _atom_site_fract_z
 _atom_site_occupancy
 _atom_site_pbe_bader_charge
 _atom_site_pbe_bader_spin_density
 _atom_site_pbe_cm5_charge
 _atom_site_pbe_ddec_charge
 _atom_site_pbe_ddec_spin_density
 _atom_site_pbe_ddec_sum_bond_order
 _atom_site_pbe_magmom
Zn  Zn0  1  0.40133573  0.50129259  0.50016978  1  1.322144  0  0.664481  0.849863  0  2.392085  0
Zn  Zn1  1  0.59835836  0.49749978  0.49949669  1  1.307429  0  0.664778  0.849962  0  2.396147  0
H  H2  1  0.50318856  0.28268854  0.05636688  1  0.162348  0  0.129645  0.159906  0  0.959585  0
H  H3  1  0.50298040  0.72303113  0.94343466  1  0.153444  0  0.129114  0.15853  0  0.960701  0
H  H4  1  0.64763553  0.52978219  0.32138258  1  0.072084  0  0.101236  0.113295  0  1.018792  0
H  H5  1  0.64820886  0.47175793  0.67865270  1  0.077816  0  0.101258  0.113649  0  1.017899  0
H  H6  1  0.35322296  0.45876701  0.32132732  1  0.073389  0  0.101581  0.112689  0  1.01314  0
H  H7  1  0.35290379  0.54330906  0.67802361  1  0.061395  0  0.101141  0.111888  0  1.01533  0
H  H8  1  0.38407570  0.91018345  0.62441449  1  0.104004  0  0.11215  0.138694  0  1.003719  0
H  H9  1  0.60661278  0.08871814  0.37225490  1  0.124146  0  0.113439  0.140925  0  0.998129  0
H  H10  1  0.70923947  0.58068651  0.23393873  1  0.380068  0  0.302616  0.246013  0  0.938291  0
H  H11  1  0.78090819  0.50159166  0.15886208  1  0.026757  0  0.0991  0.105077  0  0.985933  0
H  H12  1  0.67743531  0.43614079  0.15463078  1  0.060436  0  0.0977  0.108105  0  1.020298  0
H  H13  1  0.75087919  0.42635079  0.21498039  1  0.006761  0  0.084386  0.079763  0  0.999243  0
H  H14  1  0.71047378  0.42447879  0.76607312  1  0.378892  0  0.3027  0.245439  0  0.93914  0
H  H15  1  0.77908075  0.50217366  0.84191470  1  0.030522  0  0.099651  0.105254  0  0.985573  0
H  H16  1  0.67442810  0.56738282  0.84642941  1  0.030688  0  0.097795  0.107584  0  1.02319  0
H  H17  1  0.74863339  0.57849251  0.78633563  1  0.024521  0  0.085847  0.082426  0  0.997016  0
H  H18  1  0.28822906  0.42310462  0.23400156  1  0.397987  0  0.301272  0.242481  0  0.943247  0
H  H19  1  0.25068807  0.57868776  0.21454789  1  0.015108  0  0.087998  0.086454  0  0.992474  0
H  H20  1  0.22070996  0.50729529  0.15805491  1  0.02665  0  0.098322  0.103324  0  0.987121  0
H  H21  1  0.32569738  0.57102420  0.15480581  1  0.056867  0  0.098907  0.110363  0  1.022951  0
H  H22  1  0.28622155  0.58091403  0.76460966  1  0.394881  0  0.300388  0.241031  0  0.944887  0
H  H23  1  0.21974847  0.49967320  0.84192307  1  0.024633  0  0.098664  0.104033  0  0.986615  0
H  H24  1  0.32578902  0.43615705  0.84607726  1  0.03686  0  0.099094  0.110747  0  1.023211  0
H  H25  1  0.25148373  0.42628299  0.78651251  1  0.031226  0  0.089427  0.089091  0  0.990939  0
H  H26  1  0.41752874  0.69733169  0.57900654  1  0.434619  0  0.291969  0.244308  0  0.989081  0
H  H27  1  0.55249138  0.72898192  0.64301317  1  0.050072  0  0.088729  0.091435  0  0.990961  0
H  H28  1  0.43925220  0.72646052  0.67693231  1  0.053917  0  0.099445  0.110893  0  0.991264  0
H  H29  1  0.49209643  0.82855337  0.65875703  1  0.065852  0  0.101125  0.10986  0  1.006396  0
H  H30  1  0.57214167  0.30371965  0.41858993  1  0.442702  0  0.298059  0.248126  0  0.968787  0
H  H31  1  0.73217862  0.26456937  0.44375233  1  0.032846  0  0.082267  0.080575  0  1.005973  0
H  H32  1  0.71343252  0.26439875  0.36894414  1  0.032684  0  0.100842  0.108042  0  0.981996  0
H  H33  1  0.71677954  0.16387436  0.40807770  1  0.038469  0  0.101892  0.109952  0  1.010865  0
C  C34  1  0.49604720  0.32927854  0.50638022  1  1.540516  0  0.218472  0.632444  0  4.163994  0
C  C35  1  0.50271059  0.66978336  0.49351301  1  1.610519  0  0.220552  0.637071  0  4.156048  0
C  C36  1  0.58390225  0.52057548  0.23879642  1  0.423853  0  0.094508  0.176749  0  4.037747  0
C  C37  1  0.58381785  0.48367054  0.76118266  1  0.286334  0  0.09517  0.17702  0  4.040609  0
C  C38  1  0.58325637  0.51595873  0.29779252  1  -0.064231  0  -0.097349  -0.209535  0  3.962894  0
C  C39  1  0.58351000  0.48639342  0.70215048  1  0.057337  0  -0.097495  -0.21071  0  3.967694  0
C  C40  1  0.50066033  0.49296432  0.32706295  1  0.042965  0  -0.017599  0.006143  0  4.015805  0
C  C41  1  0.50090752  0.50877927  0.67264860  1  0.063212  0  -0.017653  0.003899  0  4.019964  0
C  C42  1  0.41746375  0.47486434  0.29768931  1  -0.07646  0  -0.097292  -0.208685  0  3.967881  0
C  C43  1  0.41726823  0.52813912  0.70183766  1  0.054472  0  -0.098609  -0.214633  0  3.978928  0
C  C44  1  0.41566437  0.47873794  0.23870289  1  0.43918  0  0.095435  0.176988  0  4.044076  0
C  C45  1  0.41491525  0.52577086  0.76085233  1  0.329054  0  0.094954  0.174253  0  4.047146  0
C  C46  1  0.49974754  0.50125167  0.20983852  1  0.388817  0  0.088227  0.032181  0  3.916386  0
C  C47  1  0.49908894  0.50388494  0.78994822  1  0.412298  0  0.088073  0.033503  0  3.913406  0
C  C48  1  0.54136747  0.81715821  0.45234950  1  0.469311  0  0.099656  0.249438  0  4.048099  0
C  C49  1  0.45356857  0.18164980  0.54557465  1  0.472278  0  0.100932  0.250994  0  4.043796  0
C  C50  1  0.50408305  0.76770714  0.49676170  1  -0.011331  0  -0.033539  -0.239858  0  4.006069  0
C  C51  1  0.49765305  0.23115989  0.50344962  1  0.014932  0  -0.034176  -0.240067  0  4.005133  0
C  C52  1  0.46825511  0.80923306  0.54524021  1  0.492701  0  0.099659  0.18276  0  4.000869  0
C  C53  1  0.54690999  0.18949980  0.45937753  1  0.49174  0  0.099688  0.180733  0  4.000633  0
C  C54  1  0.46691875  0.90238149  0.54646975  1  0.035898  0  -0.016033  0.002229  0  4.018671  0
C  C55  1  0.54604893  0.09640110  0.45715687  1  -0.022028  0  -0.015706  0.001874  0  4.017224  0
C  C56  1  0.50092300  0.48929281  0.39007952  1  1.504169  0  0.218299  0.602986  0  4.143399  0
C  C57  1  0.50146153  0.51054116  0.60959505  1  1.49503  0  0.216935  0.600236  0  4.147475  0
C  C58  1  0.50686780  0.95246236  0.50087167  1  0.054969  0  0.002221  0.032692  0  3.930829  0
C  C59  1  0.50467942  0.04628250  0.50228932  1  -0.06738  0  0.001752  0.034536  0  3.929543  0
C  C60  1  0.54565793  0.90898656  0.45255439  1  0.009015  0  -0.03216  -0.160596  0  4.086441  0
C  C61  1  0.45774772  0.08976890  0.54803130  1  0.14664  0  -0.031841  -0.160371  0  4.085842  0
C  C62  1  0.42042650  0.94708207  0.59129903  1  0.080884  0  -0.112936  -0.274675  0  4.040466  0
C  C63  1  0.58217374  0.05180690  0.40909104  1  0.00207  0  -0.113309  -0.275192  0  4.038159  0
C  C64  1  0.41615612  0.03617443  0.59126923  1  0.344436  0  0.09282  0.265361  0  4.090911  0
C  C65  1  0.58128242  0.96271696  0.40749095  1  0.482305  0  0.093133  0.26497  0  4.090252  0
C  C66  1  0.19997848  0.55347327  0.46445675  1  1.125929  0  0.257431  0.438235  0  4.013502  0
C  C67  1  0.79981998  0.44595751  0.53488579  1  1.109345  0  0.254975  0.432716  0  4.021897  0
C  C68  1  0.20112526  0.45105689  0.53666653  1  1.193503  0  0.258252  0.438706  0  4.014506  0
C  C69  1  0.79862356  0.54739202  0.46219421  1  1.086232  0  0.257251  0.437391  0  4.012756  0
C  C70  1  0.10170388  0.44518230  0.53855548  1  0.042725  0  -0.012064  -0.170537  0  4.061231  0
C  C71  1  0.89802282  0.55347536  0.46036855  1  0.168975  0  -0.012184  -0.169711  0  4.061161  0
C  C72  1  0.10042736  0.55654931  0.46147755  1  0.113388  0  -0.012537  -0.172075  0  4.063462  0
C  C73  1  0.89933044  0.44255430  0.53769512  1  0.148867  0  -0.013478  -0.173021  0  4.07051  0
C  C74  1  0.05026038  0.50012593  0.49975402  1  -0.004844  0  0.015277  0.075264  0  3.954417  0
C  C75  1  0.94950426  0.49875439  0.49928842  1  0.059273  0  0.015921  0.074872  0  3.953144  0
C  C76  1  0.04987098  0.38892006  0.57614889  1  0.639185  0  0.103828  0.159067  0  4.078204  0
C  C77  1  0.94985834  0.60975906  0.42279943  1  0.626954  0  0.102601  0.157389  0  4.075101  0
C  C78  1  0.04717926  0.61134254  0.42339652  1  0.557171  0  0.103067  0.157798  0  4.076758  0
C  C79  1  0.95254420  0.38771823  0.57572674  1  0.558568  0  0.10097  0.155206  0  4.079154  0
C  C80  1  0.50240098  0.58507699  0.87672545  1  1.30787  0  0.242637  0.433905  0  4.115538  0
C  C81  1  0.50425935  0.42060602  0.12294927  1  1.300889  0  0.244234  0.431686  0  4.116018  0
C  C82  1  0.49586528  0.42019611  0.87827148  1  1.344364  0  0.242902  0.450837  0  4.101896  0
C  C83  1  0.49638085  0.58544622  0.12155736  1  1.343866  0  0.243652  0.449425  0  4.101399  0
C  C84  1  0.49982969  0.42103784  0.94073475  1  0.075555  0  -0.012193  -0.176988  0  3.962192  0
C  C85  1  0.50054163  0.58463853  0.05901766  1  -0.054034  0  -0.011795  -0.173963  0  3.958426  0
C  C86  1  0.50027607  0.50195189  0.96977220  1  0.042188  0  0.003406  0.039948  0  3.997659  0
C  C87  1  0.50062064  0.50376984  0.02992569  1  -0.006782  0  0.002615  0.037389  0  3.997834  0
C  C88  1  0.50065737  0.58272443  0.93927003  1  0.050853  0  -2.2e-05  -0.028932  0  3.985135  0
C  C89  1  0.50136338  0.42301031  0.06042569  1  0.049037  0  0.000882  -0.023475  0  3.980522  0
C  C90  1  0.50078537  0.34388758  0.97326823  1  0.489674  0  0.125937  0.30244  0  4.024319  0
C  C91  1  0.50151178  0.66178584  0.02648903  1  0.548404  0  0.125283  0.300575  0  4.023711  0
C  C92  1  0.50185174  0.34424364  0.03232142  1  0.024763  0  -0.071267  -0.196221  0  3.925565  0
C  C93  1  0.50180463  0.66142802  0.96742189  1  0.015  0  -0.070572  -0.193217  0  3.926922  0
C  C94  1  0.72189061  0.47344570  0.18331853  1  0.290311  0  -0.144926  -0.212788  0  3.992119  0
C  C95  1  0.71998412  0.53076254  0.81752035  1  0.289457  0  -0.145257  -0.213344  0  3.990581  0
C  C96  1  0.27955996  0.53291956  0.18302577  1  0.289733  0  -0.14434  -0.212763  0  3.98323  0
C  C97  1  0.27923319  0.47318646  0.81732563  1  0.298562  0  -0.144316  -0.213999  0  3.9807  0
C  C98  1  0.48197589  0.76107735  0.64495711  1  0.220391  0  -0.141283  -0.210981  0  3.960153  0
C  C99  1  0.69378390  0.23258304  0.40915538  1  0.301291  0  -0.140961  -0.210044  0  3.973056  0
N  N100  1  0.49903660  0.50331300  0.85061660  1  -1.186719  0  -0.229431  -0.203997  0  3.623326  0
N  N101  1  0.50029233  0.50233952  0.14916251  1  -1.171853  0  -0.229229  -0.202617  0  3.626558  0
N  N102  1  0.24826174  0.50282745  0.50073362  1  -1.256779  0  -0.305576  -0.37066  0  3.46094  0
N  N103  1  0.75147679  0.49618445  0.49843094  1  -1.251154  0  -0.305768  -0.371835  0  3.467577  0
N  N104  1  0.66672587  0.54486700  0.20853975  1  -1.071035  0  -0.466474  -0.334976  0  3.459042  0
N  N105  1  0.66670251  0.45975173  0.79151687  1  -1.060041  0  -0.466232  -0.333389  0  3.463059  0
N  N106  1  0.33225028  0.45892891  0.20861585  1  -1.096827  0  -0.466796  -0.334192  0  3.46972  0
N  N107  1  0.33077997  0.54633733  0.79059624  1  -1.131222  0  -0.466461  -0.333011  0  3.468953  0
N  N108  1  0.43208948  0.75984185  0.59063922  1  -1.14511  0  -0.463469  -0.326335  0  3.491567  0
N  N109  1  0.59054195  0.23913202  0.41648794  1  -1.181384  0  -0.458512  -0.311557  0  3.466552  0
O  O110  1  0.41581001  0.36754885  0.50428641  1  -1.146809  0  -0.316879  -0.544875  0  2.323955  0
O  O111  1  0.58175357  0.62997690  0.48969297  1  -1.151057  0  -0.315547  -0.545234  0  2.335303  0
O  O112  1  0.42089638  0.63483350  0.49665126  1  -1.155844  0  -0.316207  -0.551269  0  2.316811  0
O  O113  1  0.57690617  0.36576387  0.50933535  1  -1.147399  0  -0.317667  -0.55429  0  2.340192  0
O  O114  1  0.42086082  0.49536470  0.41491616  1  -1.160502  0  -0.321448  -0.552659  0  2.338355  0
O  O115  1  0.58196480  0.51023823  0.58492625  1  -1.16908  0  -0.322942  -0.554656  0  2.330564  0
O  O116  1  0.42074830  0.51234144  0.58518007  1  -1.167204  0  -0.32371  -0.559367  0  2.34065  0
O  O117  1  0.58138155  0.48026278  0.41440947  1  -1.169494  0  -0.325583  -0.564266  0  2.324802  0
O  O118  1  0.50847126  0.65375849  0.84912183  1  -1.105308  0  -0.275964  -0.436761  0  2.080095  0
O  O119  1  0.51154827  0.35182497  0.15038212  1  -1.095441  0  -0.274094  -0.433227  0  2.079451  0
O  O120  1  0.48772215  0.35343431  0.85074745  1  -1.075553  0  -0.263976  -0.4182  0  2.097641  0
O  O121  1  0.48733099  0.65229263  0.14904863  1  -1.071242  0  -0.263592  -0.4171  0  2.096633  0
F  F122  1  0.50121328  0.26474702  0.94903372  1  -0.606942  0  -0.080443  -0.114685  0  1.35274  0
F  F123  1  0.50255532  0.74091121  0.05072401  1  -0.609604  0  -0.080214  -0.114163  0  1.352488  0
F  F124  1  0.36806999  0.07569772  0.63397127  1  -0.626213  0  -0.113915  -0.153165  0  1.332482  0
F  F125  1  0.61434510  0.92331082  0.36007783  1  -0.626327  0  -0.113428  -0.152694  0  1.331715  0
F  F126  1  0.25184097  0.60297418  0.42967678  1  -0.602049  0  -0.044216  -0.088101  0  1.398681  0
F  F127  1  0.74800746  0.39704963  0.57014264  1  -0.604147  0  -0.045739  -0.091118  0  1.406001  0
F  F128  1  0.25382425  0.40356747  0.57229942  1  -0.595529  0  -0.040757  -0.084063  0  1.412184  0
F  F129  1  0.74593895  0.59429962  0.42614675  1  -0.595422  0  -0.042007  -0.086439  0  1.413197  0
F  F130  1  0.09634464  0.33591490  0.61265977  1  -0.603021  0  -0.071352  -0.087576  0  1.377686  0
F  F131  1  0.90329811  0.66260542  0.38614941  1  -0.605819  0  -0.073783  -0.090943  0  1.375226  0
F  F132  1  0.09233925  0.66571478  0.38732763  1  -0.599306  0  -0.073608  -0.090576  0  1.376418  0
F  F133  1  0.90727111  0.33352752  0.61192496  1  -0.599972  0  -0.076358  -0.093588  0  1.374641  0
F  F134  1  0.57434972  0.77295863  0.40686001  1  -0.619464  0  -0.102584  -0.132332  0  1.356979  0
F  F135  1  0.40901046  0.22590439  0.58746616  1  -0.621508  0  -0.101774  -0.131392  0  1.358492  0
