# generated using pymatgen
data_CuH12(C7N5)2
_symmetry_space_group_name_H-M   'P 1'
_cell_length_a   7.19973538
_cell_length_b   7.54770115
_cell_length_c   14.33422549
_cell_angle_alpha   90.00006050
_cell_angle_beta   90.00048665
_cell_angle_gamma   99.55388479
_symmetry_Int_Tables_number   1
_chemical_formula_structural   CuH12(C7N5)2
_chemical_formula_sum   'Cu2 H24 C28 N20'
_cell_volume   768.13863399
_cell_formula_units_Z   2
loop_
 _symmetry_equiv_pos_site_id
 _symmetry_equiv_pos_as_xyz
  1  'x, y, z'
loop_
 _atom_site_type_symbol
 _atom_site_label
 _atom_site_symmetry_multiplicity
 _atom_site_fract_x
 _atom_site_fract_y
 _atom_site_fract_z
 _atom_site_occupancy
 _atom_site_hle17_ddec_charge
 _atom_site_hle17_ddec_spin_density
 _atom_site_hle17_ddec_sum_bond_order
 _atom_site_hle17_magmom
 _atom_site_hse06_10hf_ddec_charge
 _atom_site_hse06_10hf_ddec_spin_density
 _atom_site_hse06_10hf_ddec_sum_bond_order
 _atom_site_hse06_10hf_magmom
 _atom_site_hse06_ddec_charge
 _atom_site_hse06_ddec_spin_density
 _atom_site_hse06_ddec_sum_bond_order
 _atom_site_hse06_magmom
 _atom_site_pbe_cm5_charge
 _atom_site_pbe_ddec_charge
 _atom_site_pbe_ddec_spin_density
 _atom_site_pbe_ddec_sum_bond_order
 _atom_site_pbe_magmom
Cu  Cu0  1  0.99999930  0.49999966  0.49999855  1  0.895895  0.683259  1.928361  0.51  0.884586  0.791502  2.322419  0.64  0.961837  0.854055  2.260398  0.719  0.820066  0.838162  0.745919  2.364124  0.587
Cu  Cu1  1  0.49999591  0.49999987  0.00000189  1  0.895803  0.683254  1.928528  0.51  0.8845  0.791487  2.322541  0.64  0.961802  0.854063  2.260557  0.719  0.820076  0.838125  0.745939  2.364237  0.587
H  H2  1  0.98911674  0.86633649  0.43251751  1  0.098868  0.000926  0.942914  0.002  0.106186  0.001302  1.006428  0.002  0.107323  0.000863  1.005533  0.001  0.117195  0.105252  0.001655  1.007267  0.002
H  H3  1  0.51088165  0.13366128  0.93252168  1  0.09897  0.000927  0.942782  0.002  0.106283  0.001301  1.006308  0.002  0.10742  0.000862  1.005412  0.001  0.117196  0.105347  0.001655  1.00716  0.002
H  H4  1  0.01088750  0.13366171  0.56748032  1  0.098954  0.000926  0.942843  0.002  0.106278  0.001301  1.00638  0.002  0.107414  0.000862  1.005487  0.001  0.1172  0.105344  0.001654  1.007217  0.002
H  H5  1  0.48911959  0.86633555  0.06748451  1  0.098797  0.000923  0.942975  0.002  0.106137  0.001301  1.006471  0.002  0.107275  0.000862  1.005575  0.001  0.117165  0.105206  0.001654  1.007312  0.002
H  H6  1  0.07762533  0.39466682  0.30447295  1  0.081481  0.000855  0.978653  0.002  0.086013  0.001022  1.051818  0.002  0.087513  0.000675  1.050856  0.001  0.110428  0.084818  0.001304  1.052604  0.002
H  H7  1  0.42238020  0.60533021  0.80447634  1  0.081481  0.000865  0.978636  0.002  0.086018  0.001022  1.051809  0.002  0.087519  0.000674  1.050844  0.001  0.110411  0.084824  0.001304  1.05259  0.002
H  H8  1  0.92237913  0.60533272  0.69552278  1  0.081449  0.000863  0.97862  0.002  0.086001  0.001023  1.051787  0.002  0.087503  0.000675  1.050823  0.001  0.110426  0.084812  0.001304  1.052567  0.002
H  H9  1  0.57762288  0.39466932  0.19552986  1  0.081495  0.000861  0.978649  0.002  0.086021  0.001022  1.051802  0.002  0.087522  0.000675  1.050838  0.001  0.110417  0.084813  0.001304  1.052595  0.002
H  H10  1  0.08513467  0.53778569  0.14613449  1  0.095909  0.000757  0.969532  0.001  0.104202  0.000669  1.031457  0.001  0.104735  0.000422  1.033081  0.001  0.10153  0.103805  0.000885  1.030465  0.001
H  H11  1  0.41487149  0.46221462  0.64613846  1  0.095953  0.000752  0.969477  0.001  0.104266  0.000669  1.031362  0.001  0.104797  0.000421  1.032988  0.001  0.101533  0.103867  0.000885  1.030372  0.001
H  H12  1  0.91486818  0.46221249  0.85386125  1  0.095922  0.000751  0.969511  0.001  0.104226  0.000669  1.031411  0.001  0.104759  0.000421  1.033035  0.001  0.101496  0.103824  0.000885  1.03042  0.001
H  H13  1  0.58513598  0.53778629  0.35386773  1  0.095902  0.000753  0.969581  0.001  0.104199  0.000669  1.031501  0.001  0.104732  0.000421  1.033123  0.001  0.101516  0.103801  0.000885  1.03051  0.001
H  H14  1  0.03477408  0.85591648  0.13202906  1  0.107184  0.000125  0.949897  0.0  0.115801  -3.1e-05  1.012306  0.0  0.117658  -9.8e-05  1.011795  0.0  0.104984  0.114515  5.7e-05  1.012719  0.0
H  H15  1  0.46522882  0.14408240  0.63203308  1  0.107155  0.000133  0.949858  0.0  0.115752  -3.1e-05  1.01231  0.0  0.117607  -9.8e-05  1.011799  0.0  0.104954  0.114463  5.7e-05  1.01272  0.0
H  H16  1  0.96522137  0.14407897  0.86796737  1  0.107173  0.000136  0.949886  0.0  0.11578  -3.1e-05  1.01232  0.0  0.117637  -9.8e-05  1.011809  0.0  0.104964  0.114489  5.7e-05  1.012736  0.0
H  H17  1  0.53477864  0.85591851  0.36797242  1  0.10716  0.000115  0.949945  0.0  0.115797  -3.1e-05  1.012321  0.0  0.117654  -9.8e-05  1.011808  0.0  0.104971  0.114508  5.7e-05  1.012737  0.0
H  H18  1  0.92513230  0.11493663  0.33628246  1  0.313058  -3.4e-05  0.947384  0.0  0.299734  8.1e-05  1.010284  0.0  0.305342  7.3e-05  1.006515  0.0  0.2859  0.295788  9.4e-05  1.012835  0.0
H  H19  1  0.57486810  0.88505801  0.83628662  1  0.313021  -2.9e-05  0.947348  0.0  0.29968  8.1e-05  1.010276  0.0  0.30529  7.3e-05  1.006506  0.0  0.285873  0.295733  9.4e-05  1.012832  0.0
H  H20  1  0.07486454  0.88505882  0.66371536  1  0.312996  -3.1e-05  0.94743  0.0  0.299676  8.2e-05  1.010337  0.0  0.305284  7.3e-05  1.006566  0.0  0.285877  0.295728  9.4e-05  1.012894  0.0
H  H21  1  0.42513453  0.11493883  0.16371749  1  0.313108  -3.3e-05  0.947312  0.0  0.299767  8.2e-05  1.010237  0.0  0.305377  7.3e-05  1.006465  0.0  0.285913  0.295822  9.4e-05  1.012787  0.0
H  H22  1  0.93849097  0.10910354  0.21728548  1  0.297762  -0.000342  0.937067  0.0  0.28274  0.000115  1.004421  0.0  0.287781  7.6e-05  1.001861  0.0  0.290547  0.279159  0.000145  1.006113  0.0
H  H23  1  0.56150959  0.89089591  0.71728748  1  0.297777  -0.000335  0.93708  0.0  0.28275  0.000115  1.004441  0.0  0.287791  7.6e-05  1.001881  0.0  0.290545  0.279169  0.000145  1.006127  0.0
H  H24  1  0.06150610  0.89089326  0.78271026  1  0.29781  -0.000341  0.937025  0.0  0.28278  0.000115  1.004383  0.0  0.287819  7.5e-05  1.001824  0.0  0.290583  0.279201  0.000145  1.006075  0.0
H  H25  1  0.43849232  0.10910496  0.28271522  1  0.297771  -0.00034  0.937073  0.0  0.28275  0.000115  1.004426  0.0  0.287791  7.6e-05  1.001866  0.0  0.290536  0.279169  0.000145  1.006116  0.0
C  C26  1  0.33259015  0.29671208  0.45472225  1  0.51737  -0.011628  3.97035  -0.003  0.494554  -0.002067  4.240681  0.004  0.52543  -0.004067  4.246888  0.002  0.323455  0.473658  -0.000565  4.236508  0.006
C  C27  1  0.16741082  0.70329234  0.95472252  1  0.517505  -0.011624  3.970423  -0.003  0.49469  -0.002071  4.240747  0.004  0.525564  -0.004068  4.246949  0.002  0.323444  0.47379  -0.000567  4.236593  0.006
C  C28  1  0.66740708  0.70329411  0.54527348  1  0.517371  -0.011595  3.970465  -0.003  0.494552  -0.002071  4.240824  0.004  0.525419  -0.004065  4.247027  0.002  0.323436  0.473651  -0.000566  4.236665  0.006
C  C29  1  0.83258640  0.29671385  0.04527671  1  0.517529  -0.011627  3.970295  -0.003  0.494706  -0.00207  4.240615  0.004  0.525591  -0.004067  4.246819  0.002  0.323528  0.47381  -0.000566  4.236444  0.006
C  C30  1  0.62534591  0.21154153  0.43563427  1  0.480933  -0.003287  3.993797  -0.002  0.446876  -0.002088  4.289067  -0.001  0.472489  -0.001995  4.297698  -0.001  0.295385  0.429578  -0.002016  4.283321  -0.001
C  C31  1  0.87464952  0.78845489  0.93563476  1  0.48089  -0.003312  3.993738  -0.002  0.446839  -0.002089  4.289012  -0.001  0.472451  -0.001993  4.297648  -0.001  0.295335  0.429546  -0.002017  4.283261  -0.001
C  C32  1  0.37464458  0.78846595  0.56436146  1  0.480808  -0.00323  3.994062  -0.002  0.446751  -0.002099  4.28936  -0.001  0.472357  -0.001989  4.297995  -0.001  0.29526  0.429456  -0.002016  4.283613  -0.001
C  C33  1  0.12534565  0.21154726  0.06436585  1  0.481018  -0.003305  3.993824  -0.002  0.446948  -0.002089  4.289084  -0.001  0.472573  -0.001994  4.297721  -0.001  0.295296  0.429652  -0.002017  4.283346  -0.001
C  C34  1  0.00791302  0.88931307  0.28132414  1  0.273299  0.008993  3.854879  0.009  0.274171  0.00419  4.105291  0.005  0.280921  0.003561  4.126087  0.005  0.103231  0.269139  0.004854  4.091141  0.006
C  C35  1  0.49208654  0.11068381  0.78132756  1  0.273277  0.009061  3.854923  0.009  0.274171  0.004191  4.105297  0.005  0.280917  0.003561  4.126091  0.005  0.103176  0.269139  0.004855  4.091141  0.006
C  C36  1  0.99208755  0.11067974  0.71867020  1  0.273346  0.009032  3.855025  0.009  0.274351  0.004189  4.105272  0.005  0.281095  0.003561  4.126073  0.005  0.103252  0.269319  0.004854  4.091116  0.006
C  C37  1  0.50791420  0.88931839  0.21867794  1  0.27316  0.00899  3.855015  0.009  0.274068  0.004191  4.105403  0.005  0.2808  0.003561  4.126224  0.005  0.103204  0.269034  0.004855  4.091252  0.006
C  C38  1  0.00834658  0.79826790  0.36714110  1  0.0089  0.005593  3.646941  0.005  -0.027438  -0.002078  3.909441  -0.001  -0.023058  -0.004284  3.93008  -0.003  0.032922  -0.029977  -9.8e-05  3.895584  0.0
C  C39  1  0.49165033  0.20172936  0.86714666  1  0.008969  0.005555  3.646743  0.005  -0.027414  -0.002081  3.909227  -0.001  -0.023024  -0.004283  3.929869  -0.003  0.032997  -0.029952  -9.9e-05  3.895363  0.0
C  C40  1  0.99165538  0.20172491  0.63285463  1  0.008906  0.005594  3.646862  0.005  -0.027601  -0.002077  3.909386  -0.001  -0.023214  -0.004282  3.930027  -0.003  0.032948  -0.030149  -9.7e-05  3.895543  0.0
C  C41  1  0.50834718  0.79827013  0.13285884  1  0.009033  0.005603  3.6468  0.005  -0.027356  -0.002081  3.909341  -0.001  -0.022966  -0.004283  3.929985  -0.003  0.032929  -0.0299  -9.8e-05  3.895499  0.0
C  C42  1  0.05655293  0.53285446  0.29540304  1  0.07665  0.002386  3.71825  0.003  0.037208  -0.002779  3.992299  -0.001  0.04421  -0.005083  4.012577  -0.003  0.018197  0.032968  -0.000769  3.978444  0.0
C  C43  1  0.44344849  0.46714384  0.79540505  1  0.076698  0.002261  3.718415  0.003  0.037189  -0.002775  3.992497  -0.001  0.044196  -0.00508  4.012779  -0.003  0.018122  0.032947  -0.000769  3.978646  0.0
C  C44  1  0.94345065  0.46713970  0.70459200  1  0.076721  0.002324  3.718539  0.003  0.037162  -0.002778  3.99263  -0.001  0.044167  -0.005083  4.012912  -0.003  0.018121  0.032915  -0.000769  3.978781  0.0
C  C45  1  0.55655297  0.53285434  0.20459906  1  0.076737  0.002354  3.718302  0.003  0.037338  -0.002777  3.992284  -0.001  0.044344  -0.00508  4.012563  -0.003  0.01824  0.03311  -0.000769  3.978426  0.0
C  C46  1  0.05988414  0.61396216  0.20796409  1  -0.088024  0.006406  3.781498  0.007  -0.099912  0.004406  4.037247  0.006  -0.103807  0.003788  4.059809  0.005  -0.087935  -0.09726  0.005026  4.02172  0.006
C  C47  1  0.44011916  0.38603976  0.70796814  1  -0.088154  0.006499  3.781621  0.008  -0.100029  0.004404  4.037346  0.006  -0.103925  0.003787  4.059903  0.005  -0.087946  -0.097384  0.005025  4.021825  0.006
C  C48  1  0.94011731  0.38603601  0.79203164  1  -0.088017  0.006469  3.781554  0.008  -0.099889  0.004404  4.037302  0.006  -0.103784  0.003789  4.059862  0.005  -0.087855  -0.097235  0.005026  4.021768  0.006
C  C49  1  0.55988552  0.61396112  0.29203806  1  -0.088095  0.006414  3.781612  0.007  -0.100023  0.004406  4.037396  0.006  -0.103918  0.003788  4.059955  0.005  -0.087954  -0.097372  0.005026  4.021852  0.006
C  C50  1  0.03426992  0.79144584  0.20009830  1  -0.130465  -0.006199  3.67673  -0.004  -0.153418  -0.005494  3.926586  -0.003  -0.154368  -0.00618  3.945037  -0.003  -0.085321  -0.152673  -0.004851  3.914172  -0.003
C  C51  1  0.46573141  0.20855335  0.70010235  1  -0.130402  -0.00633  3.676739  -0.004  -0.153346  -0.005495  3.926538  -0.003  -0.154294  -0.006179  3.94499  -0.003  -0.08529  -0.152593  -0.004852  3.91411  -0.003
C  C52  1  0.96572948  0.20854830  0.79989674  1  -0.130498  -0.006312  3.676856  -0.004  -0.153506  -0.005493  3.926693  -0.003  -0.154454  -0.006183  3.945148  -0.003  -0.085344  -0.152752  -0.004852  3.914268  -0.003
C  C53  1  0.53427166  0.79144618  0.29990454  1  -0.130329  -0.006153  3.676796  -0.004  -0.153289  -0.005497  3.926609  -0.003  -0.154233  -0.00618  3.945063  -0.003  -0.085265  -0.152536  -0.004852  3.914193  -0.003
N  N54  1  0.21896312  0.38647138  0.47344226  1  -0.596158  0.048768  3.020834  0.061  -0.571654  0.041918  3.329479  0.054  -0.601608  0.035856  3.33086  0.049  -0.406923  -0.553219  0.04529  3.329694  0.056
N  N55  1  0.28103930  0.61353984  0.97344087  1  -0.596231  0.04876  3.020965  0.061  -0.571732  0.041917  3.329607  0.054  -0.601693  0.035855  3.330994  0.049  -0.406926  -0.553307  0.045285  3.329844  0.056
N  N56  1  0.78103917  0.61354022  0.52655905  1  -0.596207  0.048747  3.020831  0.061  -0.571697  0.041919  3.329483  0.054  -0.601655  0.035853  3.330874  0.049  -0.406932  -0.553259  0.045286  3.329704  0.056
N  N57  1  0.71896071  0.38646637  0.02655975  1  -0.596208  0.048763  3.020975  0.061  -0.571716  0.041918  3.329629  0.054  -0.601677  0.035855  3.331014  0.049  -0.406948  -0.553289  0.045287  3.329851  0.056
N  N58  1  0.44270410  0.18590129  0.43133507  1  -0.465183  -0.00042  3.311694  0.001  -0.405332  -0.001217  3.559544  0.0  -0.428232  -0.001817  3.560542  0.0  -0.307056  -0.389632  -0.000548  3.558421  0.001
N  N59  1  0.05728928  0.81410162  0.93133702  1  -0.465126  -0.000418  3.311706  0.001  -0.405287  -0.001218  3.559556  0.0  -0.428178  -0.001819  3.560544  0.0  -0.306944  -0.389585  -0.000549  3.558434  0.001
N  N60  1  0.55729218  0.81410758  0.56865578  1  -0.465049  -0.000422  3.311783  0.001  -0.405215  -0.001225  3.559654  0.0  -0.4281  -0.001818  3.560644  0.0  -0.306899  -0.38951  -0.000549  3.558532  0.001
N  N61  1  0.94270912  0.18590324  0.06866080  1  -0.465214  -0.000416  3.311642  0.001  -0.405343  -0.001217  3.559468  0.0  -0.428259  -0.001819  3.560472  0.0  -0.306996  -0.389643  -0.000548  3.558345  0.001
N  N62  1  0.02919510  0.62569565  0.37287074  1  -0.278154  0.087382  3.402838  0.113  -0.231946  0.066735  3.700738  0.093  -0.264433  0.052354  3.731685  0.078  -0.339301  -0.211723  0.075642  3.680781  0.1
N  N63  1  0.47080331  0.37430165  0.87287561  1  -0.278212  0.087458  3.40296  0.113  -0.231961  0.066736  3.700816  0.093  -0.26448  0.052353  3.731796  0.078  -0.339268  -0.211744  0.075639  3.680873  0.1
N  N64  1  0.97080848  0.37429852  0.62712429  1  -0.278178  0.087421  3.403074  0.113  -0.231829  0.066734  3.700893  0.093  -0.264327  0.052354  3.731852  0.078  -0.33926  -0.211601  0.075641  3.680931  0.1
N  N65  1  0.52919515  0.62569516  0.12713059  1  -0.278189  0.087393  3.402779  0.113  -0.231984  0.066738  3.700684  0.093  -0.264497  0.052354  3.731661  0.078  -0.339311  -0.211771  0.075642  3.680732  0.1
N  N66  1  0.79045519  0.21860485  0.43454144  1  -0.596038  -0.00093  2.729659  0.001  -0.575919  -0.001895  2.998707  0.0  -0.593313  -0.002248  3.002004  0.0  -0.369444  -0.564877  -0.001452  2.997165  0.0
N  N67  1  0.70953143  0.78138881  0.93454122  1  -0.596055  -0.00091  2.729528  0.001  -0.575938  -0.001895  2.99859  0.0  -0.593344  -0.00225  3.001902  0.0  -0.369452  -0.564902  -0.001452  2.997054  0.0
N  N68  1  0.20953603  0.78139861  0.56545848  1  -0.595966  -0.000974  2.729897  0.001  -0.575844  -0.001883  2.998954  0.0  -0.593238  -0.002254  3.00226  0.0  -0.369412  -0.564805  -0.001452  2.997418  0.0
N  N69  1  0.29046073  0.21861197  0.06546149  1  -0.596206  -0.000917  2.729632  0.001  -0.576068  -0.001895  2.998666  0.0  -0.593476  -0.002249  3.001973  0.0  -0.369462  -0.565033  -0.001452  2.997138  0.0
N  N70  1  0.98575015  0.06637279  0.27894359  1  -0.645408  0.019009  3.11486  0.022  -0.624169  0.001469  3.34628  0.002  -0.645505  0.001078  3.35126  0.001  -0.597825  -0.608407  0.00239  3.342132  0.003
N  N71  1  0.51424967  0.93362426  0.77894612  1  -0.64536  0.019028  3.114807  0.022  -0.624165  0.00147  3.346231  0.002  -0.645501  0.001078  3.351211  0.001  -0.597807  -0.608408  0.00239  3.342082  0.003
N  N72  1  0.01424925  0.93362135  0.72105354  1  -0.645414  0.019041  3.114943  0.022  -0.624268  0.001469  3.346335  0.002  -0.645601  0.001078  3.351317  0.001  -0.597883  -0.608509  0.00239  3.34219  0.003
N  N73  1  0.48575296  0.06637258  0.22105729  1  -0.645438  0.019012  3.114959  0.022  -0.624208  0.001469  3.346394  0.002  -0.645538  0.001078  3.351379  0.001  -0.597819  -0.608449  0.00239  3.342243  0.003
