# generated using pymatgen
data_AlH25C23O7
_symmetry_space_group_name_H-M   'P 1'
_cell_length_a   6.60631066
_cell_length_b   24.13020233
_cell_length_c   25.49789250
_cell_angle_alpha   78.30163276
_cell_angle_beta   90.00005250
_cell_angle_gamma   90.00071217
_symmetry_Int_Tables_number   1
_chemical_formula_structural   AlH25C23O7
_chemical_formula_sum   'Al4 H100 C92 O28'
_cell_volume   3980.23144479
_cell_formula_units_Z   4
loop_
 _symmetry_equiv_pos_site_id
 _symmetry_equiv_pos_as_xyz
  1  'x, y, z'
loop_
 _atom_site_type_symbol
 _atom_site_label
 _atom_site_symmetry_multiplicity
 _atom_site_fract_x
 _atom_site_fract_y
 _atom_site_fract_z
 _atom_site_occupancy
 _atom_site_pbe_bader_charge
 _atom_site_pbe_bader_spin_density
 _atom_site_pbe_cm5_charge
 _atom_site_pbe_ddec_charge
 _atom_site_pbe_ddec_spin_density
 _atom_site_pbe_ddec_sum_bond_order
 _atom_site_pbe_magmom
Al  Al0  1  0.85530938  0.50189926  0.50070593  1  2.500559  0  0.394688  1.637267  0  2.588628  0
Al  Al1  1  0.35530410  0.49810402  0.49929256  1  2.500859  0  0.394702  1.63733  0  2.588548  0
Al  Al2  1  0.26516619  0.00330543  0.00124520  1  2.499346  0  0.395018  1.63692  0  2.582943  0
Al  Al3  1  0.76515756  0.99670605  0.99874970  1  2.499453  0  0.395167  1.637073  0  2.582826  0
H  H4  1  0.38035916  0.81818847  0.84635577  1  0.05697  0  0.107841  0.123262  0  1.012853  0
H  H5  1  0.88025046  0.18182333  0.15368404  1  0.102607  0  0.107903  0.123624  0  1.012574  0
H  H6  1  0.74695459  0.84641016  0.80973585  1  0.080716  0  0.10112  0.107062  0  1.02249  0
H  H7  1  0.24680109  0.15358218  0.19024374  1  0.080514  0  0.101133  0.107047  0  1.02244  0
H  H8  1  0.73057516  0.91024711  0.87515990  1  0.133248  0  0.10972  0.111564  0  1.023142  0
H  H9  1  0.23054203  0.08976372  0.12480292  1  0.133713  0  0.109681  0.111547  0  1.023146  0
H  H10  1  0.81765095  0.74174246  0.81669236  1  0.059394  0  0.103065  0.1048  0  0.991326  0
H  H11  1  0.31772387  0.25832155  0.18327188  1  0.058968  0  0.10305  0.104799  0  0.991198  0
H  H12  1  0.83498093  0.67582210  0.75526287  1  0.0697  0  0.102444  0.104018  0  1.011185  0
H  H13  1  0.33515005  0.32423387  0.24471015  1  0.06932  0  0.102472  0.103975  0  1.011309  0
H  H14  1  0.35400285  0.76738300  0.67808559  1  0.064844  0  0.104629  0.11993  0  1.00531  0
H  H15  1  0.85368312  0.23252241  0.32199671  1  0.061392  0  0.104692  0.120122  0  1.005138  0
H  H16  1  0.41564627  0.69347902  0.64971700  1  0.050512  0  0.102773  0.113748  0  1.028228  0
H  H17  1  0.91560338  0.30649823  0.35029584  1  0.050486  0  0.10281  0.1139  0  1.027737  0
H  H18  1  0.80824853  0.58050144  0.62711575  1  0.1236  0  0.111559  0.117897  0  1.002658  0
H  H19  1  0.30824434  0.41949196  0.37289271  1  0.123642  0  0.111521  0.1179  0  1.002629  0
H  H20  1  0.79128186  0.64809000  0.68712205  1  0.0436  0  0.099238  0.100704  0  1.020772  0
H  H21  1  0.29123895  0.35189001  0.31289799  1  0.043318  0  0.09928  0.100816  0  1.020592  0
H  H22  1  0.10917975  0.77748483  0.33797971  1  0.028992  0  0.093237  0.097172  0  0.984477  0
H  H23  1  0.60905907  0.22252929  0.66201837  1  0.02877  0  0.093169  0.097059  0  0.984378  0
H  H24  1  0.08509034  0.84933371  0.26206352  1  0.042983  0  0.10147  0.037099  0  0.989887  0
H  H25  1  0.58523520  0.15066501  0.73793811  1  0.043923  0  0.101437  0.037042  0  0.989786  0
H  H26  1  0.75657490  0.75882297  0.19734976  1  0.057288  0  0.096906  0.100571  0  0.974468  0
H  H27  1  0.25651230  0.24114222  0.80264055  1  0.057573  0  0.096917  0.100477  0  0.974763  0
H  H28  1  0.76111329  0.80689039  0.24045066  1  0.027016  0  0.091716  0.088624  0  1.022694  0
H  H29  1  0.26120296  0.19311084  0.75950371  1  0.027434  0  0.091647  0.088511  0  1.02299  0
H  H30  1  0.78227214  0.73110636  0.31367476  1  0.028289  0  0.093054  0.092013  0  0.983137  0
H  H31  1  0.28222197  0.26895120  0.68633153  1  0.028943  0  0.092918  0.091896  0  0.983068  0
H  H32  1  0.79383350  0.68271910  0.27042357  1  0.050822  0  0.095126  0.09424  0  0.978825  0
H  H33  1  0.29391262  0.31730069  0.72961746  1  0.050646  0  0.095127  0.094258  0  0.978821  0
H  H34  1  0.09076134  0.72552827  0.16271602  1  0.005448  0  0.093082  0.089592  0  0.981468  0
H  H35  1  0.59065663  0.27448273  0.83727123  1  0.005537  0  0.093067  0.089565  0  0.981353  0
H  H36  1  0.35773544  0.68564999  0.25523575  1  0.017605  0  0.09533  0.097065  0  0.978896  0
H  H37  1  0.85780364  0.31432863  0.74476947  1  0.017596  0  0.095472  0.097347  0  0.979097  0
H  H38  1  0.13372512  0.65321523  0.23837797  1  0.033411  0  0.094768  0.093544  0  0.976162  0
H  H39  1  0.63385138  0.34679768  0.76162051  1  0.033147  0  0.094701  0.093521  0  0.976304  0
H  H40  1  0.63199550  0.84390009  0.96309283  1  0.054603  0  0.109001  0.081224  0  0.978543  0
H  H41  1  0.48467083  0.79611716  0.93384400  1  0.027667  0  0.093937  0.051442  0  0.997585  0
H  H42  1  0.34303292  0.85627390  0.02291194  1  0.072709  0  0.101861  0.109256  0  0.987207  0
H  H43  1  0.19267562  0.80960969  0.99387147  1  0.033887  0  0.087529  0.07852  0  0.980972  0
H  H44  1  0.44073049  0.72994161  0.02813050  1  -0.016365  0  0.080024  0.099118  0  1.013576  0
H  H45  1  0.34116211  0.75953736  0.08109120  1  0.042653  0  0.086859  0.113826  0  1.027111  0
H  H46  1  0.58910415  0.77760790  0.05705543  1  0.038873  0  0.087395  0.113947  0  1.000511  0
H  H47  1  0.13198595  0.15611597  0.03692731  1  0.05503  0  0.109084  0.08144  0  0.978593  0
H  H48  1  0.98463469  0.20390464  0.06616380  1  0.026671  0  0.094046  0.05155  0  0.997849  0
H  H49  1  0.84300558  0.14371421  0.97711776  1  0.072808  0  0.101902  0.109379  0  0.987169  0
H  H50  1  0.69264132  0.19038850  0.00614461  1  0.034891  0  0.087575  0.078564  0  0.980682  0
H  H51  1  0.94070602  0.27005140  0.97186957  1  -0.016026  0  0.080009  0.099083  0  1.01358  0
H  H52  1  0.84112240  0.24044148  0.91891641  1  0.041786  0  0.086863  0.113883  0  1.026994  0
H  H53  1  0.08906994  0.22237442  0.94295496  1  0.039187  0  0.087246  0.113837  0  1.000456  0
H  H54  1  0.70139906  0.66503081  0.54083453  1  0.060124  0  0.107672  0.079597  0  0.974408  0
H  H55  1  0.53808136  0.71219115  0.56612805  1  0.023387  0  0.091969  0.047847  0  1.001087  0
H  H56  1  0.42715081  0.64735020  0.47785064  1  0.085971  0  0.102184  0.110761  0  0.986204  0
H  H57  1  0.26639583  0.69518138  0.50214377  1  0.014492  0  0.087604  0.079052  0  0.980426  0
H  H58  1  0.51623679  0.77482197  0.46866009  1  0.001965  0  0.078359  0.096714  0  1.015306  0
H  H59  1  0.43223218  0.74206542  0.41608089  1  0.019684  0  0.085195  0.112145  0  1.022914  0
H  H60  1  0.67522829  0.72583992  0.44461201  1  0.015565  0  0.085961  0.111522  0  1.003186  0
H  H61  1  0.20139057  0.33496093  0.45917712  1  0.060357  0  0.107691  0.079579  0  0.974381  0
H  H62  1  0.03806302  0.28779738  0.43388876  1  0.023397  0  0.091983  0.047862  0  1.001058  0
H  H63  1  0.92716315  0.35264307  0.52216506  1  0.085795  0  0.102172  0.110782  0  0.986194  0
H  H64  1  0.76639525  0.30481337  0.49787271  1  0.014522  0  0.087532  0.078951  0  0.980338  0
H  H65  1  0.01622209  0.22517131  0.53135153  1  0.002122  0  0.078341  0.096734  0  1.015216  0
H  H66  1  0.93223723  0.25792473  0.58393400  1  0.019272  0  0.085213  0.112156  0  1.022987  0
H  H67  1  0.17523561  0.27414838  0.55539961  1  0.015578  0  0.085893  0.111452  0  1.003136  0
H  H68  1  0.32157121  0.75601568  0.17802781  1  0.074555  0  0.097484  0.099015  0  0.997369  0
H  H69  1  0.82151896  0.24399441  0.82199755  1  0.075283  0  0.09742  0.098981  0  0.997416  0
H  H70  1  0.59704832  0.88573629  0.23907679  1  0.0101  0  0.100914  0.066857  0  0.982177  0
H  H71  1  0.41450133  0.88115969  0.29111347  1  -0.013774  0  0.086115  0.039419  0  0.986716  0
H  H72  1  0.35273134  0.93829998  0.17284624  1  0.044154  0  0.101102  0.112743  0  0.961164  0
H  H73  1  0.16612764  0.93408922  0.22283402  1  0.01231  0  0.084623  0.071799  0  1.008  0
H  H74  1  0.40687200  0.98664029  0.27560268  1  -0.01962  0  0.078272  0.09416  0  1.026748  0
H  H75  1  0.33185007  0.02748735  0.21286074  1  0.031858  0  0.083868  0.114474  0  1.047102  0
H  H76  1  0.57480274  0.99641526  0.21993328  1  0.014769  0  0.086037  0.115833  0  1.001435  0
H  H77  1  0.09737842  0.11441797  0.76087892  1  0.009185  0  0.100795  0.066677  0  0.982428  0
H  H78  1  0.91484257  0.11897167  0.70884262  1  -0.015305  0  0.086344  0.039674  0  0.986875  0
H  H79  1  0.85316998  0.06177127  0.82709518  1  0.044959  0  0.100847  0.112697  0  0.961136  0
H  H80  1  0.66663955  0.06592527  0.77709152  1  0.016746  0  0.084488  0.071705  0  1.008354  0
H  H81  1  0.90774658  0.01346808  0.72433327  1  -0.022729  0  0.077924  0.094055  0  1.026969  0
H  H82  1  0.83286790  0.97257955  0.78707545  1  0.031462  0  0.083991  0.114671  0  1.047159  0
H  H83  1  0.07565241  0.00376630  0.78000128  1  0.011897  0  0.085879  0.115143  0  1.002215  0
H  H84  1  0.34504353  0.75766530  0.31382385  1  0.038793  0  0.100199  0.108775  0  0.991129  0
H  H85  1  0.84497753  0.24234832  0.68614221  1  0.038938  0  0.100228  0.108619  0  0.991275  0
H  H86  1  0.16076156  0.90275687  0.73401200  1  0.038947  0  0.096222  0.059286  0  1.001279  0
H  H87  1  0.28415595  0.89641365  0.67312352  1  0.020999  0  0.091764  0.050532  0  0.972385  0
H  H88  1  0.47061852  0.93741093  0.76891287  1  0.041474  0  0.094162  0.091678  0  0.972781  0
H  H89  1  0.61536054  0.92233238  0.71521382  1  0.048779  0  0.093624  0.087762  0  0.973488  0
H  H90  1  0.42623951  0.99682569  0.64999950  1  0.026279  0  0.083036  0.10633  0  1.00719  0
H  H91  1  0.53469597  0.02668619  0.70162708  1  0.034858  0  0.085906  0.116414  0  1.022851  0
H  H92  1  0.27232242  0.01133591  0.70266335  1  0.037688  0  0.083545  0.107203  0  1.040363  0
H  H93  1  0.65995957  0.09720424  0.26595864  1  0.037075  0  0.096086  0.059058  0  1.000815  0
H  H94  1  0.78317938  0.10345062  0.32689689  1  0.020565  0  0.091784  0.050719  0  0.972515  0
H  H95  1  0.96966172  0.06242748  0.23112791  1  0.042106  0  0.094376  0.091856  0  0.972513  0
H  H96  1  0.11442481  0.07748765  0.28482683  1  0.00858  0  0.093427  0.087279  0  0.973854  0
H  H97  1  0.92521809  0.00303190  0.35004536  1  0.024786  0  0.082968  0.106198  0  1.006635  0
H  H98  1  0.03349541  0.97314779  0.29841041  1  0.036924  0  0.085968  0.116191  0  1.023033  0
H  H99  1  0.77116449  0.98855282  0.29739282  1  0.034192  0  0.082966  0.106285  0  1.040894  0
H  H100  1  0.59265192  0.55870174  0.52771418  1  0.635267  0  0.346202  0.420342  0  0.887032  0
H  H101  1  0.09263961  0.44130029  0.47228386  1  0.635546  0  0.346243  0.420378  0  0.887001  0
H  H102  1  0.49517737  0.94244788  0.97120448  1  0.648714  0  0.341963  0.414141  0  0.905039  0
H  H103  1  0.99518529  0.05756121  0.02879726  1  0.648318  0  0.342117  0.41432  0  0.904942  0
C  C104  1  0.51964312  0.08015725  0.92441701  1  1.669819  0  0.268388  0.707709  0  4.183517  0
C  C105  1  0.01969100  0.91985112  0.07557302  1  1.669948  0  0.268347  0.70781  0  4.183674  0
C  C106  1  0.60824885  0.41921206  0.57475183  1  1.661942  0  0.267264  0.706603  0  4.186764  0
C  C107  1  0.10828705  0.58079741  0.42524664  1  1.66481  0  0.267544  0.707187  0  4.185785  0
C  C108  1  0.61108049  0.44304617  0.43210127  1  1.570848  0  0.270955  0.660824  0  4.091402  0
C  C109  1  0.11106066  0.55695533  0.56789957  1  1.570073  0  0.271043  0.661192  0  4.091085  0
C  C110  1  0.22850021  0.87392272  0.88926857  1  0.449486  0  0.094577  0.257102  0  4.017736  0
C  C111  1  0.72846944  0.12609527  0.11074118  1  0.5008  0  0.094764  0.257419  0  4.017647  0
C  C112  1  0.23706000  0.83828054  0.85241404  1  0.014408  0  -0.100481  -0.257161  0  3.961927  0
C  C113  1  0.73697060  0.16172949  0.14760770  1  -0.032141  0  -0.100592  -0.257877  0  3.962057  0
C  C114  1  0.06586010  0.82819132  0.82331302  1  0.031787  0  -0.003  0.112613  0  4.034939  0
C  C115  1  0.56571764  0.17180751  0.17669903  1  0.029657  0  -0.002919  0.113208  0  4.035115  0
C  C116  1  0.88111264  0.85360141  0.83244335  1  -0.08512  0  -0.099284  -0.169661  0  3.993971  0
C  C117  1  0.38098646  0.14640633  0.16753913  1  -0.085195  0  -0.099365  -0.170029  0  3.994635  0
C  C118  1  0.87252864  0.88977869  0.86830420  1  -0.035828  0  -0.080094  -0.068783  0  4.017364  0
C  C119  1  0.37247923  0.11023050  0.13167708  1  -0.036147  0  -0.08011  -0.068523  0  4.017642  0
C  C120  1  0.04457180  0.90162342  0.89648931  1  -0.009983  0  -0.023084  -0.160189  0  3.943661  0
C  C121  1  0.54455563  0.09839638  0.10350397  1  -0.060267  0  -0.023137  -0.160524  0  3.944153  0
C  C122  1  0.93484517  0.74733396  0.78589573  1  -0.027063  0  -0.088624  -0.106122  0  4.019254  0
C  C123  1  0.43479807  0.25268631  0.21410083  1  -0.025936  0  -0.088708  -0.106099  0  4.019455  0
C  C124  1  0.94437069  0.71022804  0.75084353  1  -0.030676  0  -0.098559  -0.143592  0  4.006289  0
C  C125  1  0.44437702  0.28978837  0.24915382  1  -0.030522  0  -0.098781  -0.143756  0  4.006723  0
C  C126  1  0.09554166  0.71566077  0.71122720  1  -0.048084  0  -0.009437  0.081858  0  4.01235  0
C  C127  1  0.59544594  0.28431678  0.28879760  1  -0.050102  0  -0.009291  0.081968  0  4.012481  0
C  C128  1  0.23631211  0.75987110  0.70868271  1  0.002383  0  -0.100815  -0.239538  0  3.9626  0
C  C129  1  0.73608823  0.24007043  0.29137565  1  0.007424  0  -0.100837  -0.239916  0  3.962243  0
C  C130  1  0.22919943  0.79642677  0.74453214  1  0.475563  0  0.078551  0.207484  0  4.051077  0
C  C131  1  0.72888884  0.20350877  0.25553262  1  0.476889  0  0.078892  0.207852  0  4.049602  0
C  C132  1  0.07736404  0.79078476  0.78424300  1  -0.008783  0  -0.015776  -0.03825  0  3.992013  0
C  C133  1  0.57716902  0.20919963  0.21578423  1  -0.009864  0  -0.015953  -0.038625  0  3.99214  0
C  C134  1  0.27923101  0.66967246  0.64473242  1  -0.073042  0  -0.10502  -0.263663  0  3.961158  0
C  C135  1  0.77919163  0.33031046  0.35528161  1  -0.072626  0  -0.105055  -0.263722  0  3.960826  0
C  C136  1  0.28893210  0.63142190  0.61017220  1  0.54394  0  0.094962  0.260101  0  4.022077  0
C  C137  1  0.78891439  0.36856661  0.38983544  1  0.542561  0  0.094858  0.259814  0  4.022735  0
C  C138  1  0.11806786  0.59779605  0.60437811  1  -0.027802  0  -0.022309  -0.156692  0  3.942577  0
C  C139  1  0.61806749  0.40219723  0.39562831  1  -0.027894  0  -0.02233  -0.156491  0  3.942621  0
C  C140  1  0.94154254  0.60517228  0.63290077  1  -0.03786  0  -0.080751  -0.068121  0  4.011356  0
C  C141  1  0.44152575  0.39481820  0.36711091  1  -0.03808  0  -0.0809  -0.068387  0  4.011399  0
C  C142  1  0.93292073  0.64341835  0.66660801  1  -0.009443  0  -0.10052  -0.156007  0  4.00183  0
C  C143  1  0.43288376  0.35656732  0.33340846  1  -0.008405  0  -0.100086  -0.15561  0  4.001551  0
C  C144  1  0.10337787  0.67623158  0.67376503  1  0.001448  0  -0.005629  0.09635  0  4.014305  0
C  C145  1  0.60332199  0.32375016  0.32625217  1  0.001993  0  -0.005885  0.096141  0  4.014488  0
C  C146  1  0.17095183  0.81325191  0.25300244  1  0.476291  0  0.012002  0.145317  0  3.788798  0
C  C147  1  0.67098689  0.18676972  0.74698927  1  0.476111  0  0.012139  0.145658  0  3.788743  0
C  C148  1  0.84329347  0.77116485  0.22990502  1  -0.032735  0  -0.156245  -0.191018  0  3.861449  0
C  C149  1  0.34329451  0.22883539  0.77007862  1  -0.033118  0  -0.156234  -0.190675  0  3.862049  0
C  C150  1  0.86168568  0.72167418  0.27861427  1  -0.042788  0  -0.154573  -0.189516  0  3.852998  0
C  C151  1  0.36170195  0.27835336  0.72139473  1  -0.043625  0  -0.154395  -0.189425  0  3.853218  0
C  C152  1  0.10872223  0.62664061  0.37908319  1  0.002675  0  -0.053301  -0.219533  0  3.988849  0
C  C153  1  0.60869313  0.37337459  0.62091370  1  0.003023  0  -0.052991  -0.219075  0  3.988176  0
C  C154  1  0.05522611  0.79135896  0.20816613  1  0.125391  0  -0.000766  0.110791  0  3.899969  0
C  C155  1  0.55522789  0.20864844  0.79182350  1  0.125  0  -0.000911  0.110145  0  3.90117  0
C  C156  1  0.18444419  0.76529737  0.30355637  1  -0.036774  0  -0.157371  -0.26806  0  3.837197  0
C  C157  1  0.68440062  0.23471816  0.69643131  1  -0.036602  0  -0.157209  -0.26763  0  3.837137  0
C  C158  1  0.08761803  0.71010791  0.29308744  1  0.134769  0  0.000866  0.179813  0  3.898259  0
C  C159  1  0.58763613  0.28990898  0.70691265  1  0.134345  0  0.00062  0.179595  0  3.899381  0
C  C160  1  0.19732532  0.69336148  0.24483789  1  0.001131  0  -0.1515  -0.182478  0  3.834111  0
C  C161  1  0.69737961  0.30664212  0.75516297  1  0.000993  0  -0.151544  -0.182956  0  3.83495  0
C  C162  1  0.17366843  0.74073320  0.19439844  1  -0.03547  0  -0.153422  -0.182695  0  3.845578  0
C  C163  1  0.67364546  0.25926976  0.80560482  1  -0.036243  0  -0.153234  -0.182197  0  3.845354  0
C  C164  1  0.10433464  0.66504856  0.34007830  1  -0.294313  0  -0.022257  -0.036534  0  4.033167  0
C  C165  1  0.60432395  0.33496760  0.65992741  1  -0.293547  0  -0.022354  -0.036696  0  4.032905  0
C  C166  1  0.03774660  0.83639327  0.16119122  1  -0.428251  0  -0.016625  -0.020123  0  4.039186  0
C  C167  1  0.53775294  0.16360783  0.83879077  1  -0.429569  0  -0.016719  -0.020123  0  4.039668  0
C  C168  1  0.02466428  0.87435888  0.12198748  1  0.140905  0  -0.051137  -0.221937  0  3.980943  0
C  C169  1  0.52465877  0.12563838  0.87799088  1  0.142365  0  -0.051075  -0.2217  0  3.981016  0
C  C170  1  0.52460172  0.05765147  0.06721297  1  1.572265  0  0.270475  0.659359  0  4.094715  0
C  C171  1  0.02454727  0.94236725  0.93277910  1  1.571709  0  0.270539  0.659318  0  4.09425  0
C  C172  1  0.47678927  0.83239658  0.95405648  1  0.422411  0  -0.065605  0.030351  0  3.877054  0
C  C173  1  0.34900870  0.81875946  0.00465013  1  -0.067286  0  -0.17191  -0.140732  0  3.959867  0
C  C174  1  0.43488188  0.76855718  0.04481591  1  -0.051214  0  -0.242788  -0.343407  0  3.973631  0
C  C175  1  0.97677070  0.16762080  0.04595812  1  0.422962  0  -0.065778  0.03015  0  3.877693  0
C  C176  1  0.84897595  0.18123643  0.99536877  1  -0.068629  0  -0.171967  -0.14088  0  3.959935  0
C  C177  1  0.93484916  0.23142926  0.95519135  1  -0.050839  0  -0.242631  -0.343327  0  3.973387  0
C  C178  1  0.54198944  0.67501330  0.54708147  1  0.405541  0  -0.063943  0.03346  0  3.888813  0
C  C179  1  0.42589024  0.68603950  0.49439002  1  -0.021778  0  -0.172113  -0.144806  0  3.964135  0
C  C180  1  0.51752459  0.73502986  0.45383579  1  -0.046645  0  -0.242604  -0.342099  0  3.979715  0
C  C181  1  0.04197928  0.32497855  0.45292975  1  0.404459  0  -0.063988  0.033633  0  3.889185  0
C  C182  1  0.92589584  0.31395635  0.50562329  1  -0.021746  0  -0.172002  -0.144731  0  3.963998  0
C  C183  1  0.01752121  0.26496242  0.54617663  1  -0.04591  0  -0.24261  -0.342147  0  3.979553  0
C  C184  1  0.43336991  0.88349403  0.24750272  1  0.474467  0  -0.070334  0.035734  0  3.945433  0
C  C185  1  0.33080964  0.93653861  0.21591077  1  0.008568  0  -0.173694  -0.149151  0  3.973998  0
C  C186  1  0.41543529  0.98957247  0.23197932  1  -0.035557  0  -0.248619  -0.355416  0  3.977344  0
C  C187  1  0.93369247  0.11662365  0.75245572  1  0.475  0  -0.070835  0.0353  0  3.947073  0
C  C188  1  0.83131385  0.06353894  0.78402787  1  0.004113  0  -0.173058  -0.149012  0  3.974457  0
C  C189  1  0.91624880  0.01053698  0.76795945  1  -0.028733  0  -0.248227  -0.354727  0  3.977657  0
C  C190  1  0.30743950  0.89432687  0.71643777  1  0.418891  0  -0.066861  0.0416  0  3.895309  0
C  C191  1  0.46572342  0.93684223  0.72586217  1  -0.030316  0  -0.167782  -0.130938  0  3.975829  0
C  C192  1  0.42213411  0.99613945  0.69325359  1  -0.099747  0  -0.245054  -0.356514  0  3.973842  0
C  C193  1  0.80661782  0.10555901  0.28358673  1  0.420022  0  -0.066423  0.041305  0  3.894246  0
C  C194  1  0.96476316  0.06299647  0.27417902  1  0.006189  0  -0.167889  -0.130556  0  3.976438  0
C  C195  1  0.92102839  0.00371179  0.30679365  1  -0.093663  0  -0.244497  -0.355129  0  3.973931  0
O  O196  1  0.43579059  0.45629596  0.44676527  1  -1.264858  0  -0.23531  -0.595005  0  2.341809  0
O  O197  1  0.93576295  0.54368498  0.55325198  1  -1.264904  0  -0.235399  -0.595106  0  2.341675  0
O  O198  1  0.78036489  0.43877736  0.55766272  1  -1.237694  0  -0.231954  -0.58516  0  2.302749  0
O  O199  1  0.28039339  0.56121849  0.44232250  1  -1.238667  0  -0.232047  -0.585307  0  2.302484  0
O  O200  1  0.77617731  0.46194597  0.44673610  1  -1.257553  0  -0.229723  -0.588952  0  2.399594  0
O  O201  1  0.27615116  0.53807250  0.55324600  1  -1.25708  0  -0.229653  -0.589158  0  2.3997  0
O  O202  1  0.93527180  0.56500858  0.44469184  1  -1.238283  0  -0.232062  -0.578293  0  2.282845  0
O  O203  1  0.43522669  0.43501560  0.55532477  1  -1.237359  0  -0.232018  -0.578075  0  2.283263  0
O  O204  1  0.18502580  0.96369998  0.94729105  1  -1.267828  0  -0.229353  -0.59078  0  2.420021  0
O  O205  1  0.68506479  0.03628644  0.05273701  1  -1.267884  0  -0.229452  -0.590935  0  2.419792  0
O  O206  1  0.60261801  0.53399570  0.50202709  1  -1.438579  0  -0.45031  -0.987958  0  2.199331  0
O  O207  1  0.10261203  0.46600806  0.49796895  1  -1.438807  0  -0.450319  -0.987942  0  2.199219  0
O  O208  1  0.34680206  0.06607015  0.94494384  1  -1.236554  0  -0.233816  -0.580332  0  2.279966  0
O  O209  1  0.84688064  0.93391940  0.05502052  1  -1.23641  0  -0.23366  -0.580226  0  2.28043  0
O  O210  1  0.51050526  0.96589765  0.99791625  1  -1.453149  0  -0.452337  -0.987543  0  2.197184  0
O  O211  1  0.01051153  0.03411714  0.00208021  1  -1.452687  0  -0.452556  -0.987763  0  2.197383  0
O  O212  1  0.69079885  0.05896897  0.94069208  1  -1.236569  0  -0.231564  -0.587817  0  2.304039  0
O  O213  1  0.19083677  0.94107262  0.05933017  1  -1.237248  0  -0.231616  -0.587874  0  2.304078  0
O  O214  1  0.34634635  0.04636691  0.05299471  1  -1.259015  0  -0.235585  -0.59243  0  2.334594  0
O  O215  1  0.84629190  0.95367300  0.94696864  1  -1.259147  0  -0.235759  -0.59262  0  2.334126  0
O  O216  1  0.40121077  0.88196285  0.91705811  1  -1.06964  0  -0.191878  -0.23451  0  2.533302  0
O  O217  1  0.90121796  0.11805671  0.08297131  1  -1.068912  0  -0.19201  -0.234723  0  2.533005  0
O  O218  1  0.46633981  0.62547853  0.58371719  1  -1.073946  0  -0.192046  -0.229774  0  2.535029  0
O  O219  1  0.96631591  0.37450835  0.41629448  1  -1.073634  0  -0.19193  -0.229822  0  2.53561  0
O  O220  1  0.36757928  0.83179522  0.23364607  1  -1.043201  0  -0.227514  -0.260018  0  2.47057  0
O  O221  1  0.86765763  0.16827601  0.76634706  1  -1.043142  0  -0.227361  -0.259915  0  2.471309  0
O  O222  1  0.37633953  0.83799195  0.74060463  1  -1.087793  0  -0.210239  -0.254993  0  2.512405  0
O  O223  1  0.87583421  0.16188814  0.25948600  1  -1.086331  0  -0.210552  -0.254838  0  2.511312  0
