# generated using pymatgen
data_CdB2H12C4(N8O)2
_symmetry_space_group_name_H-M   'P 1'
_cell_length_a   10.14631280
_cell_length_b   8.93445494
_cell_length_c   10.27042403
_cell_angle_alpha   115.59336700
_cell_angle_beta   89.99889140
_cell_angle_gamma   89.99509468
_symmetry_Int_Tables_number   1
_chemical_formula_structural   CdB2H12C4(N8O)2
_chemical_formula_sum   'Cd2 B4 H24 C8 N32 O4'
_cell_volume   839.68164854
_cell_formula_units_Z   2
loop_
 _symmetry_equiv_pos_site_id
 _symmetry_equiv_pos_as_xyz
  1  'x, y, z'
loop_
 _atom_site_type_symbol
 _atom_site_label
 _atom_site_symmetry_multiplicity
 _atom_site_fract_x
 _atom_site_fract_y
 _atom_site_fract_z
 _atom_site_occupancy
 _atom_site_hle17_bader_spin_density
 _atom_site_hle17_ddec_charge
 _atom_site_hle17_ddec_spin_density
 _atom_site_hle17_ddec_sum_bond_order
 _atom_site_hle17_magmom
 _atom_site_hse06_10hf_bader_spin_density
 _atom_site_hse06_10hf_ddec_charge
 _atom_site_hse06_10hf_ddec_spin_density
 _atom_site_hse06_10hf_ddec_sum_bond_order
 _atom_site_hse06_10hf_magmom
 _atom_site_hse06_bader_spin_density
 _atom_site_hse06_ddec_charge
 _atom_site_hse06_ddec_spin_density
 _atom_site_hse06_ddec_sum_bond_order
 _atom_site_hse06_magmom
 _atom_site_pbe_bader_spin_density
 _atom_site_pbe_cm5_charge
 _atom_site_pbe_ddec_charge
 _atom_site_pbe_ddec_spin_density
 _atom_site_pbe_ddec_sum_bond_order
 _atom_site_pbe_magmom
Cd  Cd0  1  0.85280888  0.74854478  0.99724998  1  0  1.065478  0  1.783753  0  0  0.866359  0  2.231693  0  0  0.916165  0  2.187032  0  0  0.801628  0.831221  0  2.262425  0
Cd  Cd1  1  0.35276265  0.25146840  0.00295045  1  0  1.06561  0  1.783259  0  0  0.866499  0  2.231191  0  0  0.916308  0  2.18653  0  0  0.801517  0.831354  0  2.261931  0
B  B2  1  0.10453006  0.82399605  0.50013852  1  0  0.318943  0  3.326475  0  0  0.130589  0  3.651021  0  0  0.146441  0  3.655552  0  0  -0.229735  0.120518  0  3.646735  0
B  B3  1  0.10245965  0.31134013  0.49893167  1  0  0.329642  0  3.308412  0  0  0.142062  0  3.63067  0  0  0.158687  0  3.634174  0  0  -0.220162  0.131344  0  3.627173  0
B  B4  1  0.60267984  0.68871487  0.50117272  1  0  0.330059  0  3.307694  0  0  0.142281  0  3.630106  0  0  0.158896  0  3.633618  0  0  -0.219816  0.131567  0  3.626605  0
B  B5  1  0.60429844  0.17615453  0.50014956  1  0  0.319023  0  3.327488  0  0  0.130543  0  3.65219  0  0  0.146367  0  3.656781  0  0  -0.229733  0.120477  0  3.64789  0
H  H6  1  0.00731134  0.88469954  0.47495818  1  0  -0.177837  0  0.950624  0  0  -0.138931  0  1.048445  0  0  -0.143258  0  1.049197  0  0  0.047604  -0.135982  0  1.047728  0
H  H7  1  0.00418502  0.39513296  0.51879538  1  0  -0.181856  0  0.941959  0  0  -0.142054  0  1.038121  0  0  -0.146469  0  1.038536  0  0  0.043166  -0.138976  0  1.037669  0
H  H8  1  0.50446338  0.60487163  0.48141779  1  0  -0.182114  0  0.942037  0  0  -0.142181  0  1.038164  0  0  -0.146596  0  1.038581  0  0  0.043131  -0.139101  0  1.037704  0
H  H9  1  0.50703370  0.11561061  0.52541805  1  0  -0.177773  0  0.950805  0  0  -0.138676  0  1.048326  0  0  -0.142993  0  1.049075  0  0  0.047695  -0.135725  0  1.047604  0
H  H10  1  0.20245175  0.90850641  0.52521274  1  0  -0.177505  0  0.948415  0  0  -0.138427  0  1.046354  0  0  -0.142715  0  1.047006  0  0  0.047503  -0.135393  0  1.045635  0
H  H11  1  0.20040523  0.37580584  0.47888134  1  0  -0.182122  0  0.943087  0  0  -0.142302  0  1.039071  0  0  -0.146712  0  1.03953  0  0  0.043289  -0.139143  0  1.038506  0
H  H12  1  0.70070791  0.62434530  0.52118525  1  0  -0.18221  0  0.942776  0  0  -0.142353  0  1.038699  0  0  -0.146773  0  1.03918  0  0  0.043156  -0.139188  0  1.03812  0
H  H13  1  0.70217005  0.09155197  0.47512388  1  0  -0.177764  0  0.949104  0  0  -0.138647  0  1.046999  0  0  -0.142933  0  1.047654  0  0  0.047429  -0.135612  0  1.046284  0
H  H14  1  0.86557288  0.83542261  0.67316077  1  0  0.116637  0  0.953927  0  0  0.117106  0  1.030863  0  0  0.120656  0  1.026339  0  0  0.14809  0.114063  0  1.03486  0
H  H15  1  0.87298868  0.16005801  0.30944422  1  0  0.106058  0  0.969313  0  0  0.104471  0  1.050157  0  0  0.108211  0  1.045263  0  0  0.141888  0.101251  0  1.054599  0
H  H16  1  0.37331096  0.83943298  0.69095593  1  0  0.105985  0  0.969717  0  0  0.10473  0  1.050183  0  0  0.108504  0  1.045258  0  0  0.142008  0.101484  0  1.054643  0
H  H17  1  0.36539802  0.16481277  0.32705621  1  0  0.116355  0  0.954796  0  0  0.116889  0  1.031721  0  0  0.120438  0  1.027213  0  0  0.14809  0.113842  0  1.035724  0
H  H18  1  0.34254779  0.65907992  0.32689385  1  0  0.116132  0  0.954084  0  0  0.116846  0  1.030707  0  0  0.120171  0  1.026438  0  0  0.147854  0.113948  0  1.034637  0
H  H19  1  0.33187054  0.35326442  0.68962771  1  0  0.106526  0  0.969248  0  0  0.105037  0  1.049733  0  0  0.108855  0  1.044763  0  0  0.142246  0.101771  0  1.054132  0
H  H20  1  0.83200110  0.64720912  0.31046200  1  0  0.106472  0  0.969043  0  0  0.105037  0  1.049508  0  0  0.108858  0  1.04453  0  0  0.142277  0.101773  0  1.053905  0
H  H21  1  0.84232361  0.34071605  0.67346961  1  0  0.116414  0  0.953924  0  0  0.117257  0  1.030298  0  0  0.120581  0  1.02603  0  0  0.148175  0.114377  0  1.034201  0
H  H22  1  0.02183991  0.48686018  0.02874697  1  0  0.409247  0  0.875405  0  0  0.375933  0  0.956778  0  0  0.385267  0  0.943333  0  0  0.303389  0.369363  0  0.966317  0
H  H23  1  0.52179362  0.51314730  0.97139892  1  0  0.409133  0  0.875849  0  0  0.375836  0  0.956747  0  0  0.385159  0  0.943321  0  0  0.303347  0.369277  0  0.966269  0
H  H24  1  0.09684933  0.64058380  0.03030065  1  0  0.410459  0  0.858927  0  0  0.3726  0  0.954263  0  0  0.382767  0  0.941802  0  0  0.303688  0.365346  0  0.963067  0
H  H25  1  0.59657760  0.35831217  0.96791110  1  0  0.410774  0  0.859252  0  0  0.372765  0  0.954891  0  0  0.382966  0  0.942365  0  0  0.303683  0.365487  0  0.963735  0
H  H26  1  0.68345233  0.04078802  0.02805489  1  0  0.411228  0  0.872718  0  0  0.378066  0  0.953406  0  0  0.387326  0  0.940023  0  0  0.304287  0.371619  0  0.962732  0
H  H27  1  0.18315073  0.95950005  0.97213996  1  0  0.410642  0  0.873115  0  0  0.377453  0  0.954162  0  0  0.386702  0  0.940794  0  0  0.303591  0.371016  0  0.963473  0
H  H28  1  0.61022782  0.89371821  0.04151317  1  0  0.408054  0  0.867196  0  0  0.369177  0  0.963918  0  0  0.379486  0  0.951329  0  0  0.301249  0.361816  0  0.972863  0
H  H29  1  0.11037051  0.10603835  0.95712696  1  0  0.40671  0  0.869867  0  0  0.368001  0  0.96677  0  0  0.378377  0  0.953435  0  0  0.300403  0.360625  0  0.975734  0
C  C30  1  0.95982982  0.80160729  0.70309672  1  0  0.198709  0  3.621167  0  0  0.133755  0  3.885836  0  0  0.146353  0  3.898368  0  0  0.188433  0.125565  0  3.877818  0
C  C31  1  0.96461405  0.09026546  0.28817021  1  0  0.202751  0  3.631428  0  0  0.138902  0  3.894955  0  0  0.1516  0  3.907459  0  0  0.183354  0.130679  0  3.886972  0
C  C32  1  0.46478362  0.90948875  0.71209401  1  0  0.202978  0  3.632982  0  0  0.138661  0  3.896836  0  0  0.151326  0  3.909268  0  0  0.183277  0.130465  0  3.888901  0
C  C33  1  0.45971008  0.19843245  0.29707349  1  0  0.199691  0  3.621381  0  0  0.134564  0  3.886138  0  0  0.147188  0  3.898601  0  0  0.188664  0.126366  0  3.878127  0
C  C34  1  0.24753666  0.59750798  0.29670057  1  0  0.19919  0  3.620284  0  0  0.133936  0  3.88579  0  0  0.146662  0  3.898389  0  0  0.188364  0.125478  0  3.877865  0
C  C35  1  0.24084119  0.30308575  0.71053643  1  0  0.20323  0  3.63215  0  0  0.139022  0  3.896376  0  0  0.151661  0  3.908796  0  0  0.184247  0.130917  0  3.888202  0
C  C36  1  0.74086378  0.69716835  0.28953602  1  0  0.202605  0  3.631859  0  0  0.138351  0  3.895924  0  0  0.150991  0  3.90834  0  0  0.183606  0.13024  0  3.887758  0
C  C37  1  0.74740466  0.40254563  0.70352126  1  0  0.198717  0  3.620671  0  0  0.133532  0  3.885945  0  0  0.146267  0  3.898505  0  0  0.188141  0.125078  0  3.877997  0
N  N38  1  0.07362730  0.78877464  0.63265160  1  0  -0.100858  0  3.470228  0  0  -0.00391  0  3.709442  0  0  -0.01943  0  3.732513  0  0  -0.096999  0.005866  0  3.693959  0
N  N39  1  0.07595147  0.14327064  0.36462274  1  0  -0.104877  0  3.446572  0  0  -0.005103  0  3.682045  0  0  -0.020646  0  3.704636  0  0  -0.096979  0.005187  0  3.666578  0
N  N40  1  0.57607315  0.85679562  0.63548090  1  0  -0.104602  0  3.447141  0  0  -0.004752  0  3.682771  0  0  -0.0203  0  3.705385  0  0  -0.096886  0.005542  0  3.667287  0
N  N41  1  0.57347830  0.21119673  0.36754175  1  0  -0.101439  0  3.470281  0  0  -0.004647  0  3.709781  0  0  -0.020143  0  3.732836  0  0  -0.097608  0.005123  0  3.694317  0
N  N42  1  0.16921842  0.75185355  0.70570930  1  0  -0.069351  0  2.902544  0  0  -0.066862  0  3.180763  0  0  -0.065363  0  3.190656  0  0  -0.056043  -0.067699  0  3.174874  0
N  N43  1  0.16824742  0.02322532  0.30329870  1  0  -0.056828  0  2.875262  0  0  -0.056508  0  3.15889  0  0  -0.054656  0  3.168416  0  0  -0.053769  -0.057497  0  3.152963  0
N  N44  1  0.66815354  0.97713534  0.69659536  1  0  -0.056698  0  2.874862  0  0  -0.05657  0  3.158507  0  0  -0.05469  0  3.168022  0  0  -0.053763  -0.057583  0  3.152584  0
N  N45  1  0.66915175  0.24780119  0.29437839  1  0  -0.068788  0  2.901797  0  0  -0.066124  0  3.179795  0  0  -0.064638  0  3.189669  0  0  -0.055239  -0.066955  0  3.17392  0
N  N46  1  0.11509459  0.74255182  0.81679158  1  0  -0.095167  0  2.990229  0  0  -0.081616  0  3.280461  0  0  -0.080911  0  3.290421  0  0  -0.088436  -0.081764  0  3.273625  0
N  N47  1  0.11348498  0.90153469  0.19446790  1  0  -0.096673  0  2.997679  0  0  -0.087197  0  3.29906  0  0  -0.086311  0  3.308836  0  0  -0.087374  -0.087388  0  3.292119  0
N  N48  1  0.61327713  0.09871998  0.80543483  1  0  -0.096429  0  2.998275  0  0  -0.08649  0  3.299275  0  0  -0.08567  0  3.309073  0  0  -0.08684  -0.086638  0  3.292314  0
N  N49  1  0.61511314  0.25698496  0.18320999  1  0  -0.094938  0  2.989535  0  0  -0.08154  0  3.279651  0  0  -0.080821  0  3.289601  0  0  -0.088911  -0.081695  0  3.272816  0
N  N50  1  0.98328365  0.77333780  0.81800920  1  0  -0.303673  0  3.138189  0  0  -0.238513  0  3.426146  0  0  -0.257456  0  3.442094  0  0  -0.237499  -0.225553  0  3.414824  0
N  N51  1  0.98581921  0.94033415  0.18188658  1  0  -0.322365  0  3.183898  0  0  -0.257331  0  3.477279  0  0  -0.276442  0  3.4932  0  0  -0.242375  -0.244301  0  3.46595  0
N  N52  1  0.48576916  0.05956170  0.81824694  1  0  -0.323052  0  3.184294  0  0  -0.258085  0  3.477726  0  0  -0.277188  0  3.493664  0  0  -0.242748  -0.245064  0  3.466385  0
N  N53  1  0.48326447  0.22642932  0.18203978  1  0  -0.304724  0  3.13776  0  0  -0.239525  0  3.425902  0  0  -0.258476  0  3.441835  0  0  -0.237696  -0.226549  0  3.414594  0
N  N54  1  0.13418115  0.65674633  0.36743926  1  0  -0.09894  0  3.466167  0  0  -0.002212  0  3.705625  0  0  -0.017684  0  3.728593  0  0  -0.09626  0.007921  0  3.689835  0
N  N55  1  0.12963802  0.27737122  0.63344577  1  0  -0.104793  0  3.447607  0  0  -0.004855  0  3.68355  0  0  -0.020442  0  3.706158  0  0  -0.096869  0.005152  0  3.66824  0
N  N56  1  0.62968076  0.72265316  0.36662777  1  0  -0.10501  0  3.447657  0  0  -0.004865  0  3.683277  0  0  -0.020441  0  3.705872  0  0  -0.096889  0.005135  0  3.667971  0
N  N57  1  0.63403937  0.34346791  0.63273581  1  0  -0.099346  0  3.46665  0  0  -0.002715  0  3.70635  0  0  -0.018182  0  3.729341  0  0  -0.096544  0.007422  0  3.690563  0
N  N58  1  0.03742479  0.54948694  0.29414450  1  0  -0.068427  0  2.903035  0  0  -0.065769  0  3.180852  0  0  -0.064307  0  3.190778  0  0  -0.055047  -0.066391  0  3.174657  0
N  N59  1  0.03848256  0.21620199  0.69427335  1  0  -0.055092  0  2.872207  0  0  -0.056207  0  3.155872  0  0  -0.054078  0  3.165294  0  0  -0.053772  -0.057291  0  3.150169  0
N  N60  1  0.53834531  0.78351305  0.30572158  1  0  -0.054783  0  2.8717  0  0  -0.055829  0  3.155316  0  0  -0.053723  0  3.16474  0  0  -0.053966  -0.05689  0  3.149608  0
N  N61  1  0.53738261  0.45106650  0.70582975  1  0  -0.067947  0  2.902947  0  0  -0.065307  0  3.181017  0  0  -0.063853  0  3.190949  0  0  -0.055308  -0.06593  0  3.174818  0
N  N62  1  0.09036703  0.42918379  0.18268761  1  0  -0.094696  0  2.992919  0  0  -0.081043  0  3.282034  0  0  -0.080306  0  3.292013  0  0  -0.08873  -0.081065  0  3.27521  0
N  N63  1  0.09392182  0.20405559  0.80343547  1  0  -0.096119  0  3.006611  0  0  -0.083657  0  3.305583  0  0  -0.083207  0  3.315523  0  0  -0.084516  -0.083645  0  3.298784  0
N  N64  1  0.59364480  0.79567501  0.19649506  1  0  -0.096269  0  3.004446  0  0  -0.084275  0  3.303645  0  0  -0.083752  0  3.31359  0  0  -0.084277  -0.0843  0  3.296863  0
N  N65  1  0.59039215  0.57140746  0.81720337  1  0  -0.095109  0  2.992567  0  0  -0.081575  0  3.281823  0  0  -0.080831  0  3.291809  0  0  -0.088229  -0.081605  0  3.274993  0
N  N66  1  0.22261503  0.45598568  0.18141231  1  0  -0.303085  0  3.13557  0  0  -0.238202  0  3.424075  0  0  -0.257169  0  3.439921  0  0  -0.236688  -0.225267  0  3.412849  0
N  N67  1  0.22072623  0.25835559  0.81676492  1  0  -0.3224  0  3.180725  0  0  -0.257771  0  3.473093  0  0  -0.276763  0  3.489091  0  0  -0.243106  -0.24468  0  3.461708  0
N  N68  1  0.72055324  0.74169557  0.18322020  1  0  -0.322191  0  3.180797  0  0  -0.257536  0  3.473395  0  0  -0.276538  0  3.48937  0  0  -0.243107  -0.244435  0  3.462016  0
N  N69  1  0.72257422  0.54428189  0.81863290  1  0  -0.303051  0  3.136737  0  0  -0.23826  0  3.425321  0  0  -0.257205  0  3.441178  0  0  -0.236937  -0.225336  0  3.414096  0
O  O70  1  0.02482878  0.56274679  0.98242099  1  0  -0.793548  0  1.915876  0  0  -0.736715  0  2.135175  0  0  -0.757046  0  2.108652  0  0  -0.577135  -0.722534  0  2.153578  0
O  O71  1  0.52508588  0.43658591  0.01699920  1  0  -0.794054  0  1.915776  0  0  -0.736991  0  2.135106  0  0  -0.757317  0  2.108526  0  0  -0.577522  -0.722806  0  2.153542  0
O  O72  1  0.67881400  0.91924949  0.98645030  1  0  -0.795112  0  1.917263  0  0  -0.737439  0  2.137184  0  0  -0.757769  0  2.110469  0  0  -0.577948  -0.72322  0  2.155794  0
O  O73  1  0.17838270  0.08097763  0.01311806  1  0  -0.793835  0  1.919495  0  0  -0.736693  0  2.1388  0  0  -0.757033  0  2.111493  0  0  -0.577006  -0.722476  0  2.157401  0
