# generated using pymatgen
data_TlH(CO2)2
_symmetry_space_group_name_H-M   'P 1'
_cell_length_a   6.39273207
_cell_length_b   6.49539106
_cell_length_c   10.28584438
_cell_angle_alpha   90.00006085
_cell_angle_beta   94.06954744
_cell_angle_gamma   90.00023611
_symmetry_Int_Tables_number   1
_chemical_formula_structural   TlH(CO2)2
_chemical_formula_sum   'Tl4 H4 C8 O16'
_cell_volume   426.02527059
_cell_formula_units_Z   4
loop_
 _symmetry_equiv_pos_site_id
 _symmetry_equiv_pos_as_xyz
  1  'x, y, z'
loop_
 _atom_site_type_symbol
 _atom_site_label
 _atom_site_symmetry_multiplicity
 _atom_site_fract_x
 _atom_site_fract_y
 _atom_site_fract_z
 _atom_site_occupancy
 _atom_site_hle17_bader_spin_density
 _atom_site_hle17_ddec_charge
 _atom_site_hle17_ddec_spin_density
 _atom_site_hle17_ddec_sum_bond_order
 _atom_site_hle17_magmom
 _atom_site_hse06_10hf_bader_spin_density
 _atom_site_hse06_10hf_ddec_charge
 _atom_site_hse06_10hf_ddec_spin_density
 _atom_site_hse06_10hf_ddec_sum_bond_order
 _atom_site_hse06_10hf_magmom
 _atom_site_hse06_bader_spin_density
 _atom_site_hse06_ddec_charge
 _atom_site_hse06_ddec_spin_density
 _atom_site_hse06_ddec_sum_bond_order
 _atom_site_hse06_magmom
 _atom_site_pbe_bader_spin_density
 _atom_site_pbe_cm5_charge
 _atom_site_pbe_ddec_charge
 _atom_site_pbe_ddec_spin_density
 _atom_site_pbe_ddec_sum_bond_order
 _atom_site_pbe_magmom
Tl  Tl0  1  0.45286319  0.46664587  0.20771470  1  0  0.907327  0  0.785604  0  0  0.803726  0  1.074586  0  0  0.832772  0  1.051007  0  0  0.422684  0.781199  0  1.093015  0
Tl  Tl1  1  0.04713313  0.96664161  0.79228522  1  0  0.907328  0  0.785615  0  0  0.803723  0  1.0746  0  0  0.832763  0  1.051033  0  0  0.422685  0.781193  0  1.09303  0
Tl  Tl2  1  0.54713595  0.53336466  0.79228737  1  0  0.907299  0  0.785638  0  0  0.803684  0  1.074638  0  0  0.83273  0  1.051061  0  0  0.422666  0.781152  0  1.093071  0
Tl  Tl3  1  0.95286286  0.03336584  0.20771768  1  0  0.907305  0  0.785611  0  0  0.803681  0  1.074621  0  0  0.832701  0  1.051094  0  0  0.422665  0.781153  0  1.093052  0
H  H4  1  0.06003530  0.44372924  0.70928246  1  0  0.399736  0  0.909634  0  0  0.362199  0  0.998482  0  0  0.376165  0  0.980466  0  0  0.298483  0.353141  0  1.006885  0
H  H5  1  0.43996569  0.94373343  0.29070890  1  0  0.399727  0  0.909641  0  0  0.362189  0  0.998463  0  0  0.376163  0  0.980448  0  0  0.298471  0.35313  0  1.006869  0
H  H6  1  0.93996708  0.55626435  0.29070323  1  0  0.399656  0  0.909746  0  0  0.362152  0  0.998507  0  0  0.376115  0  0.980517  0  0  0.298429  0.353093  0  1.006909  0
H  H7  1  0.56003506  0.05626940  0.70928741  1  0  0.399739  0  0.909656  0  0  0.362154  0  0.998592  0  0  0.376119  0  0.980548  0  0  0.298442  0.353096  0  1.006995  0
C  C8  1  0.08469684  0.41496410  0.51213551  1  0  0.573392  0  3.805879  0  0  0.527788  0  4.104521  0  0  0.558203  0  4.092281  0  0  0.238742  0.506703  0  4.112625  0
C  C9  1  0.41528834  0.91498856  0.48785705  1  0  0.573021  0  3.806364  0  0  0.527541  0  4.104909  0  0  0.557954  0  4.092672  0  0  0.238693  0.50646  0  4.11301  0
C  C10  1  0.91530078  0.58500948  0.48785872  1  0  0.572988  0  3.805919  0  0  0.527506  0  4.104465  0  0  0.557919  0  4.092225  0  0  0.238673  0.506423  0  4.112568  0
C  C11  1  0.58472967  0.08500504  0.51213812  1  0  0.573264  0  3.805513  0  0  0.527577  0  4.104292  0  0  0.557992  0  4.092054  0  0  0.238773  0.506493  0  4.112393  0
C  C12  1  0.94119152  0.54160914  0.05838858  1  0  0.559991  0  3.905472  0  0  0.514264  0  4.194239  0  0  0.544666  0  4.186026  0  0  0.21391  0.493623  0  4.198796  0
C  C13  1  0.55880264  0.04162692  0.94161140  1  0  0.560112  0  3.905443  0  0  0.514251  0  4.194425  0  0  0.544648  0  4.186219  0  0  0.213886  0.49361  0  4.198977  0
C  C14  1  0.05880293  0.45839369  0.94161035  1  0  0.560199  0  3.905209  0  0  0.514382  0  4.194088  0  0  0.544784  0  4.185873  0  0  0.213896  0.493736  0  4.198651  0
C  C15  1  0.44118240  0.95839131  0.05838710  1  0  0.560074  0  3.905157  0  0  0.514241  0  4.194147  0  0  0.544649  0  4.185934  0  0  0.21392  0.4936  0  4.198711  0
O  O16  1  0.13195884  0.36303056  0.63416421  1  0  -0.575881  0  2.216744  0  0  -0.520347  0  2.452777  0  0  -0.545793  0  2.43821  0  0  -0.311736  -0.502237  0  2.45968  0
O  O17  1  0.36804645  0.86302843  0.36583897  1  0  -0.57576  0  2.21718  0  0  -0.520244  0  2.453207  0  0  -0.545687  0  2.438631  0  0  -0.311706  -0.50213  0  2.460097  0
O  O18  1  0.86804194  0.63696457  0.36582627  1  0  -0.575695  0  2.216868  0  0  -0.520112  0  2.45268  0  0  -0.545609  0  2.438255  0  0  -0.311584  -0.501997  0  2.459567  0
O  O19  1  0.63196517  0.13696824  0.63417437  1  0  -0.575825  0  2.216639  0  0  -0.520189  0  2.452674  0  0  -0.545663  0  2.43815  0  0  -0.311659  -0.502071  0  2.45956  0
O  O20  1  0.16878123  0.33366809  0.42126830  1  0  -0.542993  0  2.009115  0  0  -0.501019  0  2.23722  0  0  -0.522324  0  2.231601  0  0  -0.270484  -0.486188  0  2.240934  0
O  O21  1  0.33122867  0.83369852  0.57873216  1  0  -0.542879  0  2.009339  0  0  -0.50092  0  2.237384  0  0  -0.52223  0  2.231768  0  0  -0.270479  -0.486086  0  2.241093  0
O  O22  1  0.83121477  0.66629933  0.57873557  1  0  -0.542908  0  2.00907  0  0  -0.500973  0  2.237127  0  0  -0.522282  0  2.231517  0  0  -0.270499  -0.486138  0  2.240839  0
O  O23  1  0.66880501  0.16629816  0.42126568  1  0  -0.542966  0  2.009133  0  0  -0.500963  0  2.237304  0  0  -0.522271  0  2.231691  0  0  -0.270527  -0.486131  0  2.241015  0
O  O24  1  0.01015993  0.47365141  0.17067702  1  0  -0.681025  0  2.205603  0  0  -0.602774  0  2.437063  0  0  -0.632566  0  2.430605  0  0  -0.298239  -0.581393  0  2.439127  0
O  O25  1  0.48984425  0.97365677  0.82932715  1  0  -0.681155  0  2.205691  0  0  -0.602799  0  2.437212  0  0  -0.632596  0  2.430748  0  0  -0.298262  -0.58142  0  2.439275  0
O  O26  1  0.98983767  0.52635912  0.82932109  1  0  -0.68112  0  2.205527  0  0  -0.602831  0  2.437027  0  0  -0.632629  0  2.430563  0  0  -0.2982  -0.581448  0  2.439093  0
O  O27  1  0.51015015  0.02635837  0.17067956  1  0  -0.681146  0  2.205359  0  0  -0.602825  0  2.436892  0  0  -0.632626  0  2.430424  0  0  -0.298271  -0.581444  0  2.438962  0
O  O28  1  0.79176604  0.66519336  0.03718916  1  0  -0.640427  0  2.041322  0  0  -0.583788  0  2.27763  0  0  -0.611028  0  2.274744  0  0  -0.293375  -0.564804  0  2.279825  0
O  O29  1  0.70822543  0.16521180  0.96282146  1  0  -0.640417  0  2.041357  0  0  -0.583695  0  2.277672  0  0  -0.61096  0  2.274851  0  0  -0.293304  -0.56471  0  2.279859  0
O  O30  1  0.20823773  0.33481255  0.96282479  1  0  -0.640525  0  2.041117  0  0  -0.58383  0  2.277422  0  0  -0.61109  0  2.274573  0  0  -0.293357  -0.564845  0  2.279619  0
O  O31  1  0.29175486  0.83480181  0.03718362  1  0  -0.640436  0  2.041349  0  0  -0.583748  0  2.277724  0  0  -0.610988  0  2.274837  0  0  -0.293338  -0.564763  0  2.279921  0
