# generated using pymatgen
data_Zr3H21C44Cl5O16
_symmetry_space_group_name_H-M   'P 1'
_cell_length_a   19.26681525
_cell_length_b   19.24523740
_cell_length_c   19.24596478
_cell_angle_alpha   59.22414608
_cell_angle_beta   59.96057618
_cell_angle_gamma   59.96749544
_symmetry_Int_Tables_number   1
_chemical_formula_structural   Zr3H21C44Cl5O16
_chemical_formula_sum   'Zr6 H42 C88 Cl10 O32'
_cell_volume   5013.17621403
_cell_formula_units_Z   2
loop_
 _symmetry_equiv_pos_site_id
 _symmetry_equiv_pos_as_xyz
  1  'x, y, z'
loop_
 _atom_site_type_symbol
 _atom_site_label
 _atom_site_symmetry_multiplicity
 _atom_site_fract_x
 _atom_site_fract_y
 _atom_site_fract_z
 _atom_site_occupancy
 _atom_site_pbe_bader_charge
 _atom_site_pbe_bader_spin_density
 _atom_site_pbe_cm5_charge
 _atom_site_pbe_ddec_charge
 _atom_site_pbe_ddec_spin_density
 _atom_site_pbe_ddec_sum_bond_order
 _atom_site_pbe_magmom
Zr  Zr0  1  0.90808817  0.40686388  0.59312143  1  2.634355  0  1.625036  2.372084  0  2.753864  0
Zr  Zr1  1  0.09189945  0.59265282  0.40735854  1  2.633832  0  1.625636  2.373052  0  2.753859  0
Zr  Zr2  1  0.09173579  0.40657193  0.59343656  1  2.636501  0  1.625176  2.373734  0  2.751043  0
Zr  Zr3  1  0.90829588  0.59296596  0.40705248  1  2.632368  0  1.62532  2.373306  0  2.752005  0
Zr  Zr4  1  0.90870375  0.59104473  0.59151308  1  2.631029  0  1.628749  2.37321  0  2.763524  0
Zr  Zr5  1  0.09124214  0.40847285  0.40896261  1  2.634024  0  1.62865  2.373361  0  2.763429  0
H  H6  1  0.92787957  0.42529882  0.71852736  1  0.595885  0  0.331481  0.422381  0  0.858868  0
H  H7  1  0.92830226  0.71804278  0.42577111  1  0.617504  0  0.331851  0.422897  0  0.858138  0
H  H8  1  0.21656574  0.42764699  0.42851113  1  0.630248  0  0.331259  0.422634  0  0.857003  0
H  H9  1  0.92725153  0.42801257  0.42812905  1  0.616941  0  0.331392  0.422868  0  0.856767  0
H  H10  1  0.31814406  0.61385358  0.17795393  1  0.119831  0  0.109002  0.126498  0  0.998952  0
H  H11  1  0.67850841  0.38920183  0.81902531  1  0.121153  0  0.109081  0.126343  0  0.999002  0
H  H12  1  0.67824370  0.61188104  0.81881084  1  0.110743  0  0.1112  0.118316  0  0.9845  0
H  H13  1  0.55353386  0.60841285  0.94578391  1  0.113059  0  0.083695  0.092043  0  1.12122  0
H  H14  1  0.31856298  0.39100404  0.17839417  1  0.084383  0  0.111417  0.118643  0  0.984331  0
H  H15  1  0.44600004  0.39164718  0.05426741  1  0.09292  0  0.083566  0.091972  0  1.12078  0
H  H16  1  0.11321842  0.81863449  0.38945638  1  0.116838  0  0.108999  0.126581  0  0.998466  0
H  H17  1  0.88999619  0.17749417  0.61422785  1  0.09732  0  0.108967  0.126345  0  0.998859  0
H  H18  1  0.11190768  0.17810988  0.39123633  1  0.09063  0  0.111526  0.118755  0  0.984623  0
H  H19  1  0.10775858  0.05420865  0.39163882  1  0.127962  0  0.083618  0.091691  0  1.121249  0
H  H20  1  0.89088250  0.81859798  0.61199094  1  0.118391  0  0.111356  0.118304  0  0.984011  0
H  H21  1  0.89191730  0.94575873  0.60829623  1  0.125441  0  0.083582  0.092233  0  1.121171  0
H  H22  1  0.31504865  0.18078265  0.39175969  1  0.121394  0  0.109263  0.126735  0  0.999912  0
H  H23  1  0.68171567  0.81542218  0.61197656  1  0.128318  0  0.109281  0.127316  0  0.999871  0
H  H24  1  0.67537659  0.82180663  0.38954880  1  0.087688  0  0.110929  0.117025  0  0.98574  0
H  H25  1  0.55078511  0.94887317  0.39160378  1  0.09098  0  0.08329  0.091821  0  1.122508  0
H  H26  1  0.32186404  0.17465495  0.61380367  1  0.10025  0  0.11077  0.117018  0  0.98599  0
H  H27  1  0.44962064  0.05094749  0.60835227  1  0.098097  0  0.083227  0.0918  0  1.122357  0
H  H28  1  0.89105379  0.61176742  0.81564720  1  0.108921  0  0.109248  0.126815  0  1.000239  0
H  H29  1  0.11245602  0.39149857  0.18113516  1  0.106039  0  0.109215  0.127073  0  1.000466  0
H  H30  1  0.88977676  0.61357793  0.17497766  1  0.096716  0  0.110825  0.116828  0  0.985846  0
H  H31  1  0.89132259  0.60830145  0.05109501  1  0.1381  0  0.083285  0.092128  0  1.122837  0
H  H32  1  0.11342692  0.38936963  0.82211523  1  0.095343  0  0.11075  0.116942  0  0.984952  0
H  H33  1  0.10896026  0.39160628  0.94904758  1  0.126882  0  0.083262  0.092052  0  1.122278  0
H  H34  1  0.11304074  0.81993850  0.17710762  1  0.080784  0  0.107986  0.117036  0  0.999148  0
H  H35  1  0.17692332  0.93481477  0.06518553  1  0.043786  0  0.104683  0.107002  0  0.990471  0
H  H36  1  0.89013994  0.81977913  0.17728949  1  0.079251  0  0.107587  0.115732  0  1.001403  0
H  H37  1  0.82318725  0.93455744  0.06542347  1  0.04091  0  0.104324  0.106883  0  0.988944  0
H  H38  1  0.88983629  0.17668360  0.82051247  1  0.084399  0  0.107827  0.116614  0  0.998604  0
H  H39  1  0.82306744  0.06475258  0.93532819  1  0.057492  0  0.104557  0.106705  0  0.990591  0
H  H40  1  0.11271437  0.17687651  0.82031845  1  0.075936  0  0.10747  0.1156  0  1.000906  0
H  H41  1  0.17678314  0.06498547  0.93507793  1  0.051499  0  0.10412  0.106646  0  0.989321  0
H  H42  1  0.31713165  0.38864994  0.61468450  1  0.133849  0  0.108951  0.126182  0  1.000006  0
H  H43  1  0.67955837  0.61413038  0.38915484  1  0.086143  0  0.108749  0.125727  0  1.000529  0
H  H44  1  0.67670763  0.38898535  0.61404768  1  0.082582  0  0.110992  0.117711  0  0.984079  0
H  H45  1  0.55237347  0.39038322  0.61010423  1  0.095862  0  0.083517  0.09208  0  1.121523  0
H  H46  1  0.32025251  0.61352326  0.38953500  1  0.084713  0  0.111275  0.118367  0  0.984637  0
H  H47  1  0.44713727  0.60955242  0.39095667  1  0.100431  0  0.083501  0.091789  0  1.122419  0
C  C48  1  0.76461376  0.50066056  0.73169473  1  1.539665  0  0.23713  0.641698  0  4.099149  0
C  C49  1  0.00301628  0.73125606  0.50102181  1  1.548009  0  0.237275  0.641106  0  4.098075  0
C  C50  1  0.23062358  0.50379963  0.26394209  1  1.542473  0  0.237358  0.6417  0  4.098996  0
C  C51  1  0.00162175  0.26346783  0.50421848  1  1.548345  0  0.237952  0.6424  0  4.098707  0
C  C52  1  0.00187138  0.26139169  0.73455263  1  1.535233  0  0.237118  0.644778  0  4.090088  0
C  C53  1  0.76431383  0.50246977  0.50206082  1  1.551703  0  0.237464  0.640033  0  4.101402  0
C  C54  1  0.00220173  0.73404430  0.26184571  1  1.540588  0  0.235941  0.642902  0  4.091258  0
C  C55  1  0.23116785  0.50155329  0.50299319  1  1.552031  0  0.237714  0.642139  0  4.097934  0
C  C56  1  0.00253776  0.50086044  0.73185908  1  1.551134  0  0.237969  0.642811  0  4.098083  0
C  C57  1  0.23041419  0.26319450  0.50411271  1  1.549063  0  0.237367  0.641851  0  4.100748  0
C  C58  1  0.00223543  0.50374182  0.26363299  1  1.55704  0  0.237345  0.641213  0  4.102437  0
C  C59  1  0.76482112  0.73145955  0.50125628  1  1.532559  0  0.237827  0.641589  0  4.100636  0
C  C60  1  0.30849279  0.50317279  0.18699445  1  -0.065634  0  -0.015459  -0.020811  0  3.993417  0
C  C61  1  0.68740632  0.50061416  0.80930032  1  -0.047812  0  -0.016221  -0.02251  0  3.994731  0
C  C62  1  0.34661686  0.56481770  0.15009960  1  0.026962  0  -0.088843  -0.157122  0  3.97162  0
C  C63  1  0.42037704  0.56529494  0.07887723  1  0.023264  0  0.021424  0.106998  0  3.919502  0
C  C64  1  0.65048990  0.43775455  0.84738076  1  0.018937  0  -0.089135  -0.156755  0  3.972525  0
C  C65  1  0.57889608  0.43503762  0.92085796  1  0.04741  0  0.022132  0.107733  0  3.91972  0
C  C66  1  0.65070796  0.56204030  0.84680057  1  -0.002936  0  -0.082281  -0.083264  0  3.984948  0
C  C67  1  0.57945208  0.55925561  0.91946086  1  -0.040912  0  -0.096723  -0.125011  0  3.982597  0
C  C68  1  0.34639697  0.44052865  0.15071980  1  0.044178  0  -0.082623  -0.084267  0  3.9865  0
C  C69  1  0.41930952  0.44160884  0.07977651  1  0.001953  0  -0.096962  -0.124822  0  3.981543  0
C  C70  1  0.46096435  0.50272722  0.03880775  1  0.000844  0  0.001689  0.030615  0  3.883243  0
C  C71  1  0.53864631  0.49727857  0.96125102  1  -0.011604  0  0.000854  0.030129  0  3.884473  0
C  C72  1  0.00257044  0.80898830  0.50081821  1  0.047517  0  -0.015644  -0.021918  0  3.995009  0
C  C73  1  0.00125366  0.18660987  0.50348657  1  0.057335  0  -0.01604  -0.02245  0  3.995546  0
C  C74  1  0.06424998  0.84708184  0.43792239  1  -0.003826  0  -0.088911  -0.15699  0  3.971924  0
C  C75  1  0.06499416  0.92065471  0.43510446  1  0.017194  0  0.021944  0.107135  0  3.920797  0
C  C76  1  0.93835585  0.14973790  0.56509406  1  0.008156  0  -0.089051  -0.156968  0  3.972747  0
C  C77  1  0.93525792  0.07862595  0.56544152  1  -0.022276  0  0.021741  0.107554  0  3.920657  0
C  C78  1  0.06220819  0.15043816  0.44074527  1  -0.025283  0  -0.082707  -0.084312  0  3.987367  0
C  C79  1  0.05906327  0.07961711  0.44169495  1  -0.051243  0  -0.096745  -0.123929  0  3.982198  0
C  C80  1  0.94024935  0.84659851  0.56213563  1  -0.061662  0  -0.082637  -0.082916  0  3.985895  0
C  C81  1  0.94155487  0.91935132  0.55922422  1  -0.067999  0  -0.096822  -0.125667  0  3.983214  0
C  C82  1  0.00257389  0.96112287  0.49726724  1  0.050439  0  0.001411  0.030781  0  3.883979  0
C  C83  1  0.99724943  0.03865611  0.50278074  1  0.014268  0  0.001142  0.029962  0  3.884323  0
C  C84  1  0.30850465  0.18645591  0.50325640  1  0.002736  0  -0.016191  -0.022422  0  3.996206  0
C  C85  1  0.68759457  0.80906056  0.50115948  1  0.001041  0  -0.015762  -0.020778  0  3.994337  0
C  C86  1  0.34495985  0.15153696  0.43992685  1  0.059287  0  -0.089343  -0.157773  0  3.976173  0
C  C87  1  0.41879996  0.08057406  0.43607249  1  -0.031483  0  0.022471  0.108302  0  3.922212  0
C  C88  1  0.65238369  0.84524738  0.56321775  1  0.039929  0  -0.089175  -0.15877  0  3.976863  0
C  C89  1  0.58089685  0.91864587  0.56461319  1  0.005971  0  0.022014  0.108174  0  3.922355  0
C  C90  1  0.64919509  0.84838519  0.43913584  1  -0.058339  0  -0.082597  -0.082836  0  3.986423  0
C  C91  1  0.57805839  0.92103373  0.44104344  1  0.017744  0  -0.096733  -0.125755  0  3.98399  0
C  C92  1  0.34831800  0.14849075  0.56384122  1  -0.062349  0  -0.082067  -0.082559  0  3.986386  0
C  C93  1  0.42136005  0.07782306  0.55992665  1  0.02946  0  -0.097074  -0.126108  0  3.983002  0
C  C94  1  0.46121649  0.03870841  0.49774995  1  -0.016225  0  0.000794  0.030564  0  3.884919  0
C  C95  1  0.53899346  0.96096691  0.50240917  1  0.022984  0  0.001043  0.03025  0  3.884762  0
C  C96  1  0.00233658  0.50095529  0.80932513  1  0.050629  0  -0.016324  -0.023317  0  3.995922  0
C  C97  1  0.00183928  0.50300735  0.18679236  1  0.031448  0  -0.015723  -0.021596  0  3.995499  0
C  C98  1  0.93933371  0.56305835  0.84546555  1  0.035424  0  -0.089316  -0.157717  0  3.977123  0
C  C99  1  0.93605547  0.56454556  0.91881205  1  0.043627  0  0.022373  0.108227  0  3.922178  0
C  C100  1  0.06367434  0.43970531  0.15185229  1  0.045923  0  -0.089101  -0.158484  0  3.977227  0
C  C101  1  0.06473804  0.43596510  0.08078200  1  0.025338  0  0.022274  0.108356  0  3.922544  0
C  C102  1  0.93947504  0.56365781  0.14876917  1  -0.074635  0  -0.082227  -0.081527  0  3.985734  0
C  C103  1  0.94109442  0.55983770  0.07800831  1  -0.07197  0  -0.097301  -0.12757  0  3.985593  0
C  C104  1  0.06345112  0.43898849  0.84863990  1  -0.067406  0  -0.081963  -0.081082  0  3.985056  0
C  C105  1  0.06006792  0.44099659  0.92121695  1  -0.059307  0  -0.09702  -0.127409  0  3.984688  0
C  C106  1  0.99784397  0.50237991  0.96112485  1  -0.025639  0  0.001146  0.031277  0  3.884618  0
C  C107  1  0.00254412  0.49768361  0.03888381  1  0.03697  0  0.001196  0.031002  0  3.884289  0
C  C108  1  0.06445288  0.84986607  0.14760320  1  -0.012253  0  -0.078975  -0.139268  0  3.924177  0
C  C109  1  0.06503009  0.92419110  0.07452970  1  0.015518  0  -0.006209  0.076354  0  4.038288  0
C  C110  1  0.12832828  0.96373592  0.03582370  1  -0.002138  0  -0.089179  -0.132296  0  4.013675  0
C  C111  1  0.93825983  0.84978970  0.14769818  1  -0.009344  0  -0.079049  -0.139538  0  3.92697  0
C  C112  1  0.93635850  0.92409834  0.07461635  1  0.06372  0  -0.006682  0.075763  0  4.039866  0
C  C113  1  0.87218835  0.96356030  0.03598773  1  -0.043275  0  -0.089362  -0.132239  0  4.014115  0
C  C114  1  0.93801506  0.14717810  0.85043060  1  -0.046282  0  -0.079224  -0.139661  0  3.923712  0
C  C115  1  0.93622704  0.07407875  0.92472181  1  -0.028473  0  -0.005891  0.077419  0  4.039206  0
C  C116  1  0.87210968  0.03536365  0.96424402  1  -0.040726  0  -0.089174  -0.132243  0  4.014087  0
C  C117  1  0.06418500  0.14726152  0.85033198  1  -0.005077  0  -0.0794  -0.140434  0  3.926761  0
C  C118  1  0.06489416  0.07416306  0.92461698  1  -0.004589  0  -0.006309  0.076911  0  4.040786  0
C  C119  1  0.12824448  0.03553325  0.96406449  1  -0.044642  0  -0.089378  -0.132242  0  4.014634  0
C  C120  1  0.00181743  0.81284764  0.18375720  1  -0.050946  0  -0.021722  -0.042614  0  4.013627  0
C  C121  1  0.00055860  0.96187386  0.03707061  1  0.022331  0  0.006467  0.006683  0  3.901771  0
C  C122  1  0.00149984  0.18335952  0.81338800  1  0.004888  0  -0.021968  -0.042337  0  4.012986  0
C  C123  1  0.00049586  0.03658528  0.96237961  1  -0.076472  0  0.006835  0.005673  0  3.903423  0
C  C124  1  0.30883296  0.50132142  0.50269490  1  0.022879  0  -0.016262  -0.022448  0  3.992447  0
C  C125  1  0.68716960  0.50215858  0.50184889  1  0.054258  0  -0.016364  -0.022451  0  3.993657  0
C  C126  1  0.34608041  0.43768979  0.56522154  1  -0.024772  0  -0.089475  -0.157648  0  3.972016  0
C  C127  1  0.41953700  0.43466850  0.56617395  1  -0.021454  0  0.021912  0.107806  0  3.92019  0
C  C128  1  0.65104698  0.56465838  0.43819798  1  0.023274  0  -0.089078  -0.156536  0  3.97376  0
C  C129  1  0.57962586  0.56561828  0.43521598  1  0.040908  0  0.021641  0.106586  0  3.921955  0
C  C130  1  0.64975651  0.43917669  0.56368537  1  -0.072474  0  -0.082407  -0.082706  0  3.984623  0
C  C131  1  0.57867568  0.44067511  0.56062520  1  -0.023902  0  -0.096582  -0.125128  0  3.982006  0
C  C132  1  0.34737633  0.56316151  0.43971840  1  -0.019071  0  -0.082663  -0.083556  0  3.986367  0
C  C133  1  0.42002069  0.56007119  0.44124586  1  -0.02549  0  -0.096278  -0.124515  0  3.982896  0
C  C134  1  0.46087629  0.49741477  0.50315572  1  0.078418  0  0.00096  0.030565  0  3.879997  0
C  C135  1  0.53855169  0.50259634  0.49797762  1  0.004728  0  0.0012  0.030593  0  3.880808  0
Cl  Cl136  1  0.45261550  0.64976279  0.04989292  1  -0.211028  0  -0.000975  -0.082466  0  1.508772  0
Cl  Cl137  1  0.54954867  0.34759558  0.95280553  1  -0.213884  0  -0.001176  -0.082867  0  1.50856  0
Cl  Cl138  1  0.14982913  0.95262279  0.34766012  1  -0.21374  0  -0.001226  -0.082717  0  1.508507  0
Cl  Cl139  1  0.84753494  0.04963531  0.64990489  1  -0.214885  0  -0.001113  -0.082759  0  1.509391  0
Cl  Cl140  1  0.44870615  0.05435474  0.34785948  1  -0.215733  0  -0.001226  -0.082594  0  1.508899  0
Cl  Cl141  1  0.55387547  0.94787010  0.64986257  1  -0.212826  0  -0.000978  -0.082372  0  1.509542  0
Cl  Cl142  1  0.84866367  0.64986709  0.94795943  1  -0.221032  0  -0.001031  -0.082346  0  1.509282  0
Cl  Cl143  1  0.14935241  0.34784657  0.05446207  1  -0.222588  0  -0.001328  -0.082663  0  1.509298  0
Cl  Cl144  1  0.45041504  0.34609680  0.65197544  1  -0.210897  0  -0.001481  -0.0831  0  1.508993  0
Cl  Cl145  1  0.55153100  0.65141485  0.34663504  1  -0.210137  0  -0.001524  -0.082772  0  1.508889  0
O  O146  1  0.79488239  0.44122117  0.70226386  1  -1.179045  0  -0.354352  -0.616047  0  2.274987  0
O  O147  1  0.06163914  0.70180088  0.44160401  1  -1.182826  0  -0.354595  -0.6155  0  2.274491  0
O  O148  1  0.20093959  0.56265469  0.29395428  1  -1.183561  0  -0.354914  -0.61643  0  2.274284  0
O  O149  1  0.94252679  0.29338794  0.56315413  1  -1.174258  0  -0.354723  -0.616106  0  2.275041  0
O  O150  1  0.06060049  0.29260444  0.70382414  1  -1.182869  0  -0.358652  -0.62277  0  2.28336  0
O  O151  1  0.79503096  0.56189432  0.44194038  1  -1.183061  0  -0.355133  -0.616091  0  2.275898  0
O  O152  1  0.94295141  0.70335858  0.29307614  1  -1.184302  0  -0.357885  -0.62144  0  2.283461  0
O  O153  1  0.20118004  0.44140127  0.56241297  1  -1.186004  0  -0.355219  -0.617242  0  2.275011  0
O  O154  1  0.94316901  0.55970899  0.70121653  1  -1.183707  0  -0.356494  -0.617376  0  2.283191  0
O  O155  1  0.19988222  0.29459188  0.44458435  1  -1.176711  0  -0.355862  -0.616294  0  2.283376  0
O  O156  1  0.06088303  0.44417369  0.29503543  1  -1.180359  0  -0.356382  -0.616561  0  2.284317  0
O  O157  1  0.79590425  0.70080122  0.56015407  1  -1.178874  0  -0.35652  -0.616949  0  2.284693  0
O  O158  1  0.20077729  0.29271710  0.56328263  1  -1.179191  0  -0.352881  -0.618596  0  2.273185  0
O  O159  1  0.94315328  0.56284716  0.29323639  1  -1.1819  0  -0.352837  -0.618333  0  2.274427  0
O  O160  1  0.79491001  0.70230064  0.44167952  1  -1.176406  0  -0.353035  -0.618491  0  2.274016  0
O  O161  1  0.06112115  0.44122862  0.70278327  1  -1.180207  0  -0.353006  -0.618515  0  2.273084  0
O  O162  1  0.94277450  0.29253627  0.70372099  1  -1.179904  0  -0.35713  -0.621012  0  2.278767  0
O  O163  1  0.20131345  0.56114012  0.44287189  1  -1.179048  0  -0.353691  -0.619293  0  2.275725  0
O  O164  1  0.06096479  0.70322729  0.29300527  1  -1.189841  0  -0.357322  -0.621018  0  2.27987  0
O  O165  1  0.79471083  0.44230379  0.56163429  1  -1.178617  0  -0.35345  -0.618257  0  2.276791  0
O  O166  1  0.06041836  0.29458781  0.44463204  1  -1.182161  0  -0.354679  -0.619152  0  2.280273  0
O  O167  1  0.79552781  0.55962269  0.70125700  1  -1.173998  0  -0.35448  -0.619018  0  2.281348  0
O  O168  1  0.94363905  0.70076354  0.56004904  1  -1.184204  0  -0.354715  -0.618854  0  2.280776  0
O  O169  1  0.20026681  0.44424051  0.29504168  1  -1.175397  0  -0.354479  -0.619127  0  2.281375  0
O  O170  1  0.94796001  0.44842482  0.44856546  1  -1.246526  0  -0.694318  -1.070239  0  2.361437  0
O  O171  1  0.15500910  0.44809400  0.44892874  1  -1.260884  0  -0.694152  -1.06983  0  2.361342  0
O  O172  1  0.94858365  0.65596534  0.44709031  1  -1.246562  0  -0.694791  -1.068453  0  2.366369  0
O  O173  1  0.94836625  0.44660846  0.65644664  1  -1.224387  0  -0.694173  -1.067093  0  2.364067  0
O  O174  1  0.03844568  0.53750144  0.53824166  1  -1.199584  0  -0.79097  -1.149906  0  2.126483  0
O  O175  1  0.88579382  0.53777162  0.53797231  1  -1.196518  0  -0.790944  -1.149054  0  2.125822  0
O  O176  1  0.03788787  0.53905313  0.38529400  1  -1.19344  0  -0.79147  -1.148908  0  2.127696  0
O  O177  1  0.03773722  0.38486425  0.53951814  1  -1.192437  0  -0.790901  -1.148625  0  2.127903  0
