# generated using pymatgen
data_CuH7C6BrN2O3
_symmetry_space_group_name_H-M   'P 1'
_cell_length_a   6.48621870
_cell_length_b   10.36070602
_cell_length_c   13.37082032
_cell_angle_alpha   108.48491990
_cell_angle_beta   89.99990579
_cell_angle_gamma   90.00204598
_symmetry_Int_Tables_number   1
_chemical_formula_structural   CuH7C6BrN2O3
_chemical_formula_sum   'Cu4 H28 C24 Br4 N8 O12'
_cell_volume   852.18484087
_cell_formula_units_Z   4
loop_
 _symmetry_equiv_pos_site_id
 _symmetry_equiv_pos_as_xyz
  1  'x, y, z'
loop_
 _atom_site_type_symbol
 _atom_site_label
 _atom_site_symmetry_multiplicity
 _atom_site_fract_x
 _atom_site_fract_y
 _atom_site_fract_z
 _atom_site_occupancy
 _atom_site_hle17_ddec_charge
 _atom_site_hle17_ddec_spin_density
 _atom_site_hle17_ddec_sum_bond_order
 _atom_site_hle17_magmom
 _atom_site_hse06_10hf_ddec_charge
 _atom_site_hse06_10hf_ddec_spin_density
 _atom_site_hse06_10hf_ddec_sum_bond_order
 _atom_site_hse06_10hf_magmom
 _atom_site_hse06_ddec_charge
 _atom_site_hse06_ddec_spin_density
 _atom_site_hse06_ddec_sum_bond_order
 _atom_site_hse06_magmom
 _atom_site_pbe_cm5_charge
 _atom_site_pbe_ddec_charge
 _atom_site_pbe_ddec_spin_density
 _atom_site_pbe_ddec_sum_bond_order
 _atom_site_pbe_magmom
Cu  Cu0  1  0.79896073  0.24602423  0.23424813  1  0.770637  0.635784  1.896019  0.451  0.755578  0.7429  2.293766  0.578  0.842678  0.834793  2.227132  0.671  0.665718  0.707949  0.677789  2.338087  0.518
Cu  Cu1  1  0.29898014  0.75394633  0.26574965  1  0.770929  0.635771  1.895992  0.451  0.755883  0.742862  2.293704  0.578  0.842956  0.834765  2.227069  0.671  0.665906  0.708272  0.677739  2.338036  0.518
Cu  Cu2  1  0.20102071  0.75394986  0.76575160  1  0.770924  -0.635758  1.895988  -0.451  0.755939  -0.74286  2.29352  -0.578  0.842938  -0.834766  2.227029  -0.671  0.66589  0.708335  -0.677728  2.337872  -0.518
Cu  Cu3  1  0.70108301  0.24602674  0.73425058  1  0.770565  -0.635809  1.896226  -0.451  0.755568  -0.742888  2.293857  -0.578  0.842615  -0.83476  2.227322  -0.671  0.665731  0.707936  -0.677786  2.338192  -0.518
H  H4  1  0.46231966  0.33387944  0.58223054  1  0.115906  -0.000605  0.936697  -0.001  0.121459  -0.000294  1.000094  -0.001  0.123352  -0.000269  0.9981  -0.001  0.132322  0.119876  -0.000278  1.001875  -0.001
H  H5  1  0.96232735  0.66612575  0.91776501  1  0.115858  -0.000601  0.93681  -0.001  0.121367  -0.000293  1.000304  -0.001  0.123261  -0.000269  0.998309  -0.001  0.132295  0.119785  -0.000277  1.002079  -0.001
H  H6  1  0.53767103  0.66613026  0.41776819  1  0.115854  0.00061  0.936777  0.001  0.12142  0.000293  1.000192  0.001  0.123313  0.000269  0.998197  0.001  0.132322  0.119836  0.000278  1.001969  0.001
H  H7  1  0.03767722  0.33386259  0.08223447  1  0.115877  0.000604  0.936714  0.001  0.121422  0.000293  1.000156  0.001  0.123316  0.000269  0.998161  0.001  0.132336  0.119842  0.000278  1.001931  0.001
H  H8  1  0.08559290  0.15249319  0.38453042  1  0.104425  0.000459  0.962484  0.001  0.108585  0.000509  1.031114  0.001  0.112323  0.000434  1.027907  0.001  0.112522  0.106023  0.000552  1.033519  0.001
H  H9  1  0.58562014  0.84752013  0.11547273  1  0.104312  0.000456  0.962218  0.001  0.108592  0.000509  1.030768  0.001  0.112334  0.000434  1.027556  0.001  0.112524  0.106026  0.000551  1.033174  0.001
H  H10  1  0.91439316  0.84750938  0.61546806  1  0.104348  -0.00047  0.962337  -0.001  0.108536  -0.000509  1.030977  -0.001  0.112276  -0.000434  1.027769  -0.001  0.112536  0.105976  -0.000551  1.033381  -0.001
H  H11  1  0.41439213  0.15249262  0.88452599  1  0.104396  -0.000483  0.962553  -0.001  0.108559  -0.000509  1.031142  -0.001  0.112299  -0.000434  1.027931  -0.001  0.112533  0.106001  -0.000552  1.033547  -0.001
H  H12  1  0.17881721  0.23919376  0.64496003  1  0.150754  0.000745  0.942938  0.001  0.168236  0.000253  1.005816  0.0  0.169726  0.000285  1.005548  0.0  0.102104  0.166713  0.000242  1.006461  0.0
H  H13  1  0.67885230  0.76080369  0.85505101  1  0.150697  0.000751  0.942886  0.001  0.16818  0.000253  1.005786  0.0  0.169671  0.000285  1.00552  0.0  0.102089  0.166658  0.000242  1.006426  0.0
H  H14  1  0.82116577  0.76079357  0.35504967  1  0.15073  -0.000752  0.942872  -0.001  0.168204  -0.000253  1.005805  0.0  0.169691  -0.000285  1.005542  0.0  0.102095  0.166682  -0.000242  1.006447  0.0
H  H15  1  0.32116152  0.23918058  0.14495046  1  0.150692  -0.000755  0.94293  -0.001  0.168199  -0.000253  1.005813  0.0  0.169688  -0.000285  1.005547  0.0  0.102077  0.166676  -0.000242  1.006463  0.0
H  H16  1  0.21018423  0.09206458  0.53254173  1  0.125881  8.3e-05  0.976645  0.0  0.145066  0.000124  1.041231  0.0  0.148684  0.000108  1.039487  0.0  0.082895  0.14288  0.000133  1.041929  0.0
H  H17  1  0.71023217  0.90795094  0.96748493  1  0.125759  8e-05  0.976344  0.0  0.145017  0.000124  1.040904  0.0  0.148629  0.000108  1.039181  0.0  0.082823  0.142835  0.000133  1.041584  0.0
H  H18  1  0.78978950  0.90793701  0.46747894  1  0.125821  -8.9e-05  0.976422  0.0  0.145048  -0.000124  1.04102  0.0  0.148666  -0.000108  1.039278  0.0  0.082902  0.142863  -0.000133  1.041713  0.0
H  H19  1  0.28980323  0.09204759  0.03253051  1  0.12578  -7.9e-05  0.97657  0.0  0.145032  -0.000124  1.041113  0.0  0.148643  -0.000107  1.039384  0.0  0.082862  0.142851  -0.000133  1.041792  0.0
H  H20  1  0.03684729  0.09210186  0.63763878  1  0.11941  0.000973  0.977439  0.001  0.132137  0.000613  1.057681  0.0  0.134474  0.000629  1.055994  0.0  0.087801  0.130181  0.000567  1.059298  0.0
H  H21  1  0.53689871  0.90792274  0.86236554  1  0.119343  0.000982  0.977204  0.001  0.132077  0.000613  1.057491  0.0  0.134426  0.00063  1.055789  0.0  0.087776  0.13012  0.000568  1.059109  0.0
H  H22  1  0.96312490  0.90791294  0.36236493  1  0.119347  -0.000978  0.977256  -0.001  0.132094  -0.000613  1.057515  0.0  0.134439  -0.00063  1.055822  0.0  0.08779  0.130142  -0.000567  1.059133  0.0
H  H23  1  0.46311356  0.09209001  0.13763169  1  0.119292  -0.000976  0.977443  -0.001  0.132055  -0.000613  1.057692  0.0  0.134393  -0.000629  1.056002  0.0  0.087791  0.13011  -0.000567  1.059303  0.0
H  H24  1  0.02586568  0.49062964  0.25303306  1  0.424559  -9.2e-05  0.875128  0.0  0.398546  3.6e-05  0.931529  0.0  0.4106  -3e-06  0.913912  0.0  0.288882  0.390535  7.6e-05  0.943229  0.0
H  H25  1  0.52584168  0.50935984  0.24694859  1  0.42442  -9.4e-05  0.87529  0.0  0.398343  3.6e-05  0.93181  0.0  0.410412  -3e-06  0.914169  0.0  0.288806  0.39033  7.7e-05  0.94351  0.0
H  H26  1  0.97412655  0.50936477  0.74694996  1  0.424649  9.5e-05  0.874971  0.0  0.398569  -3.6e-05  0.931504  0.0  0.410639  3e-06  0.913858  0.0  0.288864  0.390553  -7.7e-05  0.943212  0.0
H  H27  1  0.47415518  0.49063662  0.75304315  1  0.424622  9.4e-05  0.875008  0.0  0.398539  -3.6e-05  0.931545  0.0  0.410606  3e-06  0.913905  0.0  0.288823  0.390525  -7.7e-05  0.943247  0.0
H  H28  1  0.13635904  0.41214854  0.32519414  1  0.420067  -8.1e-05  0.883059  0.0  0.392554  -3e-06  0.941833  0.0  0.40533  -1.1e-05  0.923389  0.0  0.284099  0.384005  2.1e-05  0.954124  0.0
H  H29  1  0.63631373  0.58784661  0.17478434  1  0.41986  -8.1e-05  0.883315  0.0  0.39228  -3e-06  0.94221  0.0  0.405063  -1.1e-05  0.923757  0.0  0.283994  0.383724  2.1e-05  0.954512  0.0
H  H30  1  0.86365323  0.58785197  0.67478513  1  0.420007  8.2e-05  0.883115  0.0  0.39241  3e-06  0.942045  0.0  0.405198  1.1e-05  0.923584  0.0  0.284045  0.383858  -2.1e-05  0.95434  0.0
H  H31  1  0.36366309  0.41215799  0.82521090  1  0.419943  8.2e-05  0.883236  0.0  0.392388  3e-06  0.942091  0.0  0.405165  1.1e-05  0.923647  0.0  0.28402  0.383836  -2.1e-05  0.954386  0.0
C  C32  1  0.60336846  0.29615532  0.53875675  1  0.11816  0.019643  3.61391  0.02  0.078304  0.005612  3.87042  0.006  0.087344  0.006743  3.883881  0.008  0.069991  0.072017  0.004639  3.862493  0.005
C  C33  1  0.10337337  0.70383930  0.96123944  1  0.118385  0.019659  3.613423  0.02  0.078381  0.005621  3.870094  0.006  0.087422  0.006753  3.883552  0.008  0.07007  0.0721  0.004647  3.862165  0.005
C  C34  1  0.39662377  0.70383606  0.46124048  1  0.118294  -0.019686  3.613654  -0.02  0.078327  -0.00562  3.870295  -0.006  0.087365  -0.006753  3.883763  -0.008  0.070073  0.072044  -0.004646  3.862367  -0.005
C  C35  1  0.89662349  0.29615004  0.03874981  1  0.11833  -0.019646  3.613627  -0.02  0.07841  -0.005612  3.870244  -0.006  0.087453  -0.006743  3.883712  -0.008  0.070022  0.07212  -0.004638  3.862312  -0.005
C  C36  1  0.92918725  0.20121794  0.53596616  1  0.307259  0.01833  3.625284  0.02  0.317202  0.005069  3.862409  0.007  0.327078  0.006031  3.878476  0.008  0.145774  0.310302  0.004449  3.85227  0.006
C  C37  1  0.42918077  0.79877322  0.96402448  1  0.307494  0.018349  3.625251  0.02  0.317308  0.00507  3.862561  0.007  0.327179  0.006034  3.87865  0.008  0.145865  0.310402  0.004447  3.852432  0.006
C  C38  1  0.07082811  0.79876937  0.46403157  1  0.307354  -0.018343  3.62493  -0.02  0.317297  -0.005068  3.862108  -0.007  0.327183  -0.006033  3.878161  -0.008  0.145869  0.310384  -0.004445  3.851993  -0.006
C  C39  1  0.57080529  0.20120695  0.03596028  1  0.307452  -0.018305  3.625513  -0.019  0.317257  -0.005066  3.862816  -0.007  0.327134  -0.006028  3.878891  -0.008  0.145845  0.310348  -0.004445  3.852687  -0.006
C  C40  1  0.47762402  0.35947481  0.38002088  1  0.619898  -0.001004  3.915969  -0.002  0.56922  0.000788  4.215475  0.0  0.604926  0.00069  4.208617  0.0  0.214525  0.544907  0.000868  4.21995  0.0
C  C41  1  0.97759435  0.64054986  0.11998329  1  0.620138  -0.001003  3.915381  -0.002  0.569371  0.000786  4.214953  0.0  0.605098  0.000688  4.208062  0.0  0.214624  0.545048  0.000865  4.219441  0.0
C  C42  1  0.52238671  0.64055016  0.61998458  1  0.620061  0.001011  3.9153  0.002  0.56924  -0.000787  4.214977  0.0  0.604985  -0.000688  4.208057  0.0  0.214606  0.544924  -0.000866  4.219457  0.0
C  C43  1  0.02237938  0.35947104  0.88002266  1  0.619943  0.001015  3.915853  0.002  0.56915  -0.000788  4.215487  0.0  0.60489  -0.000689  4.20858  0.0  0.214503  0.544826  -0.000867  4.219973  0.0
C  C44  1  0.62954881  0.29734683  0.43602855  1  0.059863  -0.013947  3.714945  -0.017  0.061336  -0.002849  3.965728  -0.006  0.061281  -0.004375  3.980253  -0.007  0.114846  0.061028  -0.001853  3.957102  -0.005
C  C45  1  0.12955057  0.70264412  0.06396835  1  0.059887  -0.013952  3.714413  -0.017  0.061503  -0.00285  3.96508  -0.006  0.061437  -0.004375  3.979602  -0.007  0.114776  0.061204  -0.001854  3.956454  -0.005
C  C46  1  0.37044188  0.70263642  0.56397118  1  0.059842  0.013959  3.714886  0.017  0.061383  0.00285  3.965638  0.006  0.061317  0.004377  3.980144  0.007  0.114582  0.06107  0.001855  3.95702  0.005
C  C47  1  0.87046479  0.29734318  0.93602265  1  0.059862  0.013924  3.714835  0.017  0.061465  0.002846  3.965588  0.006  0.061393  0.00437  3.980108  0.007  0.114905  0.061167  0.001851  3.956959  0.005
C  C48  1  0.94935471  0.19737232  0.43035629  1  0.062578  -0.019746  3.577022  -0.021  0.039292  -0.005707  3.810534  -0.008  0.044384  -0.006751  3.823566  -0.009  0.069512  0.035874  -0.004821  3.802512  -0.007
C  C49  1  0.44936849  0.80259063  0.06964401  1  0.063023  -0.019784  3.576519  -0.021  0.039624  -0.005724  3.810077  -0.008  0.044733  -0.006767  3.823102  -0.009  0.069583  0.036203  -0.004836  3.802061  -0.007
C  C50  1  0.05063598  0.80258245  0.56964245  1  0.063061  0.019792  3.57676  0.021  0.039696  0.00572  3.810312  0.008  0.044797  0.006764  3.823326  0.009  0.069529  0.036267  0.004833  3.802302  0.007
C  C51  1  0.55063607  0.19737430  0.93035198  1  0.062611  0.019806  3.57728  0.021  0.039458  0.005709  3.810709  0.008  0.044556  0.006751  3.823733  0.009  0.069583  0.036031  0.004823  3.802696  0.007
C  C52  1  0.09782305  0.15228345  0.58968799  1  -0.39985  -0.000502  3.708303  -0.002  -0.483368  4.7e-05  3.940604  -0.001  -0.489075  0.000144  3.948402  -0.001  -0.249432  -0.478933  -4.8e-05  3.935392  -0.001
C  C53  1  0.59784299  0.84772531  0.91032288  1  -0.399683  -0.000522  3.707623  -0.002  -0.483219  4.6e-05  3.93999  -0.001  -0.48893  0.000144  3.94778  -0.001  -0.24927  -0.478779  -5e-05  3.934775  -0.001
C  C54  1  0.90216919  0.84771202  0.41031996  1  -0.399762  0.00053  3.707773  0.002  -0.4833  -4.7e-05  3.940095  0.001  -0.489013  -0.000144  3.94789  0.001  -0.249396  -0.478863  4.9e-05  3.934848  0.001
C  C55  1  0.40216620  0.15226811  0.08967485  1  -0.399618  0.000512  3.708167  0.002  -0.483198  -4.6e-05  3.940493  0.001  -0.488905  -0.000143  3.948286  0.001  -0.249321  -0.478774  4.9e-05  3.935278  0.001
Br  Br56  1  0.93486693  0.01787221  0.16474654  1  -0.447871  0.215561  0.944203  0.207  -0.488786  0.119386  1.25699  0.121  -0.530842  0.090477  1.239724  0.095  -0.253777  -0.464724  0.131463  1.270552  0.13
Br  Br57  1  0.43484553  0.98213211  0.33526390  1  -0.447922  0.215652  0.943918  0.207  -0.488848  0.119481  1.256614  0.121  -0.530922  0.090547  1.239349  0.095  -0.253821  -0.464782  0.131571  1.270184  0.131
Br  Br58  1  0.06514997  0.98213546  0.83525917  1  -0.447909  -0.215663  0.943931  -0.207  -0.488847  -0.119483  1.256564  -0.121  -0.530898  -0.09055  1.239324  -0.095  -0.253797  -0.464788  -0.131575  1.270132  -0.131
Br  Br59  1  0.56515749  0.01788676  0.66474530  1  -0.447895  -0.21557  0.944309  -0.207  -0.488785  -0.119406  1.257017  -0.121  -0.530833  -0.090498  1.239758  -0.095  -0.253802  -0.464714  -0.13149  1.270579  -0.131
N  N60  1  0.75212547  0.24967932  0.58802591  1  -0.284006  -0.081625  3.261062  -0.101  -0.235193  -0.056053  3.539952  -0.073  -0.261529  -0.048607  3.557515  -0.066  -0.328053  -0.220896  -0.058846  3.531342  -0.075
N  N61  1  0.25212714  0.75033713  0.91196132  1  -0.284405  -0.081611  3.261249  -0.101  -0.235468  -0.056042  3.540228  -0.073  -0.261791  -0.0486  3.55778  -0.066  -0.328321  -0.221183  -0.058826  3.531645  -0.075
N  N62  1  0.24788835  0.75033035  0.41196010  1  -0.284214  0.081618  3.260959  0.101  -0.235379  0.056042  3.539991  0.073  -0.261717  0.048601  3.557528  0.066  -0.32822  -0.221086  0.058826  3.531393  0.075
N  N63  1  0.74784813  0.24968068  0.08802369  1  -0.284244  0.081608  3.261036  0.101  -0.235413  0.056048  3.540077  0.073  -0.261766  0.048599  3.557636  0.066  -0.328191  -0.221101  0.058841  3.531456  0.075
N  N64  1  0.80217648  0.24568877  0.38248683  1  -0.232632  0.081916  3.368737  0.101  -0.190587  0.058724  3.648476  0.076  -0.212461  0.05115  3.666662  0.069  -0.328439  -0.179398  0.061756  3.639378  0.078
N  N65  1  0.30214869  0.75436128  0.11754760  1  -0.233177  0.081903  3.368792  0.101  -0.191095  0.058709  3.648517  0.076  -0.21296  0.051143  3.666684  0.069  -0.328467  -0.179917  0.061729  3.639437  0.078
N  N66  1  0.19786046  0.75435659  0.61754830  1  -0.23317  -0.081893  3.369024  -0.101  -0.191041  -0.058706  3.648671  -0.076  -0.212888  -0.051142  3.666841  -0.069  -0.328358  -0.179861  -0.061727  3.639591  -0.078
N  N67  1  0.69782658  0.24567899  0.88248179  1  -0.232644  -0.081925  3.368743  -0.101  -0.190694  -0.058726  3.648492  -0.076  -0.212558  -0.051154  3.666685  -0.069  -0.328509  -0.179507  -0.061757  3.639397  -0.078
O  O68  1  0.04038922  0.40153730  0.26488904  1  -0.848754  0.003992  1.905388  0.006  -0.806096  0.004963  2.099199  0.008  -0.830204  0.003613  2.059303  0.006  -0.60202  -0.78913  0.006263  2.126022  0.009
O  O69  1  0.54033659  0.59845659  0.23508994  1  -0.848387  0.003996  1.905682  0.006  -0.805682  0.004967  2.099591  0.008  -0.829777  0.003618  2.059638  0.006  -0.601859  -0.788711  0.006264  2.126433  0.009
O  O70  1  0.95963847  0.59847035  0.73510170  1  -0.848754  -0.004001  1.905308  -0.006  -0.806043  -0.004968  2.099174  -0.008  -0.830153  -0.00362  2.059268  -0.006  -0.60196  -0.789073  -0.006265  2.126011  -0.009
O  O71  1  0.45962944  0.40153274  0.76489932  1  -0.848692  -0.003993  1.905173  -0.006  -0.806032  -0.004961  2.099041  -0.008  -0.830144  -0.00361  2.059153  -0.006  -0.601925  -0.789054  -0.00626  2.125871  -0.009
O  O72  1  0.54213812  0.36711699  0.29078383  1  -0.617732  0.04128  2.104641  0.055  -0.563553  0.036171  2.360063  0.052  -0.60143  0.029198  2.349343  0.044  -0.314238  -0.538759  0.04075  2.367795  0.057
O  O73  1  0.04211054  0.63288512  0.20921735  1  -0.617872  0.041267  2.104221  0.055  -0.563723  0.036168  2.359697  0.052  -0.601608  0.029194  2.34899  0.044  -0.314317  -0.538927  0.040747  2.367433  0.057
O  O74  1  0.45786953  0.63287541  0.70921365  1  -0.617828  -0.041263  2.104331  -0.055  -0.563638  -0.036166  2.359848  -0.052  -0.601502  -0.029194  2.349103  -0.044  -0.314218  -0.538847  -0.040745  2.367588  -0.057
O  O75  1  0.95787090  0.36711645  0.79078686  1  -0.61777  -0.041282  2.104815  -0.055  -0.563557  -0.03617  2.36034  -0.052  -0.601432  -0.029202  2.349606  -0.044  -0.31422  -0.538759  -0.040747  2.368079  -0.057
O  O76  1  0.30657634  0.40078724  0.42127471  1  -0.568475  0.008163  1.934001  0.01  -0.519862  0.006363  2.144234  0.008  -0.546566  0.003061  2.138037  0.004  -0.29503  -0.500385  0.00976  2.147658  0.013
O  O77  1  0.80654132  0.59923337  0.07872933  1  -0.568651  0.008161  1.934104  0.01  -0.51991  0.00636  2.144301  0.008  -0.546625  0.00306  2.138091  0.004  -0.295092  -0.500428  0.009754  2.147729  0.013
O  O78  1  0.69345597  0.59923874  0.57872800  1  -0.568693  -0.008167  1.933773  -0.01  -0.51991  -0.006359  2.143999  -0.008  -0.546635  -0.00306  2.137782  -0.004  -0.295124  -0.500422  -0.009755  2.147409  -0.013
O  O79  1  0.19345091  0.40077838  0.92127513  1  -0.568552  -0.008162  1.933788  -0.01  -0.519879  -0.006359  2.144078  -0.008  -0.546594  -0.00306  2.137865  -0.004  -0.29508  -0.500398  -0.009754  2.147504  -0.013
