# generated using pymatgen
data_LiH8C5NO4
_symmetry_space_group_name_H-M   'P 1'
_cell_length_a   5.28687698
_cell_length_b   7.86936595
_cell_length_c   7.95336301
_cell_angle_alpha   90.23857924
_cell_angle_beta   107.13950163
_cell_angle_gamma   96.58596618
_symmetry_Int_Tables_number   1
_chemical_formula_structural   LiH8C5NO4
_chemical_formula_sum   'Li2 H16 C10 N2 O8'
_cell_volume   313.86171267
_cell_formula_units_Z   2
loop_
 _symmetry_equiv_pos_site_id
 _symmetry_equiv_pos_as_xyz
  1  'x, y, z'
loop_
 _atom_site_type_symbol
 _atom_site_label
 _atom_site_symmetry_multiplicity
 _atom_site_fract_x
 _atom_site_fract_y
 _atom_site_fract_z
 _atom_site_occupancy
 _atom_site_hle17_bader_spin_density
 _atom_site_hle17_ddec_charge
 _atom_site_hle17_ddec_spin_density
 _atom_site_hle17_ddec_sum_bond_order
 _atom_site_hle17_magmom
 _atom_site_hse06_10hf_bader_spin_density
 _atom_site_hse06_10hf_ddec_charge
 _atom_site_hse06_10hf_ddec_spin_density
 _atom_site_hse06_10hf_ddec_sum_bond_order
 _atom_site_hse06_10hf_magmom
 _atom_site_hse06_bader_spin_density
 _atom_site_hse06_ddec_charge
 _atom_site_hse06_ddec_spin_density
 _atom_site_hse06_ddec_sum_bond_order
 _atom_site_hse06_magmom
 _atom_site_pbe_bader_spin_density
 _atom_site_pbe_cm5_charge
 _atom_site_pbe_ddec_charge
 _atom_site_pbe_ddec_spin_density
 _atom_site_pbe_ddec_sum_bond_order
 _atom_site_pbe_magmom
Li  Li0  1  0.06326744  0.50447203  0.75485098  1  0  0.853491  0  0.426554  0  0  0.816093  0  0.531454  0  0  0.824738  0  0.515655  0  0  0.523365  0.809598  0  0.542973  0
Li  Li1  1  0.26465819  0.02595495  0.19990188  1  0  0.861885  0  0.400648  0  0  0.824711  0  0.504468  0  0  0.833377  0  0.488833  0  0  0.505453  0.818272  0  0.515909  0
H  H2  1  0.16031799  0.64961262  0.33021436  1  0  0.083046  0  0.941567  0  0  0.098879  0  1.00434  0  0  0.100451  0  1.004019  0  0  0.102245  0.097627  0  1.004785  0
H  H3  1  0.72470840  0.62902541  0.39651613  1  0  0.112479  0  0.934438  0  0  0.127487  0  0.994963  0  0  0.130089  0  0.994047  0  0  0.109782  0.125584  0  0.995782  0
H  H4  1  0.66451265  0.15513947  0.92688543  1  0  0.081691  0  0.94005  0  0  0.097664  0  1.002627  0  0  0.098676  0  1.002644  0  0  0.107533  0.09688  0  1.002733  0
H  H5  1  0.33200941  0.10907026  0.53665900  1  0  0.110351  0  0.946505  0  0  0.12429  0  1.010192  0  0  0.127258  0  1.008717  0  0  0.112359  0.122176  0  1.011327  0
H  H6  1  0.21545945  0.16520684  0.71344122  1  0  0.099583  0  0.9479  0  0  0.113609  0  1.010579  0  0  0.116453  0  1.008747  0  0  0.107057  0.11152  0  1.012046  0
H  H7  1  0.55364446  0.64690088  0.17338802  1  0  0.112286  0  0.950119  0  0  0.129332  0  1.008039  0  0  0.130902  0  1.008873  0  0  0.108797  0.128189  0  1.00753  0
H  H8  1  0.79780839  0.10788853  0.75628829  1  0  0.087699  0  0.936177  0  0  0.103078  0  0.998709  0  0  0.105045  0  0.997715  0  0  0.1065  0.101566  0  0.999584  0
H  H9  1  0.68937513  0.86367300  0.93894337  1  0  0.078707  0  0.926736  0  0  0.088541  0  0.989586  0  0  0.090585  0  0.988595  0  0  0.128828  0.087031  0  0.990456  0
H  H10  1  0.00659579  0.69519099  0.10945847  1  0  0.083721  0  0.957478  0  0  0.093831  0  1.031164  0  0  0.096436  0  1.028986  0  0  0.108895  0.091821  0  1.032932  0
H  H11  1  0.75083706  0.41076219  0.04935217  1  0  0.078985  0  0.918941  0  0  0.088908  0  0.97929  0  0  0.091303  0  0.977765  0  0  0.127029  0.087108  0  0.980651  0
H  H12  1  0.66284176  0.32053499  0.29744595  1  0  0.336425  0  0.885362  0  0  0.314588  0  0.950509  0  0  0.323248  0  0.943557  0  0  0.313959  0.308501  0  0.955414  0
H  H13  1  0.76909311  0.77007632  0.70132095  1  0  0.325921  0  0.911387  0  0  0.303621  0  0.978294  0  0  0.313108  0  0.970522  0  0  0.307205  0.296909  0  0.983853  0
H  H14  1  0.44671433  0.67553321  0.65133610  1  0  0.327885  0  0.901268  0  0  0.302497  0  0.972852  0  0  0.312389  0  0.964044  0  0  0.308816  0.29545  0  0.97918  0
H  H15  1  0.89880327  0.19641214  0.29040463  1  0  0.326755  0  0.896737  0  0  0.302802  0  0.966583  0  0  0.312715  0  0.957975  0  0  0.310406  0.295809  0  0.972674  0
H  H16  1  0.52805943  0.85425964  0.55091216  1  0  0.333051  0  0.886622  0  0  0.315817  0  0.945045  0  0  0.323795  0  0.939293  0  0  0.310882  0.310179  0  0.949166  0
H  H17  1  0.98802552  0.36969235  0.43006873  1  0  0.333522  0  0.878129  0  0  0.31335  0  0.940306  0  0  0.321461  0  0.934257  0  0  0.31719  0.307654  0  0.944589  0
C  C18  1  0.26544428  0.86367462  0.84626411  1  0  0.681801  0  3.867904  0  0  0.637872  0  4.167434  0  0  0.669175  0  4.160063  0  0  0.231567  0.616634  0  4.171827  0
C  C19  1  0.54248231  0.90048268  0.81950195  1  0  0.054952  0  3.520649  0  0  0.032629  0  3.76221  0  0  0.032283  0  3.773361  0  0  0.017818  0.032769  0  3.754768  0
C  C20  1  0.61532484  0.09110567  0.79666075  1  0  -0.115205  0  3.669098  0  0  -0.162043  0  3.930765  0  0  -0.161897  0  3.942471  0  0  -0.150022  -0.161905  0  3.922736  0
C  C21  1  0.39333550  0.17423773  0.66785047  1  0  -0.282379  0  3.670128  0  0  -0.321771  0  3.918043  0  0  -0.32798  0  3.925554  0  0  -0.160443  -0.317482  0  3.912881  0
C  C22  1  0.47240479  0.36146171  0.64052701  1  0  0.761224  0  3.811934  0  0  0.717284  0  4.110426  0  0  0.749957  0  4.101023  0  0  0.234148  0.6951  0  4.11614  0
C  C23  1  0.17110265  0.37957834  0.12182169  1  0  0.679352  0  3.866487  0  0  0.632913  0  4.173637  0  0  0.664677  0  4.165409  0  0  0.231569  0.611432  0  4.178491  0
C  C24  1  0.92623806  0.43330470  0.16639829  1  0  0.048935  0  3.511104  0  0  0.025573  0  3.758053  0  0  0.025031  0  3.768855  0  0  0.016624  0.025682  0  3.751202  0
C  C25  1  0.97410209  0.62455598  0.22160452  1  0  -0.127668  0  3.663249  0  0  -0.173998  0  3.923856  0  0  -0.173961  0  3.934757  0  0  -0.153267  -0.173711  0  3.916269  0
C  C26  1  0.74458878  0.68736196  0.27468085  1  0  -0.281151  0  3.649976  0  0  -0.317534  0  3.897387  0  0  -0.323859  0  3.906238  0  0  -0.16303  -0.313124  0  3.891161  0
C  C27  1  0.75807519  0.88048973  0.30121552  1  0  0.75017  0  3.815067  0  0  0.704798  0  4.11765  0  0  0.737425  0  4.108648  0  0  0.232754  0.682659  0  4.123066  0
N  N28  1  0.56812238  0.79391431  0.67157033  1  0  -0.525186  0  3.195791  0  0  -0.478513  0  3.399229  0  0  -0.4942  0  3.394978  0  0  -0.610248  -0.467776  0  3.40249  0
N  N29  1  0.86494564  0.32451418  0.30623177  1  0  -0.515691  0  3.189334  0  0  -0.468965  0  3.394451  0  0  -0.483999  0  3.389768  0  0  -0.605763  -0.458829  0  3.398183  0
O  O30  1  0.22475412  0.94608805  0.96917100  1  0  -0.700942  0  1.956662  0  0  -0.664954  0  2.204126  0  0  -0.686221  0  2.193419  0  0  -0.393594  -0.650185  0  2.211198  0
O  O31  1  0.09577793  0.75355007  0.74057975  1  0  -0.706486  0  1.984413  0  0  -0.656295  0  2.218642  0  0  -0.678633  0  2.207014  0  0  -0.385603  -0.640629  0  2.226203  0
O  O32  1  0.71020776  0.41306298  0.64883097  1  0  -0.724773  0  1.925511  0  0  -0.680718  0  2.168222  0  0  -0.702227  0  2.155775  0  0  -0.408986  -0.665743  0  2.176454  0
O  O33  1  0.28695591  0.46026196  0.60774259  1  0  -0.750569  0  2.000484  0  0  -0.695235  0  2.234682  0  0  -0.718966  0  2.222667  0  0  -0.392565  -0.678517  0  2.242356  0
O  O34  1  0.30930373  0.27928868  0.22642743  1  0  -0.710276  0  1.968177  0  0  -0.659138  0  2.204891  0  0  -0.680878  0  2.192954  0  0  -0.380006  -0.643877  0  2.212566  0
O  O35  1  0.22251561  0.44274325  0.98873570  1  0  -0.70585  0  1.94066  0  0  -0.669418  0  2.182994  0  0  -0.690749  0  2.172021  0  0  -0.39606  -0.654526  0  2.19012  0
O  O36  1  0.57455590  0.93498578  0.35390401  1  0  -0.743689  0  1.943811  0  0  -0.698622  0  2.185249  0  0  -0.720941  0  2.173101  0  0  -0.402203  -0.682923  0  2.193038  0
O  O37  1  0.94134504  0.97992562  0.26628653  1  0  -0.714049  0  1.97778  0  0  -0.662966  0  2.216233  0  0  -0.686066  0  2.204736  0  0  -0.378991  -0.646927  0  2.223765  0
