# generated using pymatgen
data_AlH9C15N2ClO5
_symmetry_space_group_name_H-M   'P 1'
_cell_length_a   6.64636179
_cell_length_b   16.94428893
_cell_length_c   17.74971489
_cell_angle_alpha   86.62261014
_cell_angle_beta   79.86036139
_cell_angle_gamma   83.26688089
_symmetry_Int_Tables_number   1
_chemical_formula_structural   AlH9C15N2ClO5
_chemical_formula_sum   'Al2 H18 C30 N4 Cl2 O10'
_cell_volume   1952.64571789
_cell_formula_units_Z   2
loop_
 _symmetry_equiv_pos_site_id
 _symmetry_equiv_pos_as_xyz
  1  'x, y, z'
loop_
 _atom_site_type_symbol
 _atom_site_label
 _atom_site_symmetry_multiplicity
 _atom_site_fract_x
 _atom_site_fract_y
 _atom_site_fract_z
 _atom_site_occupancy
 _atom_site_pbe_bader_charge
 _atom_site_pbe_bader_spin_density
 _atom_site_pbe_cm5_charge
 _atom_site_pbe_ddec_charge
 _atom_site_pbe_ddec_spin_density
 _atom_site_pbe_ddec_sum_bond_order
 _atom_site_pbe_magmom
Al  Al0  1  0.50271201  0.50768492  0.49726120  1  2.502162  0  0.39173  1.642739  0  2.578101  0
Al  Al1  1  0.00328716  0.50482030  0.49709562  1  2.502343  0  0.393548  1.638961  0  2.587671  0
H  H2  1  0.75251601  0.59644149  0.44482633  1  0.620151  0  0.352047  0.427675  0  0.857475  0
H  H3  1  0.26672406  0.41310537  0.54215786  1  0.649308  0  0.332041  0.404536  0  0.911238  0
H  H4  1  0.13198958  0.27004270  0.44682447  1  0.100861  0  0.110863  0.11728  0  0.994278  0
H  H5  1  0.19643218  0.12120167  0.44670772  1  0.097983  0  0.110739  0.118205  0  0.999034  0
H  H6  1  0.56589493  0.10745777  0.55195883  1  0.132996  0  0.113513  0.130807  0  0.992284  0
H  H7  1  0.37489072  0.90086384  0.55583031  1  0.11974  0  0.113985  0.131342  0  0.992464  0
H  H8  1  0.83663267  0.89318980  0.45351228  1  0.12626  0  0.109645  0.116807  0  1.003282  0
H  H9  1  0.90165196  0.74451813  0.45512804  1  0.099604  0  0.107606  0.109539  0  1.002153  0
H  H10  1  0.66081341  0.52490396  0.26449201  1  0.075633  0  0.106488  0.107963  0  1.012751  0
H  H11  1  0.73552088  0.52453706  0.12123303  1  0.063578  0  0.09921  0.107568  0  1.009773  0
H  H12  1  0.14201175  0.44399825  0.12321861  1  0.063513  0  0.104729  0.119192  0  0.998839  0
H  H13  1  0.87383403  0.46881153  0.87784735  1  0.065643  0  0.10423  0.116528  0  0.997219  0
H  H14  1  0.32904357  0.55970485  0.72440691  1  0.125441  0  0.105383  0.106806  0  1.014717  0
H  H15  1  0.24097573  0.55390571  0.86742868  1  0.027888  0  0.099966  0.10931  0  1.008593  0
H  H16  1  0.98383314  0.45223366  0.32753820  1  0.512001  0  0.308535  0.324287  0  0.961111  0
H  H17  1  0.92370899  0.42655226  0.24167509  1  0.456678  0  0.30559  0.30079  0  0.95915  0
H  H18  1  0.04831127  0.48050219  0.67309355  1  0.496023  0  0.307782  0.321552  0  0.97785  0
H  H19  1  0.11525104  0.46047082  0.76408266  1  0.445307  0  0.30629  0.301127  0  0.962757  0
C  C20  1  0.32629544  0.49373640  0.35840396  1  1.536061  0  0.257943  0.651208  0  4.095691  0
C  C21  1  0.20374970  0.65006507  0.50077050  1  1.572938  0  0.272097  0.661983  0  4.080994  0
C  C22  1  0.68002033  0.51490658  0.63588471  1  1.488414  0  0.254589  0.6431  0  4.10508  0
C  C23  1  0.79628088  0.36174069  0.49810702  1  1.53708  0  0.270768  0.657357  0  4.082  0
C  C24  1  0.81662393  0.27295069  0.50052171  1  0.036021  0  -0.012106  -0.100574  0  3.909229  0
C  C25  1  0.00989895  0.23331631  0.47013207  1  0.013885  0  -0.075994  -0.06498  0  3.982014  0
C  C26  1  0.04624987  0.15118087  0.46992457  1  0.008813  0  -0.083028  -0.15155  0  3.957215  0
C  C27  1  0.88457024  0.10590082  0.50023110  1  0.325146  0  0.093273  0.193737  0  4.049626  0
C  C28  1  0.68952791  0.14357396  0.52894390  1  0.064534  0  -0.083938  -0.213794  0  3.927201  0
C  C29  1  0.65628192  0.22628952  0.53067183  1  0.012159  0  0.027436  0.151015  0  3.995333  0
C  C30  1  0.27258496  0.86608297  0.53328776  1  -0.010072  0  -0.084084  -0.212867  0  3.927324  0
C  C31  1  0.10310332  0.90533489  0.50442984  1  0.367928  0  0.091636  0.192444  0  4.044584  0
C  C32  1  0.96736753  0.86178153  0.47596650  1  -0.003693  0  -0.084196  -0.153288  0  3.95628  0
C  C33  1  0.00445725  0.77964070  0.47688712  1  -0.037934  0  -0.076385  -0.064375  0  3.991293  0
C  C34  1  0.17367147  0.73856011  0.50550345  1  0.050637  0  -0.011589  -0.097569  0  3.91475  0
C  C35  1  0.30624800  0.78320917  0.53516575  1  0.015654  0  0.025006  0.144073  0  4.02081  0
C  C36  1  0.36286202  0.48537396  0.27470103  1  0.036455  0  -0.034276  -0.17743  0  3.936558  0
C  C37  1  0.55044962  0.50592864  0.23242357  1  -0.149686  0  -0.091312  -0.082784  0  4.060062  0
C  C38  1  0.59263164  0.50579008  0.15331209  1  0.018284  0  -0.11098  -0.186582  0  4.005406  0
C  C39  1  0.44122150  0.48458024  0.11329068  1  0.114174  0  0.000354  0.168352  0  4.149682  0
C  C40  1  0.25670622  0.46118057  0.15437392  1  -0.047222  0  -0.100872  -0.260597  0  3.888545  0
C  C41  1  0.21245138  0.46093297  0.23513583  1  0.512361  0  0.111543  0.314809  0  4.07599  0
C  C42  1  0.47511085  0.49068772  0.03213733  1  0.056658  0  -0.044231  -0.10501  0  4.100331  0
C  C43  1  0.50830205  0.49970854  0.96247009  1  -0.506696  0  -0.042149  -0.100617  0  4.098913  0
C  C44  1  0.55292620  0.50829267  0.88151455  1  0.129743  0  0.000885  0.170272  0  4.15405  0
C  C45  1  0.75426795  0.48898315  0.84396655  1  -0.015151  0  -0.100078  -0.256524  0  3.884911  0
C  C46  1  0.80758049  0.49309173  0.76324387  1  0.490131  0  0.116581  0.322333  0  4.07423  0
C  C47  1  0.64639848  0.51672176  0.71995323  1  0.012069  0  -0.036588  -0.186628  0  3.939652  0
C  C48  1  0.44611422  0.53917237  0.75917617  1  -0.045873  0  -0.089279  -0.07415  0  4.056078  0
C  C49  1  0.39636740  0.53568413  0.83815975  1  -0.0197  0  -0.113458  -0.194402  0  4.008839  0
N  N50  1  0.90259891  0.02190008  0.50336683  1  -0.480216  0  -0.140155  -0.123116  0  3.254916  0
N  N51  1  0.08302535  0.98929822  0.50538854  1  -0.457891  0  -0.140555  -0.124415  0  3.251917  0
N  N52  1  0.03262841  0.43538708  0.27271213  1  -1.292385  0  -0.591366  -0.616678  0  3.318689  0
N  N53  1  0.00602448  0.47214276  0.73061443  1  -1.275643  0  -0.584827  -0.603834  0  3.360542  0
Cl  Cl54  1  0.41376738  0.26512473  0.57476693  1  -0.195019  0  0.020741  -0.053969  0  1.531938  0
Cl  Cl55  1  0.50829896  0.73953755  0.57792366  1  -0.174842  0  0.021258  -0.04264  0  1.529782  0
O  O56  1  0.48130265  0.49483075  0.39159066  1  -1.263018  0  -0.245609  -0.598562  0  2.340077  0
O  O57  1  0.04251598  0.61517851  0.50433268  1  -1.252741  0  -0.23383  -0.589016  0  2.331386  0
O  O58  1  0.86713466  0.50366731  0.60064327  1  -1.272944  0  -0.244606  -0.614798  0  2.395709  0
O  O59  1  0.61750779  0.39878712  0.50273867  1  -1.255291  0  -0.232957  -0.595833  0  2.413616  0
O  O60  1  0.52363316  0.52199078  0.60220914  1  -1.262786  0  -0.246545  -0.605036  0  2.35689  0
O  O61  1  0.96239847  0.39438711  0.49072176  1  -1.248422  0  -0.236602  -0.590894  0  2.338471  0
O  O62  1  0.13821428  0.50176191  0.39283328  1  -1.276501  0  -0.244497  -0.617437  0  2.380118  0
O  O63  1  0.38660785  0.61606486  0.49129256  1  -1.254336  0  -0.231554  -0.597426  0  2.394104  0
O  O64  1  0.76054685  0.54076575  0.46128692  1  -1.425862  0  -0.44996  -0.987057  0  2.19958  0
O  O65  1  0.24778539  0.47039706  0.53251600  1  -1.458334  0  -0.450424  -0.979265  0  2.194313  0
