# generated using pymatgen
data_HgH5C6NCl2O
_symmetry_space_group_name_H-M   'P 1'
_cell_length_a   7.80331100
_cell_length_b   7.80322965
_cell_length_c   15.12430911
_cell_angle_alpha   86.05615721
_cell_angle_beta   86.05350881
_cell_angle_gamma   81.79692185
_symmetry_Int_Tables_number   1
_chemical_formula_structural   HgH5C6NCl2O
_chemical_formula_sum   'Hg4 H20 C24 N4 Cl8 O4'
_cell_volume   907.72835387
_cell_formula_units_Z   4
loop_
 _symmetry_equiv_pos_site_id
 _symmetry_equiv_pos_as_xyz
  1  'x, y, z'
loop_
 _atom_site_type_symbol
 _atom_site_label
 _atom_site_symmetry_multiplicity
 _atom_site_fract_x
 _atom_site_fract_y
 _atom_site_fract_z
 _atom_site_occupancy
 _atom_site_hle17_bader_spin_density
 _atom_site_hle17_ddec_charge
 _atom_site_hle17_ddec_spin_density
 _atom_site_hle17_ddec_sum_bond_order
 _atom_site_hle17_magmom
 _atom_site_hse06_10hf_bader_spin_density
 _atom_site_hse06_10hf_ddec_charge
 _atom_site_hse06_10hf_ddec_spin_density
 _atom_site_hse06_10hf_ddec_sum_bond_order
 _atom_site_hse06_10hf_magmom
 _atom_site_hse06_bader_spin_density
 _atom_site_hse06_ddec_charge
 _atom_site_hse06_ddec_spin_density
 _atom_site_hse06_ddec_sum_bond_order
 _atom_site_hse06_magmom
 _atom_site_pbe_bader_spin_density
 _atom_site_pbe_cm5_charge
 _atom_site_pbe_ddec_charge
 _atom_site_pbe_ddec_spin_density
 _atom_site_pbe_ddec_sum_bond_order
 _atom_site_pbe_magmom
Hg  Hg0  1  0.01199829  0.87413202  0.87544048  1  0  0.771542  0  2.082053  0  0  0.61823  0  2.577866  0  0  0.670302  0  2.54124  0  0  0.500784  0.582469  0  2.602191  0
Hg  Hg1  1  0.12586542  0.98805649  0.62454300  1  0  0.771577  0  2.082126  0  0  0.618348  0  2.577961  0  0  0.670414  0  2.541342  0  0  0.500874  0.582585  0  2.602281  0
Hg  Hg2  1  0.98801732  0.12586232  0.12455351  1  0  0.771538  0  2.082084  0  0  0.618249  0  2.577919  0  0  0.670315  0  2.541295  0  0  0.500823  0.582492  0  2.602245  0
Hg  Hg3  1  0.87413598  0.01196553  0.37544649  1  0  0.771532  0  2.082026  0  0  0.61825  0  2.577841  0  0  0.670315  0  2.541224  0  0  0.50086  0.582495  0  2.60217  0
H  H4  1  0.40933760  0.86920389  0.84517147  1  0  0.090701  0  0.953444  0  0  0.097033  0  1.020363  0  0  0.099664  0  1.017771  0  0  0.106465  0.095022  0  1.022356  0
H  H5  1  0.13075147  0.59074594  0.65480884  1  0  0.090673  0  0.953392  0  0  0.096921  0  1.020421  0  0  0.099549  0  1.017833  0  0  0.106482  0.094912  0  1.022413  0
H  H6  1  0.59068777  0.13077085  0.15483877  1  0  0.090644  0  0.953369  0  0  0.09689  0  1.020384  0  0  0.099519  0  1.017794  0  0  0.106409  0.094881  0  1.022376  0
H  H7  1  0.86922383  0.40929405  0.34518031  1  0  0.09067  0  0.953375  0  0  0.096989  0  1.020318  0  0  0.099619  0  1.017729  0  0  0.10644  0.09498  0  1.022312  0
H  H8  1  0.68945592  0.66804835  0.84558861  1  0  0.118608  0  0.980124  0  0  0.124419  0  1.046102  0  0  0.127532  0  1.044454  0  0  0.100556  0.122088  0  1.047582  0
H  H9  1  0.33188966  0.31059400  0.65440582  1  0  0.118773  0  0.979945  0  0  0.124469  0  1.046022  0  0  0.12758  0  1.044379  0  0  0.10064  0.122137  0  1.047501  0
H  H10  1  0.31056826  0.33192513  0.15442040  1  0  0.118602  0  0.980191  0  0  0.12439  0  1.046162  0  0  0.127497  0  1.044521  0  0  0.100595  0.12206  0  1.047642  0
H  H11  1  0.66806169  0.68941501  0.34559805  1  0  0.11872  0  0.98028  0  0  0.124402  0  1.046339  0  0  0.127511  0  1.044695  0  0  0.100617  0.122077  0  1.04781  0
H  H12  1  0.68347140  0.34910841  0.88242886  1  0  0.109518  0  0.940018  0  0  0.117673  0  1.000194  0  0  0.120755  0  0.997558  0  0  0.106503  0.115376  0  1.002186  0
H  H13  1  0.65082378  0.31656649  0.61758925  1  0  0.109509  0  0.940151  0  0  0.117777  0  1.000238  0  0  0.120858  0  0.997595  0  0  0.106521  0.115479  0  1.002224  0
H  H14  1  0.31654765  0.65085112  0.11758090  1  0  0.109543  0  0.940174  0  0  0.11773  0  1.000286  0  0  0.120807  0  0.997652  0  0  0.10653  0.115439  0  1.002278  0
H  H15  1  0.34913464  0.68343717  0.38242513  1  0  0.10954  0  0.940156  0  0  0.117791  0  1.000232  0  0  0.12087  0  0.997595  0  0  0.106543  0.1155  0  1.002221  0
H  H16  1  0.39171402  0.24518383  0.91211359  1  0  0.12042  0  0.952513  0  0  0.126155  0  1.019363  0  0  0.129371  0  1.017966  0  0  0.10337  0.123737  0  1.020606  0
H  H17  1  0.75480019  0.60829129  0.58790109  1  0  0.120388  0  0.952727  0  0  0.126159  0  1.019543  0  0  0.129376  0  1.018156  0  0  0.103358  0.123793  0  1.020734  0
H  H18  1  0.60828774  0.75480867  0.08789027  1  0  0.120451  0  0.952535  0  0  0.126124  0  1.019466  0  0  0.129341  0  1.018075  0  0  0.103334  0.12374  0  1.020668  0
H  H19  1  0.24518589  0.39169035  0.41210513  1  0  0.120336  0  0.95263  0  0  0.126077  0  1.019472  0  0  0.129294  0  1.018082  0  0  0.103326  0.123688  0  1.02068  0
H  H20  1  0.08757811  0.29937339  0.92537057  1  0  0.053267  0  0.946768  0  0  0.055353  0  1.024672  0  0  0.057042  0  1.020088  0  0  0.096313  0.053999  0  1.028179  0
H  H21  1  0.70063326  0.91245300  0.57462332  1  0  0.053138  0  0.946787  0  0  0.055267  0  1.024747  0  0  0.056968  0  1.020134  0  0  0.096289  0.05391  0  1.028281  0
H  H22  1  0.91243375  0.70060559  0.07462086  1  0  0.053128  0  0.947049  0  0  0.055292  0  1.024904  0  0  0.056981  0  1.020321  0  0  0.096335  0.053942  0  1.02841  0
H  H23  1  0.29937639  0.08754927  0.42536464  1  0  0.053104  0  0.946922  0  0  0.055271  0  1.024801  0  0  0.056974  0  1.020192  0  0  0.09624  0.053906  0  1.028322  0
C  C24  1  0.41212639  0.72987694  0.85905838  1  0  0.136861  0  3.663622  0  0  0.100713  0  3.917496  0  0  0.107196  0  3.937249  0  0  0.052461  0.096564  0  3.904042  0
C  C25  1  0.27009430  0.58793585  0.64092627  1  0  0.137181  0  3.663488  0  0  0.101169  0  3.917503  0  0  0.107658  0  3.93725  0  0  0.0524  0.097022  0  3.904037  0
C  C26  1  0.58788109  0.27011022  0.14095075  1  0  0.137167  0  3.66279  0  0  0.101141  0  3.916674  0  0  0.107631  0  3.936422  0  0  0.052606  0.096992  0  3.90322  0
C  C27  1  0.72988424  0.41208338  0.35906555  1  0  0.136918  0  3.663221  0  0  0.100782  0  3.917181  0  0  0.107263  0  3.936935  0  0  0.052447  0.096641  0  3.903723  0
C  C28  1  0.56773992  0.61649070  0.86000891  1  0  -0.075816  0  3.656662  0  0  -0.091225  0  3.908207  0  0  -0.097113  0  3.929411  0  0  -0.066259  -0.087413  0  3.893971  0
C  C29  1  0.38346487  0.43231195  0.63998663  1  0  -0.076386  0  3.6566  0  0  -0.091641  0  3.908273  0  0  -0.097541  0  3.929483  0  0  -0.06635  -0.087824  0  3.894035  0
C  C30  1  0.43225041  0.38350111  0.14000005  1  0  -0.076015  0  3.656752  0  0  -0.091423  0  3.908317  0  0  -0.097312  0  3.929514  0  0  -0.066364  -0.087609  0  3.894089  0
C  C31  1  0.61650124  0.56773115  0.36001069  1  0  -0.076087  0  3.65599  0  0  -0.091374  0  3.907654  0  0  -0.097261  0  3.928855  0  0  -0.06632  -0.087565  0  3.893427  0
C  C32  1  0.56391945  0.44004917  0.87967577  1  0  0.011123  0  3.663186  0  0  -0.004643  0  3.907271  0  0  -0.002103  0  3.925513  0  0  -0.055148  -0.006113  0  3.894841  0
C  C33  1  0.55990611  0.43610089  0.62033322  1  0  0.011474  0  3.662656  0  0  -0.004439  0  3.906772  0  0  -0.001887  0  3.92501  0  0  -0.055096  -0.005911  0  3.894362  0
C  C34  1  0.43606567  0.55991579  0.12033511  1  0  0.01121  0  3.663387  0  0  -0.004541  0  3.907412  0  0  -0.001995  0  3.925645  0  0  -0.055229  -0.006014  0  3.895004  0
C  C35  1  0.44006330  0.56389445  0.37967576  1  0  0.011237  0  3.663554  0  0  -0.004618  0  3.907566  0  0  -0.002081  0  3.925817  0  0  -0.05519  -0.006088  0  3.89515  0
C  C36  1  0.40330288  0.38171950  0.89644200  1  0  -0.096997  0  3.662576  0  0  -0.117886  0  3.90698  0  0  -0.123627  0  3.929848  0  0  -0.061511  -0.11406  0  3.89165  0
C  C37  1  0.61826158  0.59672844  0.60356403  1  0  -0.096954  0  3.6621  0  0  -0.117959  0  3.906521  0  0  -0.123707  0  3.929373  0  0  -0.061493  -0.114179  0  3.891175  0
C  C38  1  0.59669040  0.61825408  0.10356558  1  0  -0.097058  0  3.661894  0  0  -0.117996  0  3.906298  0  0  -0.123747  0  3.929177  0  0  -0.061459  -0.114197  0  3.890951  0
C  C39  1  0.38172304  0.40329578  0.39643595  1  0  -0.096837  0  3.662463  0  0  -0.117796  0  3.906847  0  0  -0.123531  0  3.929694  0  0  -0.061484  -0.113993  0  3.891498  0
C  C40  1  0.25278630  0.50178794  0.89239546  1  0  0.136696  0  3.765879  0  0  0.136893  0  4.005213  0  0  0.137924  0  4.02888  0  0  0.10499  0.136271  0  3.989286  0
C  C41  1  0.49819160  0.74724561  0.60759878  1  0  0.136221  0  3.765404  0  0  0.136846  0  4.004456  0  0  0.137883  0  4.028126  0  0  0.105073  0.136219  0  3.988543  0
C  C42  1  0.74724293  0.49819941  0.10760620  1  0  0.136557  0  3.765139  0  0  0.137021  0  4.004247  0  0  0.138056  0  4.02792  0  0  0.105038  0.136395  0  3.988321  0
C  C43  1  0.50180101  0.25274720  0.39239617  1  0  0.136316  0  3.765205  0  0  0.136789  0  4.004322  0  0  0.137823  0  4.027997  0  0  0.105146  0.136168  0  3.988395  0
C  C44  1  0.08217665  0.43998285  0.90786085  1  0  0.315439  0  3.650451  0  0  0.269873  0  3.917897  0  0  0.291634  0  3.917632  0  0  0.100114  0.254896  0  3.918128  0
C  C45  1  0.56002742  0.91787203  0.59212879  1  0  0.315694  0  3.64987  0  0  0.269876  0  3.917464  0  0  0.29164  0  3.917196  0  0  0.100215  0.254888  0  3.917718  0
C  C46  1  0.91785575  0.56001071  0.09213250  1  0  0.315394  0  3.651418  0  0  0.269637  0  3.918921  0  0  0.291388  0  3.918667  0  0  0.100057  0.254668  0  3.919146  0
C  C47  1  0.43998341  0.08213148  0.40785973  1  0  0.315638  0  3.650585  0  0  0.26987  0  3.918128  0  0  0.29162  0  3.917877  0  0  0.100166  0.254904  0  3.91834  0
N  N48  1  0.25842054  0.67310152  0.87473650  1  0  -0.285752  0  3.301646  0  0  -0.202159  0  3.553894  0  0  -0.224208  0  3.57948  0  0  -0.293596  -0.187375  0  3.536321  0
N  N49  1  0.32687666  0.74164287  0.62524754  1  0  -0.285656  0  3.301987  0  0  -0.202441  0  3.554464  0  0  -0.224492  0  3.580041  0  0  -0.293769  -0.187658  0  3.536903  0
N  N50  1  0.74160723  0.32687434  0.12526897  1  0  -0.285906  0  3.301329  0  0  -0.202468  0  3.553594  0  0  -0.224523  0  3.579178  0  0  -0.293713  -0.187681  0  3.536019  0
N  N51  1  0.67312022  0.25838576  0.37473790  1  0  -0.2856  0  3.302226  0  0  -0.202162  0  3.554521  0  0  -0.22421  0  3.580109  0  0  -0.293698  -0.187381  0  3.536946  0
Cl  Cl52  1  0.76332581  0.00475409  0.96373558  1  0  -0.476121  0  0.965523  0  0  -0.417521  0  1.236278  0  0  -0.436531  0  1.218098  0  0  -0.273838  -0.40444  0  1.248642  0
Cl  Cl53  1  0.99522578  0.23672746  0.53626474  1  0  -0.476139  0  0.965574  0  0  -0.417479  0  1.236251  0  0  -0.436495  0  1.218075  0  0  -0.273846  -0.404394  0  1.248605  0
Cl  Cl54  1  0.23670346  0.99523330  0.03626939  1  0  -0.476124  0  0.965449  0  0  -0.417506  0  1.236169  0  0  -0.436518  0  1.217994  0  0  -0.273863  -0.404417  0  1.248523  0
Cl  Cl55  1  0.00476878  0.76330015  0.46373273  1  0  -0.47612  0  0.965507  0  0  -0.417503  0  1.236222  0  0  -0.436518  0  1.218048  0  0  -0.27386  -0.404415  0  1.248584  0
Cl  Cl56  1  0.17849002  0.11291920  0.78183295  1  0  -0.519605  0  1.027045  0  0  -0.463001  0  1.308567  0  0  -0.48531  0  1.288816  0  0  -0.280977  -0.446736  0  1.321617  0
Cl  Cl57  1  0.88706593  0.82159318  0.71816285  1  0  -0.519597  0  1.027123  0  0  -0.46301  0  1.308694  0  0  -0.485329  0  1.288951  0  0  -0.28097  -0.446743  0  1.321753  0
Cl  Cl58  1  0.82155437  0.88705713  0.21816789  1  0  -0.519586  0  1.027053  0  0  -0.462973  0  1.308567  0  0  -0.485281  0  1.288815  0  0  -0.280986  -0.446709  0  1.321633  0
Cl  Cl59  1  0.11292355  0.17844755  0.28183365  1  0  -0.519601  0  1.027055  0  0  -0.463037  0  1.308641  0  0  -0.485345  0  1.288881  0  0  -0.281002  -0.446769  0  1.321705  0
O  O60  1  0.94306775  0.53549047  0.90272797  1  0  -0.409924  0  2.068365  0  0  -0.349925  0  2.296333  0  0  -0.372537  0  2.294973  0  0  -0.240254  -0.334321  0  2.297012  0
O  O61  1  0.46452423  0.05697951  0.59725617  1  0  -0.409873  0  2.068456  0  0  -0.349852  0  2.296654  0  0  -0.372472  0  2.295303  0  0  -0.240311  -0.334222  0  2.297272  0
O  O62  1  0.05693404  0.46451346  0.09726089  1  0  -0.409532  0  2.069305  0  0  -0.349538  0  2.297403  0  0  -0.372136  0  2.296048  0  0  -0.240117  -0.333948  0  2.298078  0
O  O63  1  0.53548919  0.94303812  0.40273566  1  0  -0.409762  0  2.068711  0  0  -0.349753  0  2.296829  0  0  -0.372363  0  2.295478  0  0  -0.240219  -0.334159  0  2.297503  0
