# generated using pymatgen
data_AgH11C26SN3(OF)3
_symmetry_space_group_name_H-M   'P 1'
_cell_length_a   9.83469731
_cell_length_b   13.38225302
_cell_length_c   13.52650949
_cell_angle_alpha   109.08141599
_cell_angle_beta   93.39457374
_cell_angle_gamma   93.50187529
_symmetry_Int_Tables_number   1
_chemical_formula_structural   AgH11C26SN3(OF)3
_chemical_formula_sum   'Ag2 H22 C52 S2 N6 O6 F6'
_cell_volume   1673.34681093
_cell_formula_units_Z   2
loop_
 _symmetry_equiv_pos_site_id
 _symmetry_equiv_pos_as_xyz
  1  'x, y, z'
loop_
 _atom_site_type_symbol
 _atom_site_label
 _atom_site_symmetry_multiplicity
 _atom_site_fract_x
 _atom_site_fract_y
 _atom_site_fract_z
 _atom_site_occupancy
 _atom_site_hle17_bader_spin_density
 _atom_site_hle17_ddec_charge
 _atom_site_hle17_ddec_spin_density
 _atom_site_hle17_ddec_sum_bond_order
 _atom_site_hle17_magmom
 _atom_site_hse06_10hf_bader_spin_density
 _atom_site_hse06_10hf_ddec_charge
 _atom_site_hse06_10hf_ddec_spin_density
 _atom_site_hse06_10hf_ddec_sum_bond_order
 _atom_site_hse06_10hf_magmom
 _atom_site_hse06_bader_spin_density
 _atom_site_hse06_ddec_charge
 _atom_site_hse06_ddec_spin_density
 _atom_site_hse06_ddec_sum_bond_order
 _atom_site_hse06_magmom
 _atom_site_pbe_bader_spin_density
 _atom_site_pbe_cm5_charge
 _atom_site_pbe_ddec_charge
 _atom_site_pbe_ddec_spin_density
 _atom_site_pbe_ddec_sum_bond_order
 _atom_site_pbe_magmom
Ag  Ag0  1  0.29815380  0.42672925  0.66164399  1  0  0.683151  0  1.63239  0  0  0.571871  0  2.128863  0  0  0.586281  0  2.081991  0  0  0.569662  0.563533  0  2.160424  0
Ag  Ag1  1  0.70184838  0.57327269  0.33835291  1  0  0.683253  0  1.632349  0  0  0.571994  0  2.128818  0  0  0.586402  0  2.081944  0  0  0.569697  0.563664  0  2.160383  0
H  H2  1  0.61059899  0.44055179  0.99058156  1  0  0.101146  0  0.941672  0  0  0.113927  0  0.995745  0  0  0.116267  0  0.995369  0  0  0.108785  0.112227  0  0.9961  0
H  H3  1  0.38939869  0.55944705  0.00941411  1  0  0.101147  0  0.941622  0  0  0.11394  0  0.995693  0  0  0.11628  0  0.995315  0  0  0.108797  0.112239  0  0.99605  0
H  H4  1  0.81234049  0.49184385  0.12290277  1  0  0.119271  0  0.964089  0  0  0.125518  0  1.031708  0  0  0.129611  0  1.028544  0  0  0.10519  0.122488  0  1.034205  0
H  H5  1  0.18765651  0.50815739  0.87709363  1  0  0.119206  0  0.96411  0  0  0.125473  0  1.031711  0  0  0.129566  0  1.02855  0  0  0.105195  0.122443  0  1.03421  0
H  H6  1  0.97356954  0.71062172  0.97543656  1  0  0.113995  0  0.943779  0  0  0.1225  0  1.002685  0  0  0.125798  0  1.000898  0  0  0.108222  0.120087  0  1.004148  0
H  H7  1  0.02642438  0.28937958  0.02456117  1  0  0.113995  0  0.943781  0  0  0.122494  0  1.002695  0  0  0.125792  0  1.000908  0  0  0.10824  0.12008  0  1.004158  0
H  H8  1  0.77541352  0.66002431  0.84379062  1  0  0.126191  0  0.932178  0  0  0.138748  0  0.98463  0  0  0.14178  0  0.982972  0  0  0.116766  0.136494  0  0.985964  0
H  H9  1  0.22458360  0.33997056  0.15620375  1  0  0.126178  0  0.932127  0  0  0.138712  0  0.984612  0  0  0.14174  0  0.982955  0  0  0.116768  0.136457  0  0.985945  0
H  H10  1  0.49754973  0.69085867  0.50856861  1  0  0.122923  0  0.932241  0  0  0.133725  0  0.988204  0  0  0.137233  0  0.985625  0  0  0.11759  0.131161  0  0.990185  0
H  H11  1  0.50244810  0.30914259  0.49143671  1  0  0.123013  0  0.93229  0  0  0.133805  0  0.988255  0  0  0.137313  0  0.985674  0  0  0.117603  0.131236  0  0.990239  0
H  H12  1  0.88141160  0.19907250  0.42146247  1  0  0.128103  0  0.972264  0  0  0.13651  0  1.032329  0  0  0.140108  0  1.029931  0  0  0.110359  0.133862  0  1.03413  0
H  H13  1  0.11859297  0.80092463  0.57853302  1  0  0.128094  0  0.9723  0  0  0.136489  0  1.032378  0  0  0.140089  0  1.029975  0  0  0.110353  0.133841  0  1.034186  0
H  H14  1  0.68897000  0.05788590  0.35786295  1  0  0.11075  0  0.924099  0  0  0.123723  0  0.974796  0  0  0.126878  0  0.973741  0  0  0.112491  0.121443  0  0.975692  0
H  H15  1  0.31103064  0.94211290  0.64213730  1  0  0.110726  0  0.924125  0  0  0.123693  0  0.974828  0  0  0.126848  0  0.973772  0  0  0.112476  0.121414  0  0.975724  0
H  H16  1  0.79347070  0.94480866  0.61522058  1  0  0.113304  0  0.920015  0  0  0.12877  0  0.966375  0  0  0.131654  0  0.965876  0  0  0.116702  0.12668  0  0.96687  0
H  H17  1  0.20652704  0.05519179  0.38478374  1  0  0.113308  0  0.920122  0  0  0.128748  0  0.966497  0  0  0.13163  0  0.966  0  0  0.116691  0.126661  0  0.966992  0
H  H18  1  0.98739109  0.08480765  0.67819688  1  0  0.109784  0  0.924473  0  0  0.123989  0  0.974454  0  0  0.126647  0  0.973913  0  0  0.116185  0.122057  0  0.974936  0
H  H19  1  0.01260976  0.91519274  0.32180463  1  0  0.109792  0  0.924488  0  0  0.124  0  0.974467  0  0  0.126658  0  0.973926  0  0  0.116189  0.122069  0  0.974948  0
H  H20  1  0.32521727  0.79997804  0.26492908  1  0  0.114734  0  0.924735  0  0  0.127519  0  0.97687  0  0  0.131004  0  0.974979  0  0  0.113596  0.125005  0  0.97828  0
H  H21  1  0.67478899  0.20002464  0.73507345  1  0  0.114788  0  0.924522  0  0  0.127556  0  0.976682  0  0  0.131044  0  0.974782  0  0  0.113582  0.125037  0  0.978099  0
H  H22  1  0.12984508  0.52655132  0.31901396  1  0  0.135722  0  0.938196  0  0  0.14369  0  0.999585  0  0  0.147343  0  0.997254  0  0  0.118076  0.140989  0  1.001327  0
H  H23  1  0.87016063  0.47344658  0.68098110  1  0  0.135801  0  0.938165  0  0  0.143754  0  0.999558  0  0  0.147409  0  0.997221  0  0  0.11809  0.141055  0  1.001297  0
C  C24  1  0.31518722  0.60047890  0.41814077  1  0  0.044657  0  3.874834  0  0  0.06638  0  4.107578  0  0  0.063048  0  4.12931  0  0  0.013705  0.068356  0  4.093018  0
C  C25  1  0.68480810  0.39952475  0.58185483  1  0  0.04449  0  3.875055  0  0  0.06643  0  4.10747  0  0  0.063098  0  4.129194  0  0  0.013686  0.068398  0  4.092925  0
C  C26  1  0.67765225  0.54978724  0.91143980  1  0  -0.000826  0  3.902254  0  0  0.022909  0  4.135511  0  0  0.019026  0  4.157867  0  0  -0.001021  0.025416  0  4.120491  0
C  C27  1  0.32235270  0.45020510  0.08855270  1  0  -0.000949  0  3.902239  0  0  0.022802  0  4.135502  0  0  0.018916  0  4.157859  0  0  -0.001042  0.025305  0  4.120485  0
C  C28  1  0.68901936  0.50115735  0.98936341  1  0  -0.078362  0  3.738546  0  0  -0.102933  0  3.986778  0  0  -0.103622  0  4.007669  0  0  -0.07419  -0.102227  0  3.97246  0
C  C29  1  0.31097902  0.49883909  0.01063079  1  0  -0.078346  0  3.738494  0  0  -0.102931  0  3.986732  0  0  -0.103619  0  4.007628  0  0  -0.074215  -0.102224  0  3.972417  0
C  C30  1  0.80086775  0.52953792  0.06289806  1  0  -0.097336  0  3.676621  0  0  -0.11667  0  3.923111  0  0  -0.120393  0  3.941941  0  0  -0.07409  -0.114202  0  3.910494  0
C  C31  1  0.19912984  0.47046012  0.93709661  1  0  -0.097306  0  3.67676  0  0  -0.116649  0  3.923302  0  0  -0.120387  0  3.942125  0  0  -0.074129  -0.114178  0  3.910686  0
C  C32  1  0.90348046  0.60699254  0.05967774  1  0  0.134637  0  3.869298  0  0  0.150006  0  4.092732  0  0  0.154411  0  4.11364  0  0  0.013075  0.147005  0  4.078636  0
C  C33  1  0.09651671  0.39301029  0.94032140  1  0  0.134644  0  3.869018  0  0  0.149963  0  4.092523  0  0  0.15441  0  4.113367  0  0  0.013143  0.146954  0  4.078441  0
C  C34  1  0.89257409  0.65363149  0.98016885  1  0  -0.088647  0  3.674335  0  0  -0.106161  0  3.91585  0  0  -0.110413  0  3.936131  0  0  -0.069639  -0.103322  0  3.902158  0
C  C35  1  0.10742190  0.34636976  0.01982676  1  0  -0.088594  0  3.674443  0  0  -0.10607  0  3.915938  0  0  -0.110337  0  3.93621  0  0  -0.069641  -0.103226  0  3.902246  0
C  C36  1  0.78067347  0.62549669  0.90637910  1  0  -0.064337  0  3.697158  0  0  -0.089743  0  3.942363  0  0  -0.090086  0  3.962518  0  0  -0.065871  -0.089319  0  3.92865  0
C  C37  1  0.21932400  0.37450056  0.09361531  1  0  -0.064331  0  3.697173  0  0  -0.089729  0  3.942386  0  0  -0.09007  0  3.962547  0  0  -0.065892  -0.089304  0  3.928672  0
C  C38  1  0.56233606  0.51963494  0.83696339  1  0  0.317162  0  3.742175  0  0  0.29884  0  4.001011  0  0  0.311484  0  4.019705  0  0  0.213773  0.290153  0  3.988645  0
C  C39  1  0.43767041  0.48036055  0.16302724  1  0  0.317291  0  3.742236  0  0  0.29896  0  4.001071  0  0  0.311603  0  4.019764  0  0  0.213691  0.290277  0  3.988706  0
C  C40  1  0.01674051  0.63366560  0.13534464  1  0  -0.077594  0  3.830341  0  0  -0.078012  0  4.081572  0  0  -0.081986  0  4.112792  0  0  -0.027798  -0.075315  0  4.060387  0
C  C41  1  0.98324945  0.36633575  0.86464699  1  0  -0.077624  0  3.831501  0  0  -0.078022  0  4.082707  0  0  -0.082001  0  4.113885  0  0  -0.027847  -0.075324  0  4.061525  0
C  C42  1  0.11155834  0.65075790  0.20256186  1  0  -0.093387  0  3.844241  0  0  -0.096038  0  4.101865  0  0  -0.100632  0  4.134588  0  0  -0.034267  -0.092819  0  4.079666  0
C  C43  1  0.88845396  0.34925264  0.79745090  1  0  -0.093356  0  3.845152  0  0  -0.09597  0  4.10277  0  0  -0.100558  0  4.13549  0  0  -0.034297  -0.092751  0  4.080572  0
C  C44  1  0.41952302  0.68327011  0.44552859  1  0  -0.116079  0  3.631889  0  0  -0.149744  0  3.880439  0  0  -0.1486  0  3.894917  0  0  -0.060769  -0.150256  0  3.870673  0
C  C45  1  0.58047142  0.31673516  0.55447192  1  0  -0.116098  0  3.631791  0  0  -0.14981  0  3.880274  0  0  -0.148665  0  3.894749  0  0  -0.060808  -0.150314  0  3.870506  0
C  C46  1  0.94684285  0.14867576  0.55245566  1  0  0.008385  0  3.888643  0  0  0.03086  0  4.122411  0  0  0.027649  0  4.144655  0  0  0.002995  0.032931  0  4.107423  0
C  C47  1  0.05316065  0.85132937  0.44754972  1  0  0.008319  0  3.888617  0  0  0.030908  0  4.122211  0  0  0.027699  0  4.144456  0  0  0.003038  0.032977  0  4.107229  0
C  C48  1  0.86278215  0.14185269  0.46210521  1  0  -0.068733  0  3.683157  0  0  -0.092719  0  3.928965  0  0  -0.093664  0  3.949502  0  0  -0.068353  -0.091865  0  3.914977  0
C  C49  1  0.13722275  0.85814763  0.53789723  1  0  -0.068727  0  3.683423  0  0  -0.092728  0  3.929184  0  0  -0.093675  0  3.949724  0  0  -0.068358  -0.091872  0  3.915194  0
C  C50  1  0.75476373  0.06377919  0.42758525  1  0  -0.097302  0  3.683457  0  0  -0.116678  0  3.929507  0  0  -0.120917  0  3.949662  0  0  -0.072984  -0.113851  0  3.915822  0
C  C51  1  0.24523596  0.93622043  0.57241742  1  0  -0.097157  0  3.683432  0  0  -0.116533  0  3.92948  0  0  -0.120773  0  3.949638  0  0  -0.072949  -0.113707  0  3.915795  0
C  C52  1  0.72871436  0.99172232  0.48209179  1  0  0.13305  0  3.880769  0  0  0.146122  0  4.113511  0  0  0.150734  0  4.134596  0  0  0.010219  0.143045  0  4.099131  0
C  C53  1  0.27127873  0.00828140  0.51791407  1  0  0.132918  0  3.880675  0  0  0.145996  0  4.113419  0  0  0.150608  0  4.1345  0  0  0.010223  0.14292  0  4.09904  0
C  C54  1  0.81327253  0.00063101  0.57341649  1  0  -0.106532  0  3.702347  0  0  -0.126101  0  3.950977  0  0  -0.130471  0  3.971154  0  0  -0.075181  -0.123152  0  3.93724  0
C  C55  1  0.18672445  0.99937104  0.42658609  1  0  -0.106437  0  3.70247  0  0  -0.125985  0  3.951098  0  0  -0.130352  0  3.971272  0  0  -0.075173  -0.123042  0  3.937365  0
C  C56  1  0.92142527  0.07826574  0.60842164  1  0  -0.079236  0  3.744949  0  0  -0.106007  0  4.000473  0  0  -0.106543  0  4.02109  0  0  -0.070644  -0.105442  0  3.986345  0
C  C57  1  0.07857484  0.92173624  0.39157738  1  0  -0.079238  0  3.745024  0  0  -0.106054  0  4.000518  0  0  -0.10659  0  4.021134  0  0  -0.070643  -0.105487  0  3.986391  0
C  C58  1  0.05907148  0.22681488  0.58753973  1  0  0.327244  0  3.717218  0  0  0.309987  0  3.973044  0  0  0.322076  0  3.991323  0  0  0.221183  0.301688  0  3.960938  0
C  C59  1  0.94092831  0.77318473  0.41245777  1  0  0.327286  0  3.717028  0  0  0.310002  0  3.972827  0  0  0.322087  0  3.991109  0  0  0.221147  0.301704  0  3.960722  0
C  C60  1  0.62031465  0.91090790  0.44674790  1  0  -0.09229  0  3.852918  0  0  -0.09597  0  4.10736  0  0  -0.100073  0  4.138386  0  0  -0.034178  -0.093118  0  4.086183  0
C  C61  1  0.37967247  0.08909672  0.55325644  1  0  -0.092357  0  3.852545  0  0  -0.096051  0  4.107016  0  0  -0.100156  0  4.138045  0  0  -0.034192  -0.093202  0  4.085836  0
C  C62  1  0.52845986  0.83961770  0.41849730  1  0  -0.092275  0  3.850185  0  0  -0.092113  0  4.104913  0  0  -0.095832  0  4.13557  0  0  -0.033952  -0.089537  0  4.084152  0
C  C63  1  0.47153646  0.16039472  0.58151225  1  0  -0.092222  0  3.849963  0  0  -0.092046  0  4.104709  0  0  -0.095764  0  4.135373  0  0  -0.033921  -0.089467  0  4.083941  0
C  C64  1  0.42333573  0.75589146  0.39015575  1  0  0.120804  0  3.926537  0  0  0.135807  0  4.162755  0  0  0.137193  0  4.184007  0  0  0.004331  0.134563  0  4.148493  0
C  C65  1  0.57665449  0.24411310  0.60984652  1  0  0.120899  0  3.926539  0  0  0.135892  0  4.162754  0  0  0.137277  0  4.184004  0  0  0.004352  0.134647  0  4.148485  0
C  C66  1  0.32237326  0.74410757  0.30810570  1  0  -0.122507  0  3.617121  0  0  -0.152176  0  3.856947  0  0  -0.152709  0  3.873701  0  0  -0.062357  -0.151467  0  3.845505  0
C  C67  1  0.67762330  0.25589847  0.69189664  1  0  -0.122659  0  3.616768  0  0  -0.152273  0  3.856635  0  0  -0.152802  0  3.873389  0  0  -0.062317  -0.151561  0  3.845189  0
C  C68  1  0.21609103  0.66240369  0.28285808  1  0  0.116789  0  3.921953  0  0  0.130977  0  4.159512  0  0  0.131904  0  4.181988  0  0  0.003131  0.130102  0  4.144176  0
C  C69  1  0.78391088  0.33760383  0.71714207  1  0  0.116967  0  3.921128  0  0  0.13104  0  4.158918  0  0  0.131942  0  4.181463  0  0  0.003173  0.130163  0  4.143582  0
C  C70  1  0.21215460  0.58989750  0.33852502  1  0  -0.093841  0  3.570561  0  0  -0.123681  0  3.806729  0  0  -0.12377  0  3.823769  0  0  -0.053252  -0.123252  0  3.795167  0
C  C71  1  0.78784479  0.41010608  0.66147077  1  0  -0.09396  0  3.570381  0  0  -0.123843  0  3.806607  0  0  -0.123927  0  3.823642  0  0  -0.053282  -0.123413  0  3.795048  0
C  C72  1  0.31774799  0.52387374  0.47014289  1  0  0.349145  0  3.686999  0  0  0.332993  0  3.942354  0  0  0.345428  0  3.960094  0  0  0.224585  0.324424  0  3.930755  0
C  C73  1  0.68224953  0.47612431  0.52985474  1  0  0.349215  0  3.686694  0  0  0.332995  0  3.942015  0  0  0.345436  0  3.95976  0  0  0.22456  0.32443  0  3.930417  0
C  C74  1  0.21704056  0.75069150  0.81306244  1  0  0.591533  0  3.66529  0  0  0.526289  0  4.03271  0  0  0.554264  0  4.005027  0  0  0.278265  0.506081  0  4.053029  0
C  C75  1  0.78296467  0.24929136  0.18694849  1  0  0.591931  0  3.664761  0  0  0.526448  0  4.03256  0  0  0.55449  0  4.004749  0  0  0.278251  0.50621  0  4.052938  0
S  S76  1  0.09184452  0.65224308  0.71322968  1  0  1.121747  0  5.86  0  0  1.025593  0  6.398877  0  0  1.069066  0  6.379522  0  0  0.476585  0.995628  0  6.41132  0
S  S77  1  0.90816031  0.34775644  0.28677029  1  0  1.121747  0  5.859487  0  0  1.025622  0  6.398378  0  0  1.069078  0  6.379013  0  0  0.476588  0.995666  0  6.410827  0
N  N78  1  0.46541739  0.49332531  0.77760421  1  0  -0.441274  0  2.992558  0  0  -0.393432  0  3.309348  0  0  -0.407063  0  3.312827  0  0  -0.347278  -0.384743  0  3.307213  0
N  N79  1  0.53458695  0.50666942  0.22238532  1  0  -0.441338  0  2.992556  0  0  -0.393498  0  3.309333  0  0  -0.40713  0  3.31281  0  0  -0.347154  -0.38481  0  3.307197  0
N  N80  1  0.15257605  0.28977621  0.61721243  1  0  -0.422569  0  2.939625  0  0  -0.372912  0  3.243497  0  0  -0.385914  0  3.246416  0  0  -0.336651  -0.364634  0  3.241748  0
N  N81  1  0.84742436  0.71021938  0.38277569  1  0  -0.42267  0  2.939656  0  0  -0.373027  0  3.243559  0  0  -0.38603  0  3.246478  0  0  -0.336687  -0.36475  0  3.241815  0
N  N82  1  0.32600823  0.45932900  0.51032433  1  0  -0.436801  0  2.846107  0  0  -0.394665  0  3.129437  0  0  -0.408437  0  3.13411  0  0  -0.333498  -0.38582  0  3.126621  0
N  N83  1  0.67397960  0.54067875  0.48966774  1  0  -0.436898  0  2.845464  0  0  -0.394774  0  3.128836  0  0  -0.40855  0  3.133512  0  0  -0.333502  -0.385931  0  3.126021  0
O  O84  1  0.11594512  0.55212198  0.73185144  1  0  -0.639845  0  2.055612  0  0  -0.597806  0  2.335461  0  0  -0.617395  0  2.319479  0  0  -0.348475  -0.583864  0  2.345878  0
O  O85  1  0.88404785  0.44787136  0.26813557  1  0  -0.639871  0  2.05561  0  0  -0.59783  0  2.335465  0  0  -0.617408  0  2.319468  0  0  -0.348421  -0.583886  0  2.345881  0
O  O86  1  0.95977257  0.69083870  0.74176584  1  0  -0.602751  0  1.932805  0  0  -0.573331  0  2.159829  0  0  -0.592048  0  2.148094  0  0  -0.353038  -0.559895  0  2.167369  0
O  O87  1  0.04023464  0.30916316  0.25823426  1  0  -0.602688  0  1.932591  0  0  -0.573268  0  2.159611  0  0  -0.59198  0  2.147877  0  0  -0.353026  -0.559829  0  2.167148  0
O  O88  1  0.13589529  0.65900356  0.61454248  1  0  -0.609061  0  2.003829  0  0  -0.575863  0  2.24361  0  0  -0.595411  0  2.233125  0  0  -0.3397  -0.561982  0  2.250343  0
O  O89  1  0.86411609  0.34100699  0.38546506  1  0  -0.609265  0  2.003698  0  0  -0.576009  0  2.24344  0  0  -0.595562  0  2.232958  0  0  -0.339787  -0.562128  0  2.250172  0
F  F90  1  0.20896233  0.84999440  0.80728067  1  0  -0.241863  0  1.145876  0  0  -0.204892  0  1.299809  0  0  -0.213722  0  1.283418  0  0  -0.113831  -0.198485  0  1.311447  0
F  F91  1  0.79104384  0.14999642  0.19274172  1  0  -0.241869  0  1.14581  0  0  -0.204878  0  1.299875  0  0  -0.213727  0  1.283458  0  0  -0.113785  -0.198467  0  1.311523  0
F  F92  1  0.19352978  0.75547391  0.91291406  1  0  -0.240832  0  1.155448  0  0  -0.204467  0  1.315354  0  0  -0.21336  0  1.298518  0  0  -0.109879  -0.198012  0  1.327314  0
F  F93  1  0.80646545  0.24450276  0.08709288  1  0  -0.240915  0  1.155298  0  0  -0.204473  0  1.315268  0  0  -0.21339  0  1.298407  0  0  -0.109781  -0.198016  0  1.327243  0
F  F94  1  0.34787998  0.72518639  0.79800693  1  0  -0.239952  0  1.157437  0  0  -0.205152  0  1.315743  0  0  -0.213836  0  1.299307  0  0  -0.114576  -0.19885  0  1.327395  0
F  F95  1  0.65212733  0.27480440  0.20200886  1  0  -0.240125  0  1.157259  0  0  -0.205255  0  1.315636  0  0  -0.213953  0  1.299175  0  0  -0.114687  -0.198945  0  1.327301  0
