# generated using pymatgen
data_AgH3C2SN3Cl
_symmetry_space_group_name_H-M   'P 1'
_cell_length_a   4.39609563
_cell_length_b   6.36699013
_cell_length_c   21.60621086
_cell_angle_alpha   89.99972094
_cell_angle_beta   89.99955083
_cell_angle_gamma   98.09739065
_symmetry_Int_Tables_number   1
_chemical_formula_structural   AgH3C2SN3Cl
_chemical_formula_sum   'Ag4 H12 C8 S4 N12 Cl4'
_cell_volume   598.72625787
_cell_formula_units_Z   4
loop_
 _symmetry_equiv_pos_site_id
 _symmetry_equiv_pos_as_xyz
  1  'x, y, z'
loop_
 _atom_site_type_symbol
 _atom_site_label
 _atom_site_symmetry_multiplicity
 _atom_site_fract_x
 _atom_site_fract_y
 _atom_site_fract_z
 _atom_site_occupancy
 _atom_site_hle17_bader_spin_density
 _atom_site_hle17_ddec_charge
 _atom_site_hle17_ddec_spin_density
 _atom_site_hle17_ddec_sum_bond_order
 _atom_site_hle17_magmom
 _atom_site_hse06_10hf_bader_spin_density
 _atom_site_hse06_10hf_ddec_charge
 _atom_site_hse06_10hf_ddec_spin_density
 _atom_site_hse06_10hf_ddec_sum_bond_order
 _atom_site_hse06_10hf_magmom
 _atom_site_hse06_bader_spin_density
 _atom_site_hse06_ddec_charge
 _atom_site_hse06_ddec_spin_density
 _atom_site_hse06_ddec_sum_bond_order
 _atom_site_hse06_magmom
 _atom_site_pbe_bader_spin_density
 _atom_site_pbe_cm5_charge
 _atom_site_pbe_ddec_charge
 _atom_site_pbe_ddec_spin_density
 _atom_site_pbe_ddec_sum_bond_order
 _atom_site_pbe_magmom
Ag  Ag0  1  0.08955977  0.01117288  0.95421535  1  0  0.41063  0  1.926166  0  0  0.325377  0  2.444339  0  0  0.342383  0  2.40074  0  0  0.291158  0.313563  0  2.474175  0
Ag  Ag1  1  0.91049520  0.98882646  0.45421053  1  0  0.410645  0  1.925965  0  0  0.325408  0  2.444084  0  0  0.342417  0  2.400487  0  0  0.291195  0.313595  0  2.473924  0
Ag  Ag2  1  0.42676625  0.44283526  0.91898925  1  0  0.412003  0  1.810267  0  0  0.321545  0  2.314124  0  0  0.33998  0  2.271183  0  0  0.275317  0.308555  0  2.343862  0
Ag  Ag3  1  0.57324637  0.55716251  0.41898235  1  0  0.411995  0  1.810182  0  0  0.321533  0  2.314047  0  0  0.339973  0  2.2711  0  0  0.275285  0.308543  0  2.343788  0
H  H4  1  0.00295314  0.81920488  0.81348272  1  0  0.318728  0  0.906335  0  0  0.296782  0  0.975967  0  0  0.305798  0  0.96874  0  0  0.287328  0.290296  0  0.981296  0
H  H5  1  0.99704882  0.18079026  0.31347734  1  0  0.318652  0  0.906302  0  0  0.296678  0  0.975974  0  0  0.305701  0  0.968763  0  0  0.287262  0.29019  0  0.981303  0
H  H6  1  0.60776577  0.81239896  0.06240043  1  0  0.301681  0  0.914254  0  0  0.278227  0  0.985016  0  0  0.286775  0  0.978273  0  0  0.29422  0.272098  0  0.989977  0
H  H7  1  0.39222021  0.18760137  0.56239429  1  0  0.30165  0  0.914418  0  0  0.278234  0  0.985172  0  0  0.286783  0  0.978429  0  0  0.294241  0.272102  0  0.990136  0
H  H8  1  0.47557669  0.29657484  0.77903046  1  0  0.30537  0  0.913627  0  0  0.280213  0  0.985307  0  0  0.289083  0  0.97836  0  0  0.293539  0.273909  0  0.990328  0
H  H9  1  0.52441644  0.70342879  0.27902024  1  0  0.305337  0  0.913642  0  0  0.280155  0  0.98534  0  0  0.289027  0  0.97839  0  0  0.293487  0.273844  0  0.990365  0
H  H10  1  0.15917307  0.33805051  0.07454349  1  0  0.311308  0  0.932172  0  0  0.28825  0  1.002903  0  0  0.297085  0  0.996413  0  0  0.27992  0.281978  0  1.007569  0
H  H11  1  0.84084081  0.66194214  0.57453823  1  0  0.311449  0  0.932252  0  0  0.288364  0  1.00305  0  0  0.297204  0  0.996538  0  0  0.280028  0.282087  0  1.007724  0
H  H12  1  0.04152588  0.91503226  0.69823659  1  0  0.108343  0  0.916331  0  0  0.118063  0  0.974936  0  0  0.120447  0  0.97229  0  0  0.143588  0.116266  0  0.976963  0
H  H13  1  0.95843329  0.08495673  0.19823186  1  0  0.108353  0  0.916327  0  0  0.118082  0  0.974915  0  0  0.120466  0  0.972273  0  0  0.143651  0.116285  0  0.97694  0
H  H14  1  0.97422662  0.43095200  0.18554593  1  0  0.101532  0  0.939828  0  0  0.108064  0  1.005282  0  0  0.110682  0  1.002083  0  0  0.134192  0.106095  0  1.007671  0
H  H15  1  0.02577447  0.56905381  0.68554463  1  0  0.101534  0  0.939806  0  0  0.108056  0  1.005244  0  0  0.110676  0  1.002048  0  0  0.134166  0.106085  0  1.00763  0
C  C16  1  0.90260694  0.57807104  0.04301791  1  0  0.377806  0  3.742475  0  0  0.330983  0  4.036057  0  0  0.352863  0  4.046439  0  0  0.225563  0.316235  0  4.028907  0
C  C17  1  0.09738765  0.42193619  0.54301388  1  0  0.377992  0  3.742229  0  0  0.331161  0  4.035916  0  0  0.353038  0  4.046299  0  0  0.225656  0.316409  0  4.028767  0
C  C18  1  0.70791028  0.06256712  0.82147143  1  0  0.388902  0  3.733768  0  0  0.341976  0  4.027259  0  0  0.364023  0  4.037525  0  0  0.227624  0.327101  0  4.020164  0
C  C19  1  0.29210360  0.93743280  0.32146181  1  0  0.389169  0  3.733748  0  0  0.34217  0  4.027259  0  0  0.36422  0  4.037519  0  0  0.227676  0.327274  0  4.020164  0
C  C20  1  0.90055448  0.98313126  0.73174046  1  0  0.216372  0  3.654832  0  0  0.154066  0  3.949074  0  0  0.166658  0  3.95831  0  0  0.160929  0.145729  0  3.942854  0
C  C21  1  0.09941016  0.01686974  0.23173419  1  0  0.216673  0  3.654988  0  0  0.154369  0  3.949241  0  0  0.166958  0  3.958479  0  0  0.16101  0.146029  0  3.943017  0
C  C22  1  0.91244478  0.49897310  0.14218157  1  0  0.221856  0  3.658046  0  0  0.159001  0  3.950869  0  0  0.172054  0  3.959666  0  0  0.16295  0.150333  0  3.945046  0
C  C23  1  0.08754848  0.50103195  0.64217052  1  0  0.221588  0  3.657518  0  0  0.158824  0  3.950208  0  0  0.171868  0  3.959012  0  0  0.162888  0.150164  0  3.944372  0
S  S24  1  0.96095481  0.59025376  0.96470699  1  0  -0.397684  0  2.656451  0  0  -0.357086  0  3.164965  0  0  -0.372526  0  3.138271  0  0  -0.210212  -0.346203  0  3.183208  0
S  S25  1  0.03906203  0.40975100  0.46470313  1  0  -0.397812  0  2.656403  0  0  -0.357179  0  3.164948  0  0  -0.372616  0  3.138247  0  0  -0.210224  -0.346297  0  3.183204  0
S  S26  1  0.62592769  0.07815911  0.89835448  1  0  -0.408898  0  2.765024  0  0  -0.369901  0  3.279575  0  0  -0.38576  0  3.25427  0  0  -0.222368  -0.358448  0  3.296488  0
S  S27  1  0.37411922  0.92184920  0.39834149  1  0  -0.408948  0  2.764696  0  0  -0.369953  0  3.279281  0  0  -0.385812  0  3.253974  0  0  -0.222401  -0.358497  0  3.296199  0
N  N28  1  0.89682214  0.93857782  0.79370184  1  0  -0.35454  0  3.394905  0  0  -0.289373  0  3.632146  0  0  -0.308302  0  3.642335  0  0  -0.367248  -0.276817  0  3.62542  0
N  N29  1  0.10317905  0.06142248  0.29369181  1  0  -0.354666  0  3.394935  0  0  -0.289445  0  3.632213  0  0  -0.308387  0  3.642403  0  0  -0.367254  -0.27689  0  3.625494  0
N  N30  1  0.72398610  0.69022490  0.07690271  1  0  -0.223674  0  3.421025  0  0  -0.157055  0  3.659585  0  0  -0.17244  0  3.67415  0  0  -0.265229  -0.147059  0  3.650229  0
N  N31  1  0.27601400  0.30976746  0.57690080  1  0  -0.223661  0  3.421167  0  0  -0.157212  0  3.659974  0  0  -0.172598  0  3.674544  0  0  -0.265233  -0.14719  0  3.65058  0
N  N32  1  0.60549858  0.17297530  0.77449792  1  0  -0.227501  0  3.427364  0  0  -0.158953  0  3.664158  0  0  -0.174794  0  3.678815  0  0  -0.262046  -0.148489  0  3.654449  0
N  N33  1  0.39450076  0.82702381  0.27449288  1  0  -0.227624  0  3.427313  0  0  -0.159002  0  3.664087  0  0  -0.17484  0  3.678735  0  0  -0.261981  -0.148492  0  3.65434  0
N  N34  1  0.02387402  0.45502398  0.08528536  1  0  -0.344746  0  3.395389  0  0  -0.273588  0  3.622246  0  0  -0.293268  0  3.634125  0  0  -0.363507  -0.260542  0  3.61422  0
N  N35  1  0.97611378  0.54499169  0.58527537  1  0  -0.344724  0  3.395371  0  0  -0.273664  0  3.622405  0  0  -0.293336  0  3.634272  0  0  -0.363658  -0.260612  0  3.614381  0
N  N36  1  0.72733229  0.64296092  0.13837071  1  0  -0.184423  0  2.887545  0  0  -0.181273  0  3.177193  0  0  -0.187206  0  3.189834  0  0  -0.215752  -0.177373  0  3.168878  0
N  N37  1  0.27268574  0.35701461  0.63836319  1  0  -0.18428  0  2.886985  0  0  -0.181054  0  3.176604  0  0  -0.186986  0  3.18925  0  0  -0.215629  -0.177162  0  3.168275  0
N  N38  1  0.72389502  0.12674178  0.71865742  1  0  -0.185459  0  2.907258  0  0  -0.184153  0  3.199432  0  0  -0.189291  0  3.211815  0  0  -0.213881  -0.180737  0  3.191179  0
N  N39  1  0.27606352  0.87326098  0.21864791  1  0  -0.185654  0  2.907156  0  0  -0.184372  0  3.199345  0  0  -0.189512  0  3.21173  0  0  -0.213993  -0.180967  0  3.191074  0
Cl  Cl40  1  0.24988873  0.55104508  0.80935559  1  0  -0.590722  0  0.893583  0  0  -0.530831  0  1.155511  0  0  -0.547498  0  1.13642  0  0  -0.341645  -0.51847  0  1.168681  0
Cl  Cl41  1  0.75010881  0.44895007  0.30934572  1  0  -0.590692  0  0.893505  0  0  -0.53079  0  1.155447  0  0  -0.547462  0  1.136358  0  0  -0.341642  -0.518424  0  1.168623  0
Cl  Cl42  1  0.39043180  0.08967836  0.05323011  1  0  -0.556884  0  0.990467  0  0  -0.500338  0  1.269513  0  0  -0.516748  0  1.248657  0  0  -0.314466  -0.48803  0  1.283526  0
Cl  Cl43  1  0.60955907  0.91032226  0.55322035  1  0  -0.556977  0  0.990385  0  0  -0.500359  0  1.26939  0  0  -0.516781  0  1.248541  0  0  -0.314506  -0.488065  0  1.283448  0
