# generated using pymatgen
data_CuH16C16(N3O2)2
_symmetry_space_group_name_H-M   'P 1'
_cell_length_a   8.60418260
_cell_length_b   9.00583386
_cell_length_c   13.55549838
_cell_angle_alpha   109.37944490
_cell_angle_beta   90.05042454
_cell_angle_gamma   118.43811295
_symmetry_Int_Tables_number   1
_chemical_formula_structural   CuH16C16(N3O2)2
_chemical_formula_sum   'Cu2 H32 C32 N12 O8'
_cell_volume   855.17153916
_cell_formula_units_Z   2
loop_
 _symmetry_equiv_pos_site_id
 _symmetry_equiv_pos_as_xyz
  1  'x, y, z'
loop_
 _atom_site_type_symbol
 _atom_site_label
 _atom_site_symmetry_multiplicity
 _atom_site_fract_x
 _atom_site_fract_y
 _atom_site_fract_z
 _atom_site_occupancy
 _atom_site_hle17_ddec_charge
 _atom_site_hle17_ddec_spin_density
 _atom_site_hle17_ddec_sum_bond_order
 _atom_site_hle17_magmom
 _atom_site_hse06_10hf_ddec_charge
 _atom_site_hse06_10hf_ddec_spin_density
 _atom_site_hse06_10hf_ddec_sum_bond_order
 _atom_site_hse06_10hf_magmom
 _atom_site_hse06_ddec_charge
 _atom_site_hse06_ddec_spin_density
 _atom_site_hse06_ddec_sum_bond_order
 _atom_site_hse06_magmom
 _atom_site_pbe_cm5_charge
 _atom_site_pbe_ddec_charge
 _atom_site_pbe_ddec_spin_density
 _atom_site_pbe_ddec_sum_bond_order
 _atom_site_pbe_magmom
Cu  Cu0  1  0.49999763  0.99999650  0.99999917  1  0.846317  -0.713729  1.764754  -0.5  0.823182  -0.800717  2.148985  -0.615  0.917836  -0.87438  2.076755  -0.698  0.732337  0.763188  -0.748718  2.201576  -0.563
Cu  Cu1  1  0.50000015  0.00000036  0.50000030  1  0.846471  0.714122  1.766738  0.501  0.823536  0.800925  2.150831  0.616  0.917638  0.874456  2.079078  0.698  0.732588  0.763513  0.748987  2.20365  0.564
H  H2  1  0.14529035  0.69205540  0.57477315  1  0.071722  -6.2e-05  0.951694  0.0  0.088975  -8.9e-05  1.01519  0.0  0.088931  -8.3e-05  1.016157  0.0  0.093068  0.088745  -8.8e-05  1.014864  0.0
H  H3  1  0.45363322  0.30804302  0.92510829  1  0.071891  6.6e-05  0.951452  0.0  0.088812  8.8e-05  1.015515  0.0  0.088758  8.3e-05  1.016488  0.0  0.09293  0.088583  8.7e-05  1.015197  0.0
H  H4  1  0.85471115  0.30794648  0.42522750  1  0.071695  -6.2e-05  0.951636  0.0  0.088961  -8.8e-05  1.015138  0.0  0.088917  -8.3e-05  1.016104  0.0  0.093061  0.088731  -8.8e-05  1.01481  0.0
H  H5  1  0.54637498  0.69196295  0.07489180  1  0.071857  6.2e-05  0.95147  0.0  0.088799  8.8e-05  1.015507  0.0  0.088744  8.3e-05  1.016483  0.0  0.092924  0.088574  8.7e-05  1.015189  0.0
H  H6  1  0.92230441  0.57268991  0.59450725  1  0.075391  -1.1e-05  0.9235  0.0  0.094867  -1.2e-05  0.978115  0.0  0.095373  -9e-06  0.979738  0.0  0.093378  0.094435  -1.5e-05  0.977081  0.0
H  H7  1  0.35005306  0.42771261  0.90535532  1  0.074804  1.3e-05  0.923798  0.0  0.094593  1.2e-05  0.978327  0.0  0.095103  9e-06  0.979916  0.0  0.093162  0.094198  1.5e-05  0.977242  0.0
H  H8  1  0.07769593  0.42731197  0.40549340  1  0.075408  -1.1e-05  0.923486  0.0  0.094893  -1.2e-05  0.9781  0.0  0.095399  -9e-06  0.979724  0.0  0.093388  0.09446  -1.5e-05  0.977065  0.0
H  H9  1  0.64995330  0.57229199  0.09464521  1  0.074809  1.3e-05  0.923783  0.0  0.094613  1.2e-05  0.978301  0.0  0.095121  9e-06  0.979896  0.0  0.093176  0.09422  1.5e-05  0.977219  0.0
H  H10  1  0.97806926  0.32674204  0.60607516  1  0.103569  4.6e-05  0.943852  0.0  0.116917  8.7e-05  1.009205  0.0  0.119361  3.5e-05  1.007741  0.0  0.115848  0.115066  0.000145  1.010379  0.0
H  H11  1  0.65150728  0.67363354  0.89423436  1  0.103815  -6e-05  0.944853  0.0  0.117276  -9.1e-05  1.010041  0.0  0.119778  -3.7e-05  1.008532  0.0  0.115903  0.115444  -0.000149  1.011188  0.0
H  H12  1  0.02193041  0.67325848  0.39392371  1  0.103567  4.9e-05  0.943856  0.0  0.116912  8.7e-05  1.009201  0.0  0.119356  3.5e-05  1.007738  0.0  0.115849  0.115063  0.000145  1.010373  0.0
H  H13  1  0.34849676  0.32637109  0.10576395  1  0.103827  -5.4e-05  0.944821  0.0  0.117296  -9.1e-05  1.009997  0.0  0.119796  -3.7e-05  1.008488  0.0  0.1159  0.115464  -0.000149  1.011142  0.0
H  H14  1  0.20260114  0.45143365  0.58699091  1  0.078626  1.9e-05  0.918553  0.0  0.096508  -4e-06  0.979351  0.0  0.0965  -1e-06  0.980087  0.0  0.113834  0.096392  -7e-06  0.978946  0.0
H  H15  1  0.75117322  0.54835229  0.91323916  1  0.078734  -2.2e-05  0.918913  0.0  0.096233  4e-06  0.979908  0.0  0.096234  1e-06  0.980644  0.0  0.113698  0.096138  7e-06  0.979468  0.0
H  H16  1  0.79739785  0.54856551  0.41300765  1  0.078639  1.8e-05  0.918553  0.0  0.09651  -4e-06  0.979352  0.0  0.096501  -1e-06  0.980089  0.0  0.113842  0.096395  -7e-06  0.978946  0.0
H  H17  1  0.24883102  0.45165507  0.08675976  1  0.0787  -1.8e-05  0.918945  0.0  0.096218  4e-06  0.97992  0.0  0.096218  1e-06  0.980659  0.0  0.113686  0.096121  7e-06  0.979478  0.0
H  H18  1  0.08753377  0.66670820  0.96911196  1  0.093558  0.00012  0.940338  0.0  0.106156  -1.4e-05  0.99601  0.0  0.107848  -1.3e-05  0.993798  0.0  0.135069  0.104797  -1.9e-05  0.99768  0.0
H  H19  1  0.42064351  0.33409801  0.53117713  1  0.094382  -0.00012  0.939715  0.0  0.10648  1.4e-05  0.995871  0.0  0.108177  1.3e-05  0.993657  0.0  0.13537  0.105091  1.9e-05  0.997563  0.0
H  H20  1  0.91247000  0.33327726  0.03088871  1  0.093478  0.000119  0.940516  0.0  0.1062  -1.4e-05  0.996046  0.0  0.107893  -1.2e-05  0.993835  0.0  0.135086  0.104838  -1.9e-05  0.997713  0.0
H  H21  1  0.57935411  0.66589841  0.46882157  1  0.094381  -0.000118  0.939772  0.0  0.106477  1.4e-05  0.995925  0.0  0.108174  1.3e-05  0.99371  0.0  0.135385  0.105088  1.9e-05  0.997616  0.0
H  H22  1  0.42312223  0.76715847  0.74361338  1  0.129803  0.00014  0.989459  0.0  0.135129  5e-06  1.056277  0.0  0.139351  -1.3e-05  1.050738  0.0  0.140335  0.131948  2.6e-05  1.060249  0.0
H  H23  1  0.65678339  0.23319976  0.75625680  1  0.129459  -0.000143  0.989385  0.0  0.134857  -5e-06  1.056306  0.0  0.138944  1.2e-05  1.050995  0.0  0.140227  0.131633  -2.6e-05  1.060345  0.0
H  H24  1  0.57687483  0.23284615  0.25638714  1  0.129794  0.000138  0.989467  0.0  0.13511  5e-06  1.056302  0.0  0.13933  -1.2e-05  1.050765  0.0  0.140328  0.131929  2.6e-05  1.060274  0.0
H  H25  1  0.34322296  0.76680484  0.24374372  1  0.129462  -0.000142  0.989373  0.0  0.134867  -5e-06  1.056259  0.0  0.138953  1.2e-05  1.05095  0.0  0.140221  0.131645  -2.6e-05  1.060297  0.0
H  H26  1  0.97902419  0.96865442  0.06113053  1  0.091461  -9e-06  0.979551  0.0  0.101329  -0.000108  1.043646  0.0  0.104762  -7.4e-05  1.041279  0.0  0.099644  0.098873  -0.000138  1.04543  0.0
H  H27  1  0.01015666  0.03126803  0.43850343  1  0.091072  7e-06  0.97994  0.0  0.101121  0.000109  1.043802  0.0  0.104615  7.5e-05  1.04133  0.0  0.099636  0.098627  0.000139  1.045601  0.0
H  H28  1  0.02097267  0.03134746  0.93887012  1  0.091441  -6e-06  0.979572  0.0  0.101305  -0.000108  1.043681  0.0  0.104738  -7.4e-05  1.041314  0.0  0.099646  0.098848  -0.000138  1.045465  0.0
H  H29  1  0.98984000  0.96873112  0.56149661  1  0.091089  1e-05  0.979897  0.0  0.101111  0.000109  1.043797  0.0  0.104603  7.5e-05  1.041326  0.0  0.099635  0.098619  0.000139  1.045595  0.0
H  H30  1  0.73828944  0.98635594  0.15484604  1  0.088192  0.000194  0.973716  0.0  0.093238  0.000213  1.045329  0.0  0.095635  0.000202  1.043563  0.0  0.099197  0.091235  0.00021  1.047044  0.0
H  H31  1  0.75121792  0.01265658  0.34437275  1  0.088641  -0.000189  0.973182  0.0  0.093457  -0.000212  1.044939  0.0  0.095869  -0.0002  1.043135  0.0  0.099624  0.091488  -0.000208  1.046616  0.0
H  H32  1  0.26170742  0.01364594  0.84515535  1  0.088165  0.000196  0.973752  0.0  0.093254  0.000213  1.045317  0.0  0.095642  0.000202  1.043561  0.0  0.099195  0.091239  0.00021  1.047043  0.0
H  H33  1  0.24878078  0.98734665  0.65562894  1  0.088631  -0.00019  0.973179  0.0  0.093412  -0.000212  1.04498  0.0  0.095825  -0.0002  1.043176  0.0  0.099604  0.091445  -0.000208  1.046656  0.0
C  C34  1  0.03109878  0.55512070  0.55990721  1  -0.119895  -0.000105  3.671101  0.0  -0.159113  -9.1e-05  3.931542  0.0  -0.161121  -7.2e-05  3.94728  0.0  -0.161673  -0.157518  -0.000105  3.920576  0.0
C  C35  1  0.47624476  0.44507511  0.94007574  1  -0.118948  8.4e-05  3.669708  0.0  -0.158532  9.1e-05  3.931173  0.0  -0.160505  7.3e-05  3.946879  0.0  -0.161207  -0.15699  0.000105  3.920331  0.0
C  C36  1  0.96890225  0.44488254  0.44009374  1  -0.119852  -0.000104  3.671043  0.0  -0.159113  -9e-05  3.931498  0.0  -0.161121  -7.2e-05  3.947237  0.0  -0.161672  -0.157516  -0.000105  3.920535  0.0
C  C37  1  0.52376044  0.55492949  0.05992552  1  -0.118892  9.6e-05  3.669821  0.0  -0.158504  9.1e-05  3.931288  0.0  -0.160483  7.3e-05  3.947002  0.0  -0.1612  -0.156968  0.000105  3.920448  0.0
C  C38  1  0.08879474  0.46329774  0.61686320  1  -0.013269  -0.000402  3.594894  0.0  -0.089683  -0.000329  3.852473  0.0  -0.08672  -0.000313  3.863102  0.0  -0.046729  -0.091377  -0.000319  3.845081  0.0
C  C39  1  0.62572520  0.53691942  0.88333910  1  -0.013625  0.000418  3.59459  0.0  -0.089756  0.000322  3.851858  0.0  -0.086772  0.000309  3.862376  0.0  -0.047332  -0.091467  0.000309  3.844518  0.0
C  C40  1  0.91120493  0.53670279  0.38313567  1  -0.013334  -0.000405  3.594996  0.0  -0.089719  -0.000329  3.852545  0.0  -0.086753  -0.000313  3.863165  0.0  -0.046751  -0.091417  -0.000319  3.845158  0.0
C  C41  1  0.37428068  0.46308657  0.11666025  1  -0.013643  0.000398  3.594703  0.0  -0.089775  0.000322  3.851954  0.0  -0.086797  0.00031  3.862481  0.0  -0.047338  -0.091497  0.000309  3.84463  0.0
C  C42  1  0.13497068  0.65721008  0.89446582  1  0.188393  0.001895  3.72745  0.001  0.140251  -9.6e-05  4.016826  0.0  0.153657  0.00037  4.03057  0.0  0.139888  0.131676  -0.000427  4.007471  -0.001
C  C43  1  0.47783300  0.34349018  0.60572573  1  0.18751  -0.001881  3.730739  -0.001  0.139603  0.00011  4.020216  0.0  0.153015  -0.000359  4.033921  0.0  0.138886  0.131067  0.000442  4.010808  0.001
C  C44  1  0.86503165  0.34277949  0.10553430  1  0.188426  0.001904  3.727506  0.001  0.140186  -9.6e-05  4.016904  0.0  0.15359  0.00037  4.03065  0.0  0.139861  0.13162  -0.000427  4.007542  -0.001
C  C45  1  0.52216831  0.65650897  0.39427431  1  0.187518  -0.001895  3.73078  -0.001  0.139632  0.00011  4.020237  0.0  0.153042  -0.000358  4.033947  0.0  0.138854  0.131092  0.000442  4.010827  0.001
C  C46  1  0.31121921  0.71120969  0.78330344  1  0.175164  0.003022  3.596385  0.003  0.099284  0.000409  3.863983  0.0  0.115653  0.001011  3.874729  0.001  0.165831  0.088988  -3.3e-05  3.856634  0.0
C  C47  1  0.60057678  0.28915647  0.71663786  1  0.175452  -0.003004  3.596749  -0.003  0.099397  -0.000409  3.863423  0.0  0.115851  -0.001013  3.874199  -0.001  0.165513  0.089157  3.5e-05  3.856048  0.0
C  C48  1  0.68877813  0.28879082  0.21669691  1  0.175123  0.003045  3.596456  0.003  0.099279  0.00041  3.864002  0.0  0.115647  0.001011  3.874749  0.001  0.165835  0.088986  -3.3e-05  3.856659  0.0
C  C49  1  0.39942958  0.71084814  0.28336193  1  0.175371  -0.003022  3.596754  -0.003  0.099348  -0.000409  3.86345  0.0  0.115794  -0.001013  3.874233  -0.001  0.165476  0.089108  3.5e-05  3.856073  0.0
C  C50  1  0.13217303  0.99127010  0.19623260  1  -0.059123  -0.008501  3.72365  -0.009  -0.044087  -0.004425  3.951836  -0.005  -0.049294  -0.00321  3.971902  -0.004  -0.010956  -0.040657  -0.005313  3.938343  -0.006
C  C51  1  0.14104459  0.00910675  0.30373913  1  -0.059478  0.008481  3.723622  0.009  -0.044747  0.004414  3.951779  0.005  -0.049959  0.003204  3.971867  0.004  -0.010123  -0.041377  0.0053  3.938322  0.006
C  C52  1  0.86782180  0.00872770  0.80376566  1  -0.059218  -0.008489  3.723767  -0.009  -0.044116  -0.004425  3.951894  -0.005  -0.049327  -0.00321  3.971961  -0.004  -0.010956  -0.04068  -0.005313  3.938389  -0.006
C  C53  1  0.85894818  0.99088695  0.69625896  1  -0.059516  0.008483  3.723695  0.009  -0.044816  0.004414  3.951879  0.005  -0.050033  0.003205  3.971976  0.004  -0.010115  -0.04145  0.0053  3.938421  0.006
C  C54  1  0.98673010  0.98429801  0.14440662  1  -0.079659  0.000131  3.735825  0.0  -0.103042  2.4e-05  3.983271  0.0  -0.103671  0.000174  4.002625  0.0  -0.087447  -0.102489  -0.000107  3.970048  0.0
C  C55  1  0.00228291  0.01564204  0.35526220  1  -0.079064  -0.00012  3.735882  0.0  -0.102555  -2.7e-05  3.983234  0.0  -0.103212  -0.000175  4.002528  0.0  -0.088137  -0.101954  0.000101  3.970057  0.0
C  C56  1  0.01326587  0.01569976  0.85559459  1  -0.079584  0.000109  3.73589  0.0  -0.102997  2.4e-05  3.983358  0.0  -0.103627  0.000174  4.002715  0.0  -0.087462  -0.102447  -0.000107  3.970127  0.0
C  C57  1  0.99771307  0.98435574  0.64473753  1  -0.07905  -0.000128  3.735901  0.0  -0.102527  -2.8e-05  3.983271  0.0  -0.103181  -0.000175  4.002566  0.0  -0.088147  -0.101931  0.000101  3.970097  0.0
C  C58  1  0.85022756  0.99247279  0.19691001  1  -0.056809  0.001435  3.75949  0.001  -0.075028  0.000363  4.018701  0.0  -0.076389  9.2e-05  4.040226  0.0  -0.089853  -0.073928  0.000607  4.003986  0.001
C  C59  1  0.85726385  0.00682672  0.30250709  1  -0.056984  -0.001456  3.758353  -0.001  -0.075158  -0.000366  4.017932  0.0  -0.076536  -9.3e-05  4.039507  0.0  -0.089863  -0.074068  -0.000612  4.003154  -0.001
C  C60  1  0.14976930  0.00752908  0.80309138  1  -0.056817  0.001442  3.759501  0.001  -0.075059  0.000363  4.018691  0.0  -0.076415  9.2e-05  4.040226  0.0  -0.089843  -0.073946  0.000607  4.003964  0.001
C  C61  1  0.14273397  0.99317242  0.69749295  1  -0.056928  -0.001457  3.758351  -0.001  -0.075069  -0.000366  4.017929  0.0  -0.076445  -9.3e-05  4.039496  0.0  -0.089823  -0.073982  -0.000612  4.003158  -0.001
C  C62  1  0.26666304  0.96715750  0.13248978  1  0.626764  0.004562  3.915112  0.008  0.581566  0.000806  4.220875  0.004  0.618276  0.001198  4.214337  0.004  0.199685  0.55675  0.000385  4.224534  0.004
C  C63  1  0.29978965  0.03329079  0.36754116  1  0.624622  -0.004544  3.917132  -0.008  0.58044  -0.000806  4.221409  -0.004  0.61712  -0.001199  4.214841  -0.004  0.1992  0.555665  -0.000387  4.225006  -0.004
C  C64  1  0.73333158  0.03283756  0.86750861  1  0.626801  0.004568  3.914965  0.008  0.581569  0.000806  4.220755  0.004  0.618294  0.001198  4.214191  0.004  0.199651  0.556753  0.000385  4.224412  0.004
C  C65  1  0.70020701  0.96670836  0.63245814  1  0.624673  -0.004556  3.917149  -0.008  0.580496  -0.000806  4.221414  -0.004  0.617177  -0.001199  4.214845  -0.004  0.199209  0.555721  -0.000387  4.225009  -0.004
N  N66  1  0.14835260  0.56791503  0.73158589  1  0.052702  -0.001904  3.536108  -0.002  0.176216  -0.001393  3.720897  -0.002  0.167312  -0.00114  3.741056  -0.002  -0.128515  0.181553  -0.001556  3.707699  -0.002
N  N67  1  0.58091557  0.43252256  0.76853033  1  0.052048  0.001884  3.53747  0.002  0.176122  0.00139  3.72141  0.002  0.167038  0.001136  3.741912  0.002  -0.128106  0.181442  0.001554  3.708228  0.002
N  N68  1  0.85164687  0.43208275  0.26841385  1  0.052743  -0.001922  3.536114  -0.002  0.176251  -0.001393  3.720871  -0.002  0.167352  -0.001139  3.741019  -0.002  -0.128498  0.181588  -0.001556  3.707679  -0.002
N  N69  1  0.41908895  0.56748068  0.23146989  1  0.052169  0.001902  3.537415  0.002  0.176181  0.00139  3.721416  0.002  0.167128  0.001136  3.741862  0.002  -0.128057  0.181498  0.001554  3.708231  0.002
N  N70  1  0.03383475  0.53081296  0.80103446  1  -0.268931  -0.006906  2.844649  -0.008  -0.273014  -0.003698  3.111765  -0.004  -0.28142  -0.002581  3.1246  -0.003  -0.221346  -0.267108  -0.004794  3.10292  -0.005
N  N71  1  0.50314706  0.46980456  0.69922577  1  -0.269002  0.006938  2.846617  0.008  -0.273318  0.003713  3.113728  0.004  -0.281708  0.002591  3.126598  0.003  -0.221188  -0.267396  0.004814  3.104867  0.005
N  N72  1  0.96616711  0.46917798  0.19896596  1  -0.268861  -0.006904  2.844544  -0.008  -0.272947  -0.003699  3.111683  -0.004  -0.28136  -0.002581  3.124529  -0.003  -0.221347  -0.267039  -0.004794  3.102834  -0.005
N  N73  1  0.49685561  0.53019732  0.30077414  1  -0.269048  0.006938  2.846617  0.008  -0.273354  0.003713  3.113736  0.004  -0.281752  0.002591  3.126607  0.003  -0.221168  -0.26743  0.004815  3.104875  0.005
N  N74  1  0.30709765  0.77196442  0.88749819  1  -0.399326  -0.064206  3.303275  -0.079  -0.354836  -0.047794  3.626966  -0.062  -0.38919  -0.040293  3.643356  -0.055  -0.374076  -0.333656  -0.051598  3.617388  -0.065
N  N75  1  0.53540083  0.22853250  0.61246758  1  -0.399052  0.064294  3.303218  0.079  -0.354213  0.047926  3.625803  0.062  -0.38841  0.0404  3.642129  0.055  -0.373204  -0.333028  0.051756  3.616179  0.065
N  N76  1  0.69290161  0.22803062  0.11250168  1  -0.399321  -0.06422  3.303232  -0.079  -0.354862  -0.047794  3.626968  -0.062  -0.389217  -0.040293  3.643359  -0.055  -0.374054  -0.333681  -0.051597  3.617393  -0.065
N  N77  1  0.46460115  0.77146800  0.38753350  1  -0.399028  0.064308  3.303132  0.079  -0.354218  0.047926  3.625733  0.062  -0.388418  0.0404  3.642066  0.055  -0.373208  -0.333031  0.051756  3.616107  0.065
O  O78  1  0.31449853  0.05254666  0.06759451  1  -0.590344  -0.107884  2.020153  -0.14  -0.563713  -0.069788  2.299037  -0.099  -0.607672  -0.054487  2.293135  -0.082  -0.322168  -0.534337  -0.07901  2.30315  -0.108
O  O79  1  0.26246792  0.94813478  0.43256297  1  -0.589756  0.107591  2.020133  0.139  -0.563744  0.06957  2.298959  0.099  -0.607519  0.054352  2.292961  0.082  -0.322681  -0.534436  0.07874  2.303206  0.108
O  O80  1  0.68549977  0.94745112  0.93240522  1  -0.590322  -0.107881  2.020161  -0.14  -0.563683  -0.069787  2.299072  -0.099  -0.607647  -0.054486  2.293163  -0.082  -0.322139  -0.534306  -0.079008  2.303179  -0.108
O  O81  1  0.73753107  0.05186437  0.56743707  1  -0.589772  0.107593  2.020211  0.139  -0.563757  0.06957  2.299044  0.099  -0.607531  0.054352  2.293045  0.082  -0.322675  -0.534448  0.078741  2.303288  0.108
O  O82  1  0.32230330  0.86422551  0.13923044  1  -0.611005  0.000821  1.950136  0.0  -0.579253  0.000567  2.192268  0.0  -0.60581  0.001252  2.182407  0.001  -0.319088  -0.560682  -2.9e-05  2.198643  -0.001
O  O83  1  0.45794204  0.13587634  0.36053315  1  -0.609921  -0.000829  1.952131  0.0  -0.578408  -0.000587  2.193705  0.0  -0.604997  -0.001269  2.183966  -0.001  -0.318704  -0.559881  7e-06  2.200051  0.001
O  O84  1  0.67769084  0.13577093  0.86076678  1  -0.610986  0.000816  1.949904  0.0  -0.579235  0.000568  2.192066  0.0  -0.605793  0.001251  2.182188  0.001  -0.319061  -0.560664  -2.9e-05  2.198438  -0.001
O  O85  1  0.54205278  0.86412146  0.63946512  1  -0.609966  -0.000824  1.952062  0.0  -0.578478  -0.000587  2.193687  0.0  -0.605066  -0.001269  2.183941  -0.001  -0.318747  -0.559951  7e-06  2.200032  0.001
