# generated using pymatgen
data_Zr3H31C46(NO4)5
_symmetry_space_group_name_H-M   'P 1'
_cell_length_a   19.05838952
_cell_length_b   19.05656983
_cell_length_c   19.05319722
_cell_angle_alpha   59.89404039
_cell_angle_beta   60.00279541
_cell_angle_gamma   59.98552207
_symmetry_Int_Tables_number   1
_chemical_formula_structural   Zr3H31C46(NO4)5
_chemical_formula_sum   'Zr6 H62 C92 N10 O40'
_cell_volume   4888.73504426
_cell_formula_units_Z   2
loop_
 _symmetry_equiv_pos_site_id
 _symmetry_equiv_pos_as_xyz
  1  'x, y, z'
loop_
 _atom_site_type_symbol
 _atom_site_label
 _atom_site_symmetry_multiplicity
 _atom_site_fract_x
 _atom_site_fract_y
 _atom_site_fract_z
 _atom_site_occupancy
 _atom_site_pbe_bader_charge
 _atom_site_pbe_bader_spin_density
 _atom_site_pbe_cm5_charge
 _atom_site_pbe_ddec_charge
 _atom_site_pbe_ddec_spin_density
 _atom_site_pbe_ddec_sum_bond_order
 _atom_site_pbe_magmom
Zr  Zr0  1  0.90616850  0.40773069  0.59553774  1  2.637147  0  1.625741  2.374188  0  2.752251  0
Zr  Zr1  1  0.09059076  0.59489078  0.40828565  1  2.63395  0  1.625705  2.374292  0  2.751811  0
Zr  Zr2  1  0.09193178  0.40967073  0.59401328  1  2.63499  0  1.623769  2.373653  0  2.760202  0
Zr  Zr3  1  0.90432961  0.59348184  0.41029263  1  2.635132  0  1.623773  2.373626  0  2.759443  0
Zr  Zr4  1  0.90566454  0.59406609  0.59467318  1  2.636429  0  1.627517  2.37362  0  2.762376  0
Zr  Zr5  1  0.09098061  0.40866151  0.40927251  1  2.6336  0  1.623425  2.373051  0  2.750772  0
H  H6  1  0.92652831  0.42838384  0.72135540  1  0.614173  0  0.329837  0.420841  0  0.861799  0
H  H7  1  0.92383413  0.72077046  0.42890472  1  0.626394  0  0.330024  0.421387  0  0.86082  0
H  H8  1  0.21721527  0.42985745  0.42715790  1  0.606234  0  0.332738  0.425037  0  0.854209  0
H  H9  1  0.92562507  0.42667445  0.43047369  1  0.612252  0  0.332499  0.424318  0  0.854708  0
H  H10  1  0.27727984  0.64196781  0.14183400  1  0.104202  0  0.106158  0.12757  0  1.003467  0
H  H11  1  0.64005690  0.44116392  0.78420978  1  0.072816  0  0.106999  0.123524  0  0.993925  0
H  H12  1  0.71181765  0.56923984  0.85773525  1  0.074465  0  0.102955  0.11365  0  1.003367  0
H  H13  1  0.58219826  0.56505060  0.99049264  1  0.058314  0  0.102974  0.105167  0  0.992356  0
H  H14  1  0.35391139  0.36761630  0.21364647  1  0.067879  0  0.100499  0.110912  0  1.00835  0
H  H15  1  0.48700365  0.37024826  0.08431689  1  0.064625  0  0.101274  0.106569  0  0.993646  0
H  H16  1  0.13444892  0.78408863  0.44136195  1  0.09351  0  0.107013  0.123447  0  0.994053  0
H  H17  1  0.93848094  0.14146628  0.64243309  1  0.105715  0  0.106115  0.127129  0  1.003539  0
H  H18  1  0.06433251  0.21348341  0.36805711  1  0.087521  0  0.100271  0.110755  0  1.008202  0
H  H19  1  0.05777542  0.08430587  0.37054385  1  0.073336  0  0.101218  0.106225  0  0.994113  0
H  H20  1  0.86113589  0.85703159  0.56973006  1  0.109478  0  0.10285  0.113814  0  1.0038  0
H  H21  1  0.86182811  0.98999561  0.56546170  1  0.055034  0  0.102918  0.104718  0  0.993085  0
H  H22  1  0.27762161  0.14069207  0.44610298  1  0.079838  0  0.10762  0.124622  0  0.992774  0
H  H23  1  0.64015039  0.78168040  0.64023344  1  0.088172  0  0.108488  0.125113  0  0.992211  0
H  H24  1  0.71066532  0.85822754  0.36647110  1  0.098924  0  0.100397  0.110247  0  1.008773  0
H  H25  1  0.58283185  0.99274995  0.36801302  1  0.046542  0  0.102039  0.103361  0  0.994359  0
H  H26  1  0.35530049  0.21613258  0.56741041  1  0.093506  0  0.104448  0.116873  0  0.998658  0
H  H27  1  0.48857937  0.08688468  0.56242831  1  0.064616  0  0.105161  0.111385  0  0.987474  0
H  H28  1  0.93823291  0.63973390  0.78198031  1  0.093293  0  0.108882  0.125523  0  0.991571  0
H  H29  1  0.13566330  0.44562777  0.14133556  1  0.095473  0  0.107694  0.12467  0  0.992777  0
H  H30  1  0.86126220  0.56717328  0.21631810  1  0.085448  0  0.10451  0.117275  0  0.998591  0
H  H31  1  0.86244313  0.56230112  0.08689253  1  0.075865  0  0.105201  0.111463  0  0.987056  0
H  H32  1  0.06508936  0.36600107  0.85860176  1  0.078647  0  0.100412  0.110044  0  1.008526  0
H  H33  1  0.05695882  0.36766624  0.99302451  1  0.037922  0  0.102342  0.103943  0  0.994055  0
H  H34  1  0.12431294  0.80548270  0.16673080  1  0.109543  0  0.120049  0.133922  0  0.99872  0
H  H35  1  0.89089662  0.81809926  0.17550394  1  0.096926  0  0.113106  0.123127  0  1.01903  0
H  H36  1  0.90352337  0.16611966  0.80607559  1  0.121677  0  0.119837  0.133423  0  0.998662  0
H  H37  1  0.11537747  0.17508754  0.81879826  1  0.090705  0  0.113064  0.123059  0  1.019674  0
H  H38  1  0.28134655  0.44136550  0.63646585  1  0.084834  0  0.106828  0.123625  0  0.994381  0
H  H39  1  0.64078567  0.63592013  0.44200668  1  0.095588  0  0.107161  0.124047  0  0.993884  0
H  H40  1  0.71464689  0.36166086  0.56689443  1  0.085477  0  0.105064  0.116812  0  0.999246  0
H  H41  1  0.58735493  0.36217769  0.55863329  1  0.074637  0  0.104818  0.110664  0  0.987967  0
H  H42  1  0.35691298  0.56616678  0.36219741  1  0.083738  0  0.105048  0.11684  0  0.998987  0
H  H43  1  0.49189596  0.55800481  0.36271415  1  0.079829  0  0.104741  0.110712  0  0.987439  0
H  H44  1  0.46316518  0.66488481  0.94975130  1  0.443885  0  0.293381  0.286215  0  0.991806  0
H  H45  1  0.36656171  0.71651983  0.01396875  1  0.456779  0  0.293359  0.308672  0  0.987287  0
H  H46  1  0.43332998  0.45441113  0.95630468  1  0.422722  0  0.297324  0.290714  0  0.975493  0
H  H47  1  0.49571906  0.43400387  0.86159898  1  0.442681  0  0.305371  0.299814  0  0.944572  0
H  H48  1  0.15542181  0.95649756  0.45444219  1  0.432289  0  0.297405  0.290753  0  0.975329  0
H  H49  1  0.20827812  0.86178278  0.43403910  1  0.412775  0  0.305118  0.299  0  0.945014  0
H  H50  1  0.92183404  0.94937660  0.66519765  1  0.434068  0  0.293744  0.286648  0  0.992172  0
H  H51  1  0.90263099  0.01352182  0.71690890  1  0.474298  0  0.293584  0.308585  0  0.987584  0
H  H52  1  0.46531487  0.94818422  0.43186795  1  0.441477  0  0.29339  0.286906  0  0.994508  0
H  H53  1  0.37343018  0.01314022  0.40646527  1  0.435038  0  0.307419  0.303372  0  0.939156  0
H  H54  1  0.43691972  0.95867791  0.66228908  1  0.430658  0  0.295626  0.286574  0  0.983899  0
H  H55  1  0.49798611  0.86216040  0.71518200  1  0.446755  0  0.308795  0.30417  0  0.940024  0
H  H56  1  0.94250781  0.66203681  0.95876993  1  0.422002  0  0.295625  0.286573  0  0.983637  0
H  H57  1  0.92505156  0.71480770  0.86227343  1  0.424219  0  0.308634  0.303534  0  0.941602  0
H  H58  1  0.15504618  0.43169179  0.94851021  1  0.435132  0  0.293829  0.287096  0  0.993671  0
H  H59  1  0.20728005  0.40619829  0.01360048  1  0.44451  0  0.307354  0.303098  0  0.939786  0
H  H60  1  0.46043091  0.44386968  0.65643606  1  0.439167  0  0.296421  0.288544  0  0.980139  0
H  H61  1  0.36314395  0.42822154  0.70985923  1  0.430118  0  0.30639  0.30115  0  0.94323  0
H  H62  1  0.43932309  0.65589105  0.44428423  1  0.444782  0  0.296543  0.288555  0  0.98005  0
H  H63  1  0.49880967  0.70933784  0.42865326  1  0.430533  0  0.306729  0.301429  0  0.942676  0
H  H64  1  0.23650807  0.06589602  0.80097946  1  0.621548  0  0.347567  0.382304  0  0.85589  0
H  H65  1  0.22189752  0.99161604  0.05534388  1  0.64262  0  0.317922  0.369987  0  0.935868  0
H  H66  1  0.73121105  0.05511975  0.99214714  1  0.65817  0  0.318027  0.369918  0  0.935379  0
H  H67  1  0.89653872  0.80044979  0.06629309  1  0.611507  0  0.347987  0.382551  0  0.856547  0
C  C68  1  0.76144205  0.50381469  0.73620545  1  1.518859  0  0.234807  0.644599  0  4.091  0
C  C69  1  0.99863017  0.73560793  0.50429854  1  1.541891  0  0.2349  0.643128  0  4.091812  0
C  C70  1  0.23023294  0.50443497  0.26279556  1  1.516712  0  0.2347  0.644016  0  4.090515  0
C  C71  1  0.00226989  0.26233969  0.50501709  1  1.54134  0  0.234779  0.643843  0  4.08798  0
C  C72  1  0.00421077  0.26022417  0.73415834  1  1.584804  0  0.235484  0.632876  0  4.11505  0
C  C73  1  0.76070260  0.50058281  0.50671369  1  1.552925  0  0.235125  0.642603  0  4.092967  0
C  C74  1  0.00145489  0.73353783  0.26077061  1  1.573336  0  0.235663  0.633472  0  4.114315  0
C  C75  1  0.23213001  0.50596569  0.50109668  1  1.546729  0  0.236362  0.644342  0  4.092786  0
C  C76  1  0.00297857  0.50322763  0.73439484  1  1.536325  0  0.235053  0.642707  0  4.099059  0
C  C77  1  0.23147447  0.26362246  0.50581451  1  1.523849  0  0.234846  0.643969  0  4.095756  0
C  C78  1  0.99901833  0.50526121  0.26422494  1  1.555327  0  0.234443  0.64393  0  4.096835  0
C  C79  1  0.75950134  0.73391479  0.50384231  1  1.557978  0  0.234834  0.641285  0  4.098984  0
C  C80  1  0.30799139  0.50517618  0.18439224  1  0.028466  0  -0.025915  -0.031116  0  4.044038  0
C  C81  1  0.68261710  0.50541813  0.81357352  1  -0.006137  0  -0.024642  -0.028437  0  4.035703  0
C  C82  1  0.32308689  0.58271356  0.12801134  1  -0.09198  0  -0.100477  -0.212249  0  3.921208  0
C  C83  1  0.39562321  0.58588676  0.05286137  1  0.455376  0  0.097  0.264091  0  4.091454  0
C  C84  1  0.62553807  0.46969137  0.82932953  1  0.015151  0  -0.09984  -0.214203  0  3.943278  0
C  C85  1  0.54997071  0.47141703  0.90095196  1  0.375562  0  0.093798  0.25397  0  4.084903  0
C  C86  1  0.66647097  0.54202010  0.87052972  1  -0.034096  0  -0.108228  -0.140525  0  4.043814  0
C  C87  1  0.59354359  0.54041069  0.94357754  1  -0.086305  0  -0.099213  -0.13646  0  4.056311  0
C  C88  1  0.36614351  0.42777727  0.16858271  1  0.006928  0  -0.113113  -0.148254  0  4.052444  0
C  C89  1  0.43962515  0.43000909  0.09631788  1  -0.052431  0  -0.099915  -0.130598  0  4.058678  0
C  C90  1  0.45586856  0.50732220  0.03751203  1  -0.042807  0  -0.023678  -0.042685  0  3.971306  0
C  C91  1  0.53408181  0.50640505  0.96020393  1  -0.000382  0  -0.016811  -0.021289  0  3.961716  0
C  C92  1  0.99832628  0.81310973  0.50581898  1  -0.028513  0  -0.024499  -0.027202  0  4.033807  0
C  C93  1  0.00197655  0.18410276  0.50564118  1  0.025194  0  -0.026124  -0.0323  0  4.044451  0
C  C94  1  0.07525102  0.82911756  0.46994357  1  -0.025958  0  -0.099835  -0.214804  0  3.943051  0
C  C95  1  0.07726520  0.90087945  0.47161878  1  0.367947  0  0.093427  0.253938  0  4.083944  0
C  C96  1  0.96567219  0.12772642  0.58314852  1  -0.052992  0  -0.100278  -0.210959  0  3.919311  0
C  C97  1  0.96509243  0.05262664  0.58623233  1  0.439016  0  0.096541  0.264451  0  4.092316  0
C  C98  1  0.03696294  0.16842132  0.42818259  1  -0.051497  0  -0.112917  -0.148019  0  4.052731  0
C  C99  1  0.03344254  0.09623124  0.43033702  1  -0.124913  0  -0.099122  -0.128904  0  4.059017  0
C  C100  1  0.92083617  0.86997682  0.54246143  1  -0.07409  0  -0.108394  -0.141193  0  4.044112  0
C  C101  1  0.92211503  0.94316066  0.54078769  1  -0.042286  0  -0.098819  -0.135779  0  4.057185  0
C  C102  1  0.99884567  0.96002495  0.50667453  1  0.008797  0  -0.016965  -0.021259  0  3.961505  0
C  C103  1  0.99872141  0.03737611  0.50762202  1  -0.005763  0  -0.023708  -0.044122  0  3.97311  0
C  C104  1  0.30928918  0.18503843  0.50681879  1  -0.050796  0  -0.02372  -0.025518  0  4.032844  0
C  C105  1  0.68160109  0.81235173  0.50389823  1  -0.047462  0  -0.022623  -0.023279  0  4.031644  0
C  C106  1  0.32418713  0.12735632  0.47233318  1  0.03025  0  -0.100819  -0.217377  0  3.944128  0
C  C107  1  0.39653963  0.05238187  0.47298213  1  0.364849  0  0.092494  0.252999  0  4.095957  0
C  C108  1  0.62562677  0.82785354  0.58117891  1  -0.022224  0  -0.097433  -0.21182  0  3.938205  0
C  C109  1  0.55128275  0.90080589  0.58366850  1  0.390025  0  0.09485  0.256285  0  4.090185  0
C  C110  1  0.66589784  0.87079593  0.42643293  1  -0.038698  0  -0.1085  -0.14072  0  4.049422  0
C  C111  1  0.59406227  0.94478244  0.42815197  1  -0.067904  0  -0.099828  -0.13819  0  4.064285  0
C  C112  1  0.36740770  0.17017269  0.54135349  1  -0.024043  0  -0.107869  -0.142626  0  4.038939  0
C  C113  1  0.44103661  0.09788883  0.53879849  1  -0.064543  0  -0.096469  -0.127453  0  4.046054  0
C  C114  1  0.45711185  0.03816369  0.50549594  1  -0.021461  0  -0.020887  -0.035621  0  3.971395  0
C  C115  1  0.53536365  0.96087791  0.50537174  1  0.033167  0  -0.018587  -0.026624  0  3.965334  0
C  C116  1  0.00250059  0.50340350  0.81271247  1  -0.015665  0  -0.022798  -0.023967  0  4.031219  0
C  C117  1  0.99892750  0.50640564  0.18549987  1  -0.024481  0  -0.023592  -0.02457  0  4.033205  0
C  C118  1  0.96569079  0.58071953  0.82814932  1  -0.042214  0  -0.097681  -0.212511  0  3.937833  0
C  C119  1  0.96466046  0.58328474  0.90102750  1  0.411809  0  0.095387  0.257229  0  4.088661  0
C  C120  1  0.07626470  0.47192607  0.12787373  1  -0.031894  0  -0.101124  -0.218259  0  3.945316  0
C  C121  1  0.07837717  0.47266705  0.05278496  1  0.383538  0  0.092084  0.253057  0  4.09667  0
C  C122  1  0.92122022  0.54108624  0.17041695  1  -0.055978  0  -0.108435  -0.144075  0  4.03962  0
C  C123  1  0.92255758  0.53861215  0.09802282  1  -0.047049  0  -0.096064  -0.126894  0  4.045197  0
C  C124  1  0.03733529  0.42597763  0.87113120  1  -0.023344  0  -0.108945  -0.140441  0  4.048276  0
C  C125  1  0.03351398  0.42776943  0.94506246  1  -0.090177  0  -0.099986  -0.138737  0  4.063062  0
C  C126  1  0.99887408  0.50503557  0.96109625  1  0.029968  0  -0.018762  -0.027113  0  3.96508  0
C  C127  1  0.99959230  0.50525198  0.03839079  1  0.006599  0  -0.020808  -0.035797  0  3.973549  0
C  C128  1  0.07585123  0.83701954  0.13623357  1  -0.005405  0  -0.063285  -0.110644  0  3.88076  0
C  C129  1  0.08098022  0.90736325  0.05936090  1  -0.010683  0  0.002367  0.061284  0  3.982897  0
C  C130  1  0.14833451  0.94370534  0.01972044  1  0.018713  0  0.001541  -0.09175  0  3.928873  0
C  C131  1  0.94378377  0.84358673  0.13991024  1  -0.031732  0  -0.082506  -0.160962  0  3.947008  0
C  C132  1  0.94779851  0.91184145  0.06126662  1  -0.018676  0  -0.006994  0.048987  0  4.027866  0
C  C133  1  0.88470002  0.94982322  0.01988252  1  -0.041315  0  -0.01612  -0.147747  0  4.001496  0
C  C134  1  0.95091818  0.13565978  0.83763604  1  -0.010856  0  -0.063468  -0.110178  0  3.879653  0
C  C135  1  0.95235448  0.05877913  0.90795469  1  -0.006633  0  0.002657  0.061576  0  3.983362  0
C  C136  1  0.88832278  0.01912674  0.94426222  1  0.024039  0  0.001639  -0.091682  0  3.929879  0
C  C137  1  0.07264651  0.13944418  0.84426786  1  -0.038408  0  -0.082456  -0.16029  0  3.947573  0
C  C138  1  0.07906127  0.06077516  0.91249503  1  -0.017889  0  -0.006373  0.049932  0  4.026764  0
C  C139  1  0.14560477  0.01935479  0.95043520  1  -0.04113  0  -0.016261  -0.148224  0  4.001806  0
C  C140  1  0.00720283  0.80669466  0.17667079  1  0.029586  0  -0.008183  -0.009667  0  3.972033  0
C  C141  1  0.01576786  0.94637322  0.02163582  1  0.026685  0  0.011839  0.017931  0  3.906922  0
C  C142  1  0.00938942  0.17615581  0.80735115  1  0.040064  0  -0.008444  -0.011158  0  3.97286  0
C  C143  1  0.01625526  0.02106244  0.94699427  1  -0.020599  0  0.010803  0.01699  0  3.906228  0
C  C144  1  0.31153993  0.50452965  0.49994850  1  -0.048329  0  -0.023437  -0.026084  0  4.034796  0
C  C145  1  0.68390410  0.49941857  0.50523596  1  0.029191  0  -0.023209  -0.025968  0  4.034486  0
C  C146  1  0.32771916  0.46785819  0.57698569  1  -0.000393  0  -0.100383  -0.216342  0  3.94623  0
C  C147  1  0.40151045  0.46583271  0.57866249  1  0.347369  0  0.092973  0.253359  0  4.097804  0
C  C148  1  0.62740336  0.57643880  0.46848875  1  -0.075172  0  -0.101148  -0.216896  0  3.946024  0
C  C149  1  0.55399295  0.57812261  0.46638543  1  0.384917  0  0.093064  0.253146  0  4.097775  0
C  C150  1  0.66955237  0.42142121  0.53912213  1  -0.048962  0  -0.10583  -0.139587  0  4.035812  0
C  C151  1  0.59840003  0.42242795  0.53462360  1  -0.027907  0  -0.095705  -0.126532  0  4.042548  0
C  C152  1  0.36999815  0.53842521  0.42196501  1  -0.049191  0  -0.106014  -0.140069  0  4.036181  0
C  C153  1  0.44461578  0.53397924  0.42297487  1  -0.056248  0  -0.095512  -0.126323  0  4.043578  0
C  C154  1  0.46165871  0.49906634  0.49984663  1  0.047237  0  -0.021173  -0.036092  0  3.975505  0
C  C155  1  0.53942437  0.49929942  0.49964706  1  -0.057328  0  -0.020871  -0.035884  0  3.974107  0
C  C156  1  0.21135622  0.06088327  0.91439141  1  1.505959  0  0.242975  0.588115  0  4.097382  0
C  C157  1  0.22352211  0.89096573  0.05314628  1  1.558929  0  0.236252  0.578977  0  4.131425  0
C  C158  1  0.83241500  0.05264192  0.89152639  1  1.558796  0  0.23525  0.577344  0  4.13215  0
C  C159  1  0.81339227  0.91387952  0.06138489  1  1.520253  0  0.242885  0.58726  0  4.097696  0
N  N160  1  0.40473720  0.66421402  0.99469884  1  -1.260392  0  -0.605122  -0.63274  0  3.355956  0
N  N161  1  0.49339442  0.43690643  0.91440683  1  -1.226981  0  -0.60226  -0.629909  0  3.340077  0
N  N162  1  0.15482164  0.91452044  0.43699453  1  -1.19696  0  -0.602041  -0.629069  0  3.339943  0
N  N163  1  0.93588702  0.99439580  0.66452346  1  -1.258912  0  -0.605237  -0.63294  0  3.358178  0
N  N164  1  0.40567855  0.99169487  0.44634996  1  -1.241996  0  -0.605707  -0.631966  0  3.332859  0
N  N165  1  0.49622547  0.91456739  0.66126405  1  -1.231572  0  -0.601144  -0.627471  0  3.346085  0
N  N166  1  0.92834064  0.66092521  0.91471001  1  -1.217285  0  -0.601088  -0.626812  0  3.347552  0
N  N167  1  0.15661374  0.44609298  0.99212618  1  -1.241757  0  -0.606032  -0.631681  0  3.332619  0
N  N168  1  0.41568661  0.42997576  0.65614757  1  -1.211915  0  -0.602339  -0.628864  0  3.344404  0
N  N169  1  0.49823573  0.65559440  0.43045620  1  -1.240931  0  -0.602671  -0.628902  0  3.343034  0
O  O170  1  0.79077284  0.44528201  0.70449228  1  -1.181245  0  -0.357078  -0.623366  0  2.266404  0
O  O171  1  0.05955522  0.70388573  0.44577661  1  -1.186982  0  -0.357317  -0.622457  0  2.265268  0
O  O172  1  0.19704348  0.56581835  0.29196368  1  -1.188465  0  -0.359956  -0.623993  0  2.28058  0
O  O173  1  0.94497132  0.29148652  0.56643277  1  -1.186563  0  -0.360479  -0.62423  0  2.279995  0
O  O174  1  0.06262701  0.29136995  0.70574870  1  -1.176727  0  -0.344575  -0.606788  0  2.272942  0
O  O175  1  0.78898553  0.56263983  0.44940531  1  -1.187211  0  -0.35894  -0.622118  0  2.281336  0
O  O176  1  0.94024942  0.70519266  0.29194158  1  -1.176158  0  -0.344715  -0.607293  0  2.271806  0
O  O177  1  0.19912179  0.44863982  0.56313224  1  -1.183441  0  -0.359156  -0.622713  0  2.282812  0
O  O178  1  0.94547462  0.56443895  0.70144621  1  -1.181997  0  -0.355368  -0.618912  0  2.281794  0
O  O179  1  0.19938086  0.29262380  0.44773812  1  -1.17908  0  -0.354403  -0.617444  0  2.276368  0
O  O180  1  0.06010723  0.44708951  0.29330741  1  -1.183079  0  -0.354055  -0.617051  0  2.276553  0
O  O181  1  0.78870227  0.70089923  0.56509279  1  -1.185428  0  -0.355141  -0.61874  0  2.281003  0
O  O182  1  0.20321824  0.29681020  0.56299713  1  -1.179186  0  -0.363031  -0.628492  0  2.280016  0
O  O183  1  0.93689317  0.56241412  0.29744314  1  -1.184039  0  -0.362469  -0.628651  0  2.280307  0
O  O184  1  0.79219109  0.70615016  0.44150033  1  -1.180521  0  -0.361104  -0.623328  0  2.276647  0
O  O185  1  0.06032982  0.44086074  0.70665478  1  -1.1848  0  -0.360712  -0.624204  0  2.277561  0
O  O186  1  0.94140223  0.29280702  0.70761570  1  -1.173075  0  -0.344769  -0.602655  0  2.280649  0
O  O187  1  0.20324441  0.56358519  0.43943789  1  -1.180974  0  -0.358063  -0.620388  0  2.27183  0
O  O188  1  0.05820295  0.70698608  0.29337883  1  -1.170725  0  -0.345066  -0.603283  0  2.281839  0
O  O189  1  0.79362319  0.43891272  0.56432623  1  -1.187486  0  -0.357178  -0.619301  0  2.271879  0
O  O190  1  0.05909082  0.29589484  0.44237861  1  -1.184519  0  -0.359907  -0.622713  0  2.273505  0
O  O191  1  0.79488472  0.56096336  0.70753305  1  -1.177931  0  -0.361207  -0.623821  0  2.281843  0
O  O192  1  0.93677245  0.70687384  0.56151808  1  -1.180918  0  -0.361372  -0.623652  0  2.283748  0
O  O193  1  0.20255228  0.44173524  0.29644537  1  -1.17779  0  -0.360168  -0.623071  0  2.274923  0
O  O194  1  0.94595007  0.44841139  0.45069189  1  -1.238546  0  -0.695532  -1.067735  0  2.364557  0
O  O195  1  0.15493421  0.45004505  0.44895910  1  -1.231771  0  -0.695663  -1.068501  0  2.364814  0
O  O196  1  0.94539383  0.65843816  0.44879486  1  -1.256434  0  -0.694781  -1.069943  0  2.363122  0
O  O197  1  0.94740497  0.44822393  0.65902455  1  -1.246131  0  -0.694511  -1.069329  0  2.364501  0
O  O198  1  0.03694037  0.54046521  0.53956565  1  -1.19975  0  -0.793135  -1.148219  0  2.134916  0
O  O199  1  0.88304901  0.53900724  0.54107432  1  -1.19799  0  -0.793175  -1.148346  0  2.135436  0
O  O200  1  0.03581694  0.54042404  0.38623119  1  -1.19962  0  -0.789925  -1.149255  0  2.12034  0
O  O201  1  0.03745137  0.38568100  0.54100960  1  -1.201778  0  -0.790269  -1.149304  0  2.1205  0
O  O202  1  0.25626841  0.08004891  0.82934246  1  -1.099357  0  -0.314303  -0.442761  0  2.208517  0
O  O203  1  0.22585058  0.07795686  0.95894705  1  -1.102338  0  -0.263637  -0.445038  0  2.090419  0
O  O204  1  0.24553971  0.92768490  0.07992005  1  -1.123232  0  -0.330145  -0.46082  0  2.224678  0
O  O205  1  0.26118953  0.81538592  0.05788165  1  -1.134852  0  -0.267083  -0.458715  0  2.128487  0
O  O206  1  0.74691762  0.07966350  0.92822173  1  -1.139935  0  -0.329799  -0.459951  0  2.225037  0
O  O207  1  0.86555095  0.05722984  0.81599413  1  -1.127513  0  -0.2664  -0.457717  0  2.127682  0
O  O208  1  0.83427272  0.82887186  0.08047747  1  -1.088761  0  -0.314919  -0.442951  0  2.209687  0
O  O209  1  0.73730358  0.95852915  0.07845411  1  -1.120599  0  -0.263605  -0.444469  0  2.090409  0
