# generated using pymatgen
data_CuMo3H8C6N4O11
_symmetry_space_group_name_H-M   'P 1'
_cell_length_a   8.05857599
_cell_length_b   10.24240117
_cell_length_c   10.71363002
_cell_angle_alpha   64.13952408
_cell_angle_beta   75.33492634
_cell_angle_gamma   70.98547164
_symmetry_Int_Tables_number   1
_chemical_formula_structural   CuMo3H8C6N4O11
_chemical_formula_sum   'Cu2 Mo6 H16 C12 N8 O22'
_cell_volume   745.88369473
_cell_formula_units_Z   2
loop_
 _symmetry_equiv_pos_site_id
 _symmetry_equiv_pos_as_xyz
  1  'x, y, z'
loop_
 _atom_site_type_symbol
 _atom_site_label
 _atom_site_symmetry_multiplicity
 _atom_site_fract_x
 _atom_site_fract_y
 _atom_site_fract_z
 _atom_site_occupancy
 _atom_site_pbe_cm5_charge
 _atom_site_pbe_ddec_charge
 _atom_site_pbe_ddec_spin_density
 _atom_site_pbe_ddec_sum_bond_order
 _atom_site_pbe_magmom
Cu  Cu0  1  0.74312370  0.03688973  0.26135122  1  0.769032  0.922259  -0.749742  2.254597  -0.601
Cu  Cu1  1  0.25688054  0.96311201  0.73864668  1  0.769036  0.922263  -0.749748  2.254628  -0.601
Mo  Mo2  1  0.98547346  0.33532181  0.03367976  1  1.529825  2.196695  0.002062  4.586177  0.001
Mo  Mo3  1  0.01452469  0.66467882  0.96632162  1  1.529845  2.196716  0.002062  4.586179  0.001
Mo  Mo4  1  0.60929951  0.61508201  0.85025395  1  1.540147  2.216081  -0.012503  4.578722  -0.021
Mo  Mo5  1  0.39069769  0.38491750  0.14974714  1  1.540118  2.216007  -0.012503  4.578858  -0.021
Mo  Mo6  1  0.36960188  0.34806092  0.86224821  1  1.519618  2.130484  -0.000474  4.643555  -0.001
Mo  Mo7  1  0.63039693  0.65193747  0.13775398  1  1.519619  2.130476  -0.000474  4.643602  -0.001
H  H8  1  0.07529345  0.65909512  0.65011087  1  0.331347  0.310409  -0.000398  0.9085  -0.001
H  H9  1  0.92470535  0.34090327  0.34989039  1  0.331346  0.310417  -0.000398  0.9085  -0.001
H  H10  1  0.85505621  0.91469951  0.73178728  1  0.313149  0.308035  -0.000403  0.965502  -0.001
H  H11  1  0.14494196  0.08529664  0.26821317  1  0.313145  0.30803  -0.000403  0.965473  -0.001
H  H12  1  0.06149688  0.70918475  0.23935175  1  0.123195  0.134842  -0.000483  1.011861  -0.001
H  H13  1  0.93850897  0.29081587  0.76064537  1  0.123219  0.134882  -0.000483  1.011899  -0.001
H  H14  1  0.22542276  0.53327539  0.47867114  1  0.130211  0.141784  -0.000987  1.003055  -0.001
H  H15  1  0.77457894  0.46672188  0.52133004  1  0.130202  0.141787  -0.000987  1.003111  -0.001
H  H16  1  0.49461012  0.24885676  0.45328358  1  0.122582  0.13008  -0.000316  1.027315  -0.001
H  H17  1  0.50539604  0.75114722  0.54671489  1  0.122592  0.130057  -0.000316  1.027312  -0.001
H  H18  1  0.60181301  0.14621818  0.71601127  1  0.120343  0.119599  -0.000826  1.07912  -0.001
H  H19  1  0.39818708  0.85378022  0.28398788  1  0.120355  0.119614  -0.000826  1.079062  -0.001
H  H20  1  0.79528037  0.90821589  0.08860620  1  0.294687  0.408799  -0.000548  0.922182  -0.001
H  H21  1  0.20472098  0.09178698  0.91139178  1  0.294757  0.408966  -0.000548  0.921971  -0.001
H  H22  1  0.68281502  0.07887370  0.02244998  1  0.298602  0.415314  -0.000762  0.904129  -0.001
H  H23  1  0.31718633  0.92112917  0.97754707  1  0.298634  0.415327  -0.000762  0.904102  -0.001
C  C24  1  0.92383651  0.82920841  0.48957489  1  0.214494  0.218738  0.002255  4.065975  0.0
C  C25  1  0.07616454  0.17079110  0.51042548  1  0.214518  0.218804  0.002255  4.065934  0.0
C  C26  1  0.80580937  0.94420308  0.53443360  1  0.213767  0.211125  0.00156  4.071256  0.0
C  C27  1  0.19419328  0.05579531  0.46556693  1  0.213729  0.211074  0.00156  4.071176  0.0
C  C28  1  0.03932657  0.72492996  0.33644013  1  0.014482  0.007558  -0.003208  3.907065  -0.004
C  C29  1  0.96067158  0.27507067  0.66356126  1  0.014487  0.007557  -0.003207  3.907087  -0.004
C  C30  1  0.12191984  0.63603656  0.45464217  1  0.022245  -0.021013  -0.004379  3.869332  -0.005
C  C31  1  0.87807992  0.36396295  0.54535751  1  0.022244  -0.021023  -0.004379  3.869413  -0.005
C  C32  1  0.59469264  0.15109242  0.50486298  1  0.007488  -0.019657  -0.002435  3.965005  -0.004
C  C33  1  0.40531064  0.84890820  0.49513556  1  0.007488  -0.019588  -0.002434  3.964881  -0.004
C  C34  1  0.64515248  0.10138530  0.63505370  1  0.011622  -0.039174  -0.003643  3.901577  -0.005
C  C35  1  0.35484727  0.89861421  0.36494598  1  0.011589  -0.039251  -0.003643  3.901494  -0.005
N  N36  1  0.91590692  0.84426930  0.35963065  1  -0.361466  -0.348288  -0.06724  3.541666  -0.089
N  N37  1  0.08409347  0.15573245  0.64036891  1  -0.361501  -0.348379  -0.067243  3.541705  -0.089
N  N38  1  0.69586309  0.05227532  0.44384307  1  -0.37698  -0.347894  -0.06804  3.627229  -0.09
N  N39  1  0.30414115  0.94772642  0.55615576  1  -0.376966  -0.347909  -0.068038  3.627198  -0.09
N  N40  1  0.04826854  0.70379581  0.54921474  1  -0.357936  -0.20006  0.000128  3.609076  0.0
N  N41  1  0.95173315  0.29620146  0.45078644  1  -0.357943  -0.200086  0.000128  3.609118  0.0
N  N42  1  0.77777225  0.97218609  0.65099549  1  -0.366445  -0.204738  0.000146  3.614896  0.0
N  N43  1  0.22222816  0.02781118  0.34900593  1  -0.366423  -0.204666  0.000146  3.614813  0.0
O  O44  1  0.80773178  0.38946002  0.94138663  1  -0.535187  -0.742483  -0.001625  1.934465  -0.002
O  O45  1  0.19226766  0.61054061  0.05861358  1  -0.53518  -0.74249  -0.001625  1.934456  -0.002
O  O46  1  0.46131478  0.46797005  0.91229506  1  -0.615386  -0.968167  -0.000109  2.260771  0.0
O  O47  1  0.53868402  0.53202834  0.08770620  1  -0.615383  -0.968155  -0.000109  2.260784  0.0
O  O48  1  0.43155211  0.77532086  0.81150153  1  -0.553184  -0.767377  -0.039673  2.065452  -0.058
O  O49  1  0.56844541  0.22467754  0.18849811  1  -0.553194  -0.767375  -0.039674  2.065523  -0.058
O  O50  1  0.17323202  0.25963449  0.90637184  1  -0.586546  -0.868656  -0.000813  2.020476  -0.001
O  O51  1  0.82676708  0.74036726  0.09362890  1  -0.586569  -0.868609  -0.000813  2.020448  -0.001
O  O52  1  0.70847873  0.61116087  0.69025160  1  -0.502104  -0.64468  -0.005193  1.677516  -0.007
O  O53  1  0.29152136  0.38883751  0.30975128  1  -0.502103  -0.64468  -0.005193  1.677525  -0.007
O  O54  1  0.25012058  0.31468546  0.09327348  1  -0.599314  -0.970142  0.001012  2.107356  0.0
O  O55  1  0.74987629  0.68531517  0.90672815  1  -0.599332  -0.970176  0.001012  2.107352  0.0
O  O56  1  0.53972390  0.18627384  0.89960346  1  -0.51186  -0.680767  -0.001188  1.73015  -0.002
O  O57  1  0.46027362  0.81372455  0.10039804  1  -0.511851  -0.680781  -0.001188  1.730161  -0.002
O  O58  1  0.96991021  0.16498247  0.17177437  1  -0.534898  -0.743367  0.000152  1.854454  -0.001
O  O59  1  0.03008987  0.83501592  0.82822758  1  -0.534925  -0.743395  0.000152  1.85455  -0.001
O  O60  1  0.90491095  0.46810419  0.12348672  1  -0.589793  -0.936687  -0.001007  2.028593  -0.001
O  O61  1  0.09508335  0.53189645  0.87651446  1  -0.589819  -0.936699  -0.001007  2.028513  -0.001
O  O62  1  0.39044292  0.43238243  0.68371250  1  -0.507905  -0.633148  -0.000317  1.602104  0.0
O  O63  1  0.60955556  0.56761708  0.31628929  1  -0.507919  -0.633171  -0.000317  1.602177  0.0
O  O64  1  0.77522121  0.01163377  0.08492118  1  -0.577766  -0.735443  -0.041  2.135448  -0.058
O  O65  1  0.22478110  0.98837021  0.91507615  1  -0.57788  -0.735605  -0.041  2.13531  -0.058
