# generated using pymatgen
data_Al2H17C18O10F
_symmetry_space_group_name_H-M   'P 1'
_cell_length_a   6.65621188
_cell_length_b   11.17917561
_cell_length_c   11.00968816
_cell_angle_alpha   88.70394072
_cell_angle_beta   72.51961484
_cell_angle_gamma   72.41320908
_symmetry_Int_Tables_number   1
_chemical_formula_structural   Al2H17C18O10F
_chemical_formula_sum   'Al2 H17 C18 O10 F1'
_cell_volume   742.79125314
_cell_formula_units_Z   1
loop_
 _symmetry_equiv_pos_site_id
 _symmetry_equiv_pos_as_xyz
  1  'x, y, z'
loop_
 _atom_site_type_symbol
 _atom_site_label
 _atom_site_symmetry_multiplicity
 _atom_site_fract_x
 _atom_site_fract_y
 _atom_site_fract_z
 _atom_site_occupancy
 _atom_site_pbe_bader_charge
 _atom_site_pbe_bader_spin_density
 _atom_site_pbe_cm5_charge
 _atom_site_pbe_ddec_charge
 _atom_site_pbe_ddec_spin_density
 _atom_site_pbe_ddec_sum_bond_order
 _atom_site_pbe_magmom
Al  Al0  1  0.00028658  0.50008719  0.50355247  1  2.502598  0  0.398808  1.638059  0  2.583607  0
Al  Al1  1  0.50307866  0.49945796  0.49872112  1  2.490527  0  0.397224  1.641332  0  2.584695  0
H  H2  1  0.13996649  0.64963596  0.57834307  1  0.644837  0  0.350334  0.430051  0  0.859444  0
H  H3  1  0.86893198  0.42754973  0.34856980  1  0.624283  0  0.349307  0.424025  0  0.868213  0
H  H4  1  0.77769848  0.11266702  0.47837185  1  0.091452  0  0.110334  0.118163  0  1.002324  0
H  H5  1  0.09890518  0.12780545  0.54544498  1  0.137222  0  0.12051  0.148733  0  0.987409  0
H  H6  1  0.88656632  0.87678616  0.47166186  1  0.116897  0  0.106195  0.113233  0  1.023096  0
H  H7  1  0.60063604  0.29422461  0.10002854  1  0.013019  0  0.090331  0.083999  0  0.978972  0
H  H8  1  0.77266459  0.38689551  0.10191856  1  0.040739  0  0.091142  0.087893  0  0.995171  0
H  H9  1  0.88410238  0.37286950  0.87829911  1  0.064067  0  0.095058  0.09567  0  0.990302  0
H  H10  1  0.69501471  0.29074742  0.87827939  1  -0.002611  0  0.091061  0.086041  0  0.978138  0
H  H11  1  0.75853535  0.60809130  0.90071586  1  0.032371  0  0.095545  0.095939  0  0.984906  0
H  H12  1  0.49000520  0.69579172  0.89842442  1  0.0206  0  0.09108  0.084968  0  0.980001  0
H  H13  1  0.62184343  0.62291335  0.12426771  1  0.046398  0  0.093734  0.09186  0  0.99053  0
H  H14  1  0.34987896  0.69873612  0.11954282  1  0.01481  0  0.091665  0.086886  0  0.97659  0
H  H15  1  0.20535878  0.40260167  0.09763697  1  -0.005563  0  0.087322  0.079768  0  0.989242  0
H  H16  1  0.09641277  0.56775325  0.11534878  1  0.024122  0  0.090558  0.087601  0  0.991369  0
H  H17  1  0.21587909  0.57851363  0.89387859  1  0.023903  0  0.091686  0.089778  0  0.984588  0
H  H18  1  0.30322189  0.41364435  0.87615447  1  0.024794  0  0.09302  0.091471  0  0.981625  0
C  C19  1  0.64192740  0.49495121  0.72991121  1  1.558644  0  0.275728  0.634747  0  4.032852  0
C  C20  1  0.62973640  0.72877873  0.50105952  1  1.574607  0  0.265729  0.656255  0  4.099316  0
C  C21  1  0.36210402  0.49758118  0.26831247  1  1.572003  0  0.273666  0.641806  0  4.022768  0
C  C22  1  0.36634928  0.27417058  0.50890946  1  1.59739  0  0.270019  0.635241  0  4.103304  0
C  C23  1  0.55673276  0.86931845  0.50596372  1  0.047308  0  -0.01982  -0.150235  0  3.951821  0
C  C24  1  0.43308869  0.13408944  0.51073153  1  -0.02406  0  -0.005207  -0.002422  0  3.981813  0
C  C25  1  0.33518678  0.94326792  0.52844163  1  0.383166  0  0.108905  0.281747  0  4.03243  0
C  C26  1  0.65498733  0.06356675  0.49148496  1  -0.0499  0  -0.085178  -0.112901  0  3.977109  0
C  C27  1  0.27186811  0.07338545  0.52951537  1  0.037154  0  -0.090769  -0.229099  0  3.972895  0
C  C28  1  0.71470233  0.93310055  0.48815407  1  0.019042  0  -0.078104  -0.069513  0  3.978429  0
C  C29  1  0.63899763  0.38047368  0.06589312  1  -0.039073  0  -0.156959  -0.167822  0  3.857147  0
C  C30  1  0.71014587  0.37588506  0.91803894  1  -0.026391  0  -0.156652  -0.17292  0  3.856267  0
C  C31  1  0.56303779  0.49304190  0.87438924  1  0.046746  0  -0.014238  0.016807  0  3.813756  0
C  C32  1  0.58385467  0.61115944  0.93387501  1  -0.03182  0  -0.154219  -0.170826  0  3.850682  0
C  C33  1  0.49613295  0.61580447  0.08151915  1  -0.019055  0  -0.154469  -0.165937  0  3.852857  0
C  C34  1  0.43264351  0.49561052  0.12331878  1  0.030691  0  -0.016498  0.009151  0  3.81573  0
C  C35  1  0.24686401  0.48951717  0.07011138  1  0.006824  0  -0.163729  -0.176769  0  3.893861  0
C  C36  1  0.32053940  0.49394096  0.92327251  1  -0.000851  0  -0.16292  -0.179666  0  3.882972  0
O  O37  1  0.84431929  0.48721298  0.67700032  1  -1.270756  0  -0.235423  -0.588042  0  2.345701  0
O  O38  1  0.49608934  0.67364219  0.48675070  1  -1.246276  0  -0.238373  -0.601125  0  2.370166  0
O  O39  1  0.51063712  0.48962960  0.32201698  1  -1.271447  0  -0.241716  -0.610322  0  2.349061  0
O  O40  1  0.17400032  0.32837949  0.50056102  1  -1.249912  0  -0.229203  -0.576351  0  2.354556  0
O  O41  1  0.16078913  0.50622099  0.32605688  1  -1.276664  0  -0.237836  -0.60298  0  2.369771  0
O  O42  1  0.50794643  0.32752730  0.51335572  1  -1.254061  0  -0.229413  -0.574968  0  2.338084  0
O  O43  1  0.49954921  0.50740402  0.67149446  1  -1.264253  0  -0.230739  -0.585437  0  2.379777  0
O  O44  1  0.82187885  0.67548676  0.51147074  1  -1.26103  0  -0.236479  -0.595179  0  2.32967  0
O  O45  1  0.19509154  0.55976167  0.55529467  1  -1.437646  0  -0.449576  -0.990309  0  2.189842  0
O  O46  1  0.81066567  0.44505512  0.44052930  1  -1.419881  0  -0.450791  -0.989085  0  2.196315  0
F  F47  1  0.17047324  0.88911890  0.55303154  1  -0.634964  0  -0.09065  -0.139315  0  1.380285  0
