# generated using pymatgen
data_Al3H18C24BrO14
_symmetry_space_group_name_H-M   'P 1'
_cell_length_a   11.33940021
_cell_length_b   11.93214546
_cell_length_c   19.29254868
_cell_angle_alpha   89.65825327
_cell_angle_beta   84.32564679
_cell_angle_gamma   56.41381227
_symmetry_Int_Tables_number   1
_chemical_formula_structural   Al3H18C24BrO14
_chemical_formula_sum   'Al6 H36 C48 Br2 O28'
_cell_volume   2160.16383370
_cell_formula_units_Z   2
loop_
 _symmetry_equiv_pos_site_id
 _symmetry_equiv_pos_as_xyz
  1  'x, y, z'
loop_
 _atom_site_type_symbol
 _atom_site_label
 _atom_site_symmetry_multiplicity
 _atom_site_fract_x
 _atom_site_fract_y
 _atom_site_fract_z
 _atom_site_occupancy
 _atom_site_pbe_bader_charge
 _atom_site_pbe_bader_spin_density
 _atom_site_pbe_cm5_charge
 _atom_site_pbe_ddec_charge
 _atom_site_pbe_ddec_spin_density
 _atom_site_pbe_ddec_sum_bond_order
 _atom_site_pbe_magmom
Al  Al0  1  0.56101256  0.05362542  0.73233103  1  2.49078  0  0.406444  1.681846  0  2.542379  0
Al  Al1  1  0.78172335  0.29763390  0.25185619  1  2.492529  0  0.39801  1.679599  0  2.567715  0
Al  Al2  1  0.26025102  0.08588381  0.74564789  1  2.483173  0  0.508333  1.65931  0  2.51611  0
Al  Al3  1  0.48769143  0.58841027  0.26847157  1  2.481699  0  0.512113  1.659777  0  2.497256  0
Al  Al4  1  0.26060183  0.33761276  0.75494115  1  2.480927  0  0.507038  1.662061  0  2.505342  0
Al  Al5  1  0.75907060  0.57885013  0.24455931  1  2.481097  0  0.507158  1.661396  0  2.503431  0
H  H6  1  0.37064236  0.74836382  0.44921775  1  0.064289  0  0.094671  0.096754  0  1.029219  0
H  H7  1  0.26485097  0.44617082  0.55937142  1  0.046588  0  0.098746  0.101466  0  0.979142  0
H  H8  1  0.74190296  0.69196718  0.42940417  1  0.08961  0  0.097637  0.101076  0  0.995401  0
H  H9  1  0.70569382  0.80385446  0.53762907  1  0.043513  0  0.100927  0.110227  0  0.963282  0
H  H10  1  0.29882188  0.44264136  0.43716269  1  0.052575  0  0.096915  0.101323  0  0.971104  0
H  H11  1  0.86826297  0.24217939  0.05179039  1  0.061656  0  0.097239  0.099585  0  0.983637  0
H  H12  1  0.10692639  0.10596798  0.94240505  1  0.050499  0  0.093316  0.091928  0  0.991494  0
H  H13  1  0.62807767  0.12186305  0.53814163  1  0.036602  0  0.095448  0.097746  0  0.997168  0
H  H14  1  0.04906828  0.13873198  0.06357067  1  0.037836  0  0.099687  0.103807  0  0.969161  0
H  H15  1  0.92606038  0.21527093  0.93060656  1  0.037601  0  0.094452  0.093455  0  0.973814  0
H  H16  1  0.75271618  0.49211302  0.03819878  1  0.000379  0  0.089096  0.080244  0  0.992696  0
H  H17  1  0.25794437  0.19970895  0.95699943  1  0.032568  0  0.090692  0.083172  0  0.989037  0
H  H18  1  0.81928206  0.46692185  0.91887883  1  0.032259  0  0.092959  0.088133  0  0.979187  0
H  H19  1  0.19217092  0.24116515  0.07646324  1  0.027638  0  0.09581  0.092223  0  0.974781  0
H  H20  1  0.11169211  0.41606053  0.06777282  1  0.046414  0  0.096702  0.098362  0  0.976813  0
H  H21  1  0.92560087  0.53048545  0.92908667  1  0.035171  0  0.097199  0.100256  0  0.976902  0
H  H22  1  0.18391603  0.37364622  0.94832217  1  0.039366  0  0.095075  0.093442  0  1.008196  0
H  H23  1  0.84882974  0.56621843  0.04864345  1  0.033786  0  0.096709  0.098443  0  0.990837  0
H  H24  1  0.28426304  0.92260309  0.44284716  1  0.053815  0  0.090011  0.095919  0  0.989986  0
H  H25  1  0.71789616  0.18918569  0.56836500  1  0.074926  0  0.095416  0.10561  0  0.988004  0
H  H26  1  0.26736515  0.92813606  0.56559554  1  0.063027  0  0.098528  0.105751  0  0.977143  0
H  H27  1  0.74290878  0.26293793  0.45830122  1  0.041407  0  0.092621  0.094857  0  0.98514  0
H  H28  1  0.40838615  0.75758990  0.56716914  1  0.034887  0  0.088557  0.089906  0  0.998665  0
H  H29  1  0.50889803  0.05055942  0.51934198  1  0.063242  0  0.097591  0.102013  0  1.022532  0
H  H30  1  0.68671369  0.16495295  0.42537796  1  0.043407  0  0.09633  0.099333  0  0.980124  0
H  H31  1  0.65293582  0.61768563  0.46433810  1  0.023975  0  0.088229  0.083419  0  1.023804  0
H  H32  1  0.34776556  0.27113139  0.54782815  1  0.015798  0  0.09281  0.086664  0  1.016893  0
H  H33  1  0.66036614  0.69373234  0.57302817  1  0.05737  0  0.08805  0.087777  0  1.012491  0
H  H34  1  0.42130240  0.26585573  0.42938868  1  0.052073  0  0.08158  0.081653  0  1.035926  0
H  H35  1  0.37955250  0.58464639  0.48420792  1  0.057575  0  0.103071  0.11319  0  0.983297  0
H  H36  1  0.60477023  0.93218292  0.40960258  1  0.085966  0  0.108142  0.094162  0  0.95565  0
H  H37  1  0.38446521  0.54279667  0.60199620  1  0.091178  0  0.107985  0.092745  0  0.966281  0
H  H38  1  0.33730721  0.08523957  0.51063784  1  0.058237  0  0.09364  0.10234  0  0.998854  0
H  H39  1  0.56246541  0.52087555  0.48072582  1  0.065672  0  0.091485  0.09538  0  1.031385  0
H  H40  1  0.79291838  0.90869374  0.76168445  1  0.584504  0  0.297352  0.390226  0  0.912352  0
H  H41  1  0.86371644  0.08000354  0.28738598  1  0.5729  0  0.292938  0.381387  0  0.926445  0
C  C42  1  0.46339865  0.29895983  0.64987294  1  1.548123  0  0.27647  0.627406  0  4.0488  0
C  C43  1  0.36320223  0.35285182  0.53700876  1  -0.005426  0  -0.152937  -0.17111  0  3.834386  0
C  C44  1  0.64528275  0.71343210  0.46130244  1  -0.064858  0  -0.156558  -0.177462  0  3.841811  0
C  C45  1  0.50245310  0.94726368  0.42882234  1  -0.009085  0  -0.057395  0.051479  0  3.680539  0
C  C46  1  0.48009164  0.46213861  0.57023624  1  -0.032585  0  -0.057545  0.050714  0  3.675604  0
C  C47  1  0.51288717  0.81370738  0.42345852  1  0.038292  0  -0.016142  -0.018363  0  3.806699  0
C  C48  1  0.48930033  0.32956938  0.57547939  1  0.063765  0  -0.016995  -0.020997  0  3.829508  0
C  C49  1  0.54255499  0.75454172  0.34915497  1  1.550843  0  0.281849  0.644765  0  4.021948  0
C  C50  1  0.47837744  0.89255571  0.55469717  1  0.04281  0  -0.010421  0.028085  0  3.790584  0
C  C51  1  0.51885701  0.37625044  0.44438221  1  0.047087  0  -0.013025  0.024573  0  3.803049  0
C  C52  1  0.63265254  0.77121531  0.53501314  1  -0.031552  0  -0.159131  -0.181805  0  3.863242  0
C  C53  1  0.39375538  0.35843788  0.45767859  1  -0.057959  0  -0.158683  -0.175745  0  3.850899  0
C  C54  1  0.45176586  0.00572710  0.50509348  1  -0.056644  0  -0.159168  -0.227499  0  3.839601  0
C  C55  1  0.48374284  0.49559721  0.49315576  1  -0.045675  0  -0.160217  -0.225077  0  3.86051  0
C  C56  1  0.97205794  0.22785437  0.03723617  1  -0.027723  0  -0.159155  -0.180643  0  3.860131  0
C  C57  1  0.01175960  0.20721037  0.95708292  1  -0.046989  0  -0.161135  -0.175228  0  3.872319  0
C  C58  1  0.85801466  0.47656342  0.02706464  1  0.010495  0  -0.157027  -0.175232  0  3.852857  0
C  C59  1  0.16060854  0.30121412  0.96888614  1  -0.032413  0  -0.155105  -0.174779  0  3.84354  0
C  C60  1  0.11533743  0.32769849  0.04840104  1  -0.036406  0  -0.153093  -0.168382  0  3.853279  0
C  C61  1  0.90413179  0.45557361  0.94755186  1  -0.02913  0  -0.155415  -0.17003  0  3.861421  0
C  C62  1  0.09452646  0.30749891  0.66332577  1  1.651028  0  0.283902  0.703505  0  4.177778  0
C  C63  1  0.91407529  0.39421193  0.34210719  1  1.694456  0  0.277018  0.688287  0  4.187273  0
C  C64  1  0.96690680  0.35143526  0.06457345  1  0.040901  0  -0.012985  0.013712  0  3.825483  0
C  C65  1  0.37518257  0.85168439  0.54147785  1  -0.046358  0  -0.164108  -0.177376  0  3.865814  0
C  C66  1  0.03978035  0.31306476  0.93072432  1  0.059758  0  -0.013019  0.010183  0  3.826648  0
C  C67  1  0.49774507  0.78253240  0.09180109  1  0.331598  0  0.005589  -0.14301  0  3.822973  0
C  C68  1  0.47824220  0.30249455  0.91642268  1  0.207289  0  0.002891  -0.140119  0  3.836543  0
C  C69  1  0.48048517  0.83771796  0.96247065  1  -0.182521  0  0.001489  0.033572  0  4.202295  0
C  C70  1  0.48581068  0.35297837  0.04478144  1  -0.388286  0  7.8e-05  0.037641  0  4.215134  0
C  C71  1  0.65550724  0.24748303  0.46335246  1  -0.044134  0  -0.163299  -0.179254  0  3.874252  0
C  C72  1  0.48873782  0.80896133  0.03034695  1  -0.442266  0  0.009228  0.050952  0  4.197212  0
C  C73  1  0.47999518  0.32752126  0.97760533  1  -0.324643  0  -0.000708  0.036667  0  4.213358  0
C  C74  1  0.47488672  0.86344077  0.90085782  1  0.126675  0  0.00784  -0.130845  0  3.816953  0
C  C75  1  0.49395649  0.37499941  0.10545000  1  0.31554  0  0.002243  -0.141382  0  3.8291  0
C  C76  1  0.45855895  0.94402876  0.62990727  1  1.541796  0  0.278561  0.633971  0  4.009348  0
C  C77  1  0.53775518  0.40643207  0.36880054  1  1.566022  0  0.280477  0.644408  0  3.99687  0
C  C78  1  0.46088683  0.27140324  0.84757167  1  1.691501  0  0.276477  0.692515  0  4.180204  0
C  C79  1  0.52944613  0.72929847  0.15956582  1  1.662904  0  0.286063  0.705073  0  4.162724  0
C  C80  1  0.09348348  0.29064838  0.85415098  1  1.518745  0  0.288219  0.653741  0  3.999499  0
C  C81  1  0.92056235  0.37945530  0.14214597  1  1.560791  0  0.286443  0.640566  0  4.010726  0
C  C82  1  0.45730417  0.91579106  0.83218757  1  1.69077  0  0.278984  0.691991  0  4.184829  0
C  C83  1  0.53349480  0.39459566  0.17083038  1  1.686478  0  0.280102  0.692907  0  4.176903  0
C  C84  1  0.96498095  0.38079074  0.40912903  1  0.200924  0  0.007511  -0.128582  0  3.84204  0
C  C85  1  0.03418058  0.34522665  0.59866471  1  0.352729  0  -0.003005  -0.153652  0  3.848205  0
C  C86  1  0.01041202  0.36030066  0.53770826  1  -0.472603  0  0.006079  0.053702  0  4.218453  0
C  C87  1  0.98574766  0.37294729  0.47044883  1  -0.242782  0  -0.004281  0.024801  0  4.226111  0
C  C88  1  0.37689809  0.83378640  0.46229436  1  -0.051751  0  -0.168984  -0.188677  0  3.883085  0
C  C89  1  0.63088633  0.21230354  0.53807163  1  -0.044099  0  -0.166132  -0.182188  0  3.880024  0
Br  Br90  1  0.37180919  0.07824535  0.36465480  1  -0.154062  0  -0.009128  -0.126668  0  1.285534  0
Br  Br91  1  0.63599694  0.45390071  0.61491558  1  -0.171992  0  -0.01645  -0.140319  0  1.291033  0
O  O92  1  0.54692046  0.96738232  0.64861235  1  -1.242868  0  -0.213592  -0.551725  0  2.325299  0
O  O93  1  0.90564178  0.29684152  0.17611027  1  -1.254277  0  -0.203935  -0.54308  0  2.360208  0
O  O94  1  0.12047539  0.18506697  0.82112037  1  -1.274686  0  -0.228044  -0.592661  0  2.324703  0
O  O95  1  0.34022746  0.94979865  0.80840829  1  -1.235956  0  -0.232719  -0.585081  0  2.232048  0
O  O96  1  0.66181054  0.31099664  0.18029655  1  -1.201973  0  -0.194423  -0.530875  0  2.297499  0
O  O97  1  0.35896854  0.15970056  0.74551376  1  -1.618616  0  -0.390627  -1.269992  0  2.298169  0
O  O98  1  0.67523385  0.49085043  0.25563446  1  -1.608217  0  -0.393379  -1.271142  0  2.299703  0
O  O99  1  0.44551861  0.52578993  0.34993790  1  -1.283438  0  -0.246297  -0.60656  0  2.258297  0
O  O100  1  0.55321682  0.18528231  0.67058080  1  -1.253502  0  -0.203368  -0.542665  0  2.377705  0
O  O101  1  0.45511689  0.73066690  0.32801729  1  -1.265886  0  -0.224776  -0.585755  0  2.336624  0
O  O102  1  0.34421329  0.38885857  0.68550418  1  -1.266875  0  -0.247335  -0.610282  0  2.283253  0
O  O103  1  0.66064924  0.72085320  0.31397702  1  -1.273642  0  -0.234593  -0.597783  0  2.304308  0
O  O104  1  0.12380868  0.38476832  0.69102492  1  -1.231046  0  -0.217933  -0.570934  0  2.262483  0
O  O105  1  0.89627586  0.49387495  0.30745237  1  -1.246237  0  -0.23494  -0.589541  0  2.241381  0
O  O106  1  0.12218093  0.19481899  0.68494871  1  -1.234825  0  -0.219855  -0.575094  0  2.253801  0
O  O107  1  0.88525712  0.31041541  0.32601735  1  -1.189932  0  -0.199444  -0.537471  0  2.297669  0
O  O108  1  0.35009049  0.96290450  0.66992163  1  -1.276849  0  -0.243251  -0.610208  0  2.305177  0
O  O109  1  0.64344937  0.31584603  0.32898423  1  -1.264096  0  -0.217729  -0.582969  0  2.378587  0
O  O110  1  0.55234624  0.93002937  0.80301200  1  -1.197151  0  -0.205614  -0.550935  0  2.276732  0
O  O111  1  0.43882441  0.49664309  0.21208152  1  -1.251993  0  -0.239591  -0.600103  0  2.227958  0
O  O112  1  0.55082520  0.15537276  0.81943694  1  -1.205341  0  -0.2064  -0.545878  0  2.270345  0
O  O113  1  0.44401837  0.70416470  0.19268121  1  -1.231613  0  -0.218772  -0.570786  0  2.240477  0
O  O114  1  0.34876197  0.36690365  0.82230964  1  -1.25378  0  -0.237298  -0.598296  0  2.246186  0
O  O115  1  0.11871908  0.37500331  0.82722973  1  -1.275293  0  -0.236913  -0.609343  0  2.310218  0
O  O116  1  0.64530275  0.70505904  0.17913947  1  -1.231687  0  -0.217937  -0.575485  0  2.262827  0
O  O117  1  0.89430986  0.49147230  0.16909581  1  -1.289468  0  -0.249578  -0.6202  0  2.277923  0
O  O118  1  0.74700793  0.95292095  0.72110328  1  -1.365717  0  -0.573517  -0.990809  0  1.787029  0
O  O119  1  0.88174003  0.12131230  0.24817074  1  -1.352931  0  -0.571118  -0.983109  0  1.791233  0
