# generated using pymatgen
data_Ag2H2C7N6O5
_symmetry_space_group_name_H-M   'P 1'
_cell_length_a   8.75526319
_cell_length_b   8.75523757
_cell_length_c   8.90148219
_cell_angle_alpha   108.28874781
_cell_angle_beta   117.36763679
_cell_angle_gamma   102.33190406
_symmetry_Int_Tables_number   1
_chemical_formula_structural   Ag2H2C7N6O5
_chemical_formula_sum   'Ag4 H4 C14 N12 O10'
_cell_volume   520.98204777
_cell_formula_units_Z   2
loop_
 _symmetry_equiv_pos_site_id
 _symmetry_equiv_pos_as_xyz
  1  'x, y, z'
loop_
 _atom_site_type_symbol
 _atom_site_label
 _atom_site_symmetry_multiplicity
 _atom_site_fract_x
 _atom_site_fract_y
 _atom_site_fract_z
 _atom_site_occupancy
 _atom_site_hle17_bader_spin_density
 _atom_site_hle17_ddec_charge
 _atom_site_hle17_ddec_spin_density
 _atom_site_hle17_ddec_sum_bond_order
 _atom_site_hle17_magmom
 _atom_site_hse06_10hf_bader_spin_density
 _atom_site_hse06_10hf_ddec_charge
 _atom_site_hse06_10hf_ddec_spin_density
 _atom_site_hse06_10hf_ddec_sum_bond_order
 _atom_site_hse06_10hf_magmom
 _atom_site_hse06_bader_spin_density
 _atom_site_hse06_ddec_charge
 _atom_site_hse06_ddec_spin_density
 _atom_site_hse06_ddec_sum_bond_order
 _atom_site_hse06_magmom
 _atom_site_pbe_bader_spin_density
 _atom_site_pbe_cm5_charge
 _atom_site_pbe_ddec_charge
 _atom_site_pbe_ddec_spin_density
 _atom_site_pbe_ddec_sum_bond_order
 _atom_site_pbe_magmom
Ag  Ag0  1  0.35508443  0.26995565  0.45446371  1  0  0.593851  0  1.418995  0  0  0.468424  0  1.86562  0  0  0.483304  0  1.822985  0  0  0.510708  0.459998  0  1.894329  0
Ag  Ag1  1  0.31549173  0.90062092  0.04553509  1  0  0.593868  0  1.418954  0  0  0.468454  0  1.86557  0  0  0.483335  0  1.822931  0  0  0.510715  0.460029  0  1.894281  0
Ag  Ag2  1  0.64491867  0.73004569  0.54553845  1  0  0.593854  0  1.418995  0  0  0.468435  0  1.865616  0  0  0.483316  0  1.822977  0  0  0.510711  0.460004  0  1.89433  0
Ag  Ag3  1  0.68451078  0.09937910  0.95446639  1  0  0.593877  0  1.418945  0  0  0.468442  0  1.865572  0  0  0.483328  0  1.822931  0  0  0.510717  0.460015  0  1.89428  0
H  H4  1  0.99796873  0.75009348  0.55732748  1  0  0.120643  0  0.951653  0  0  0.12188  0  1.030837  0  0  0.127364  0  1.02326  0  0  0.113918  0.117763  0  1.036434  0
H  H5  1  0.69276016  0.44063962  0.94267449  1  0  0.12066  0  0.951609  0  0  0.12189  0  1.030793  0  0  0.127374  0  1.023216  0  0  0.113925  0.117771  0  1.036393  0
H  H6  1  0.00203425  0.24991051  0.44267321  1  0  0.120701  0  0.951618  0  0  0.121931  0  1.030789  0  0  0.127416  0  1.02321  0  0  0.113935  0.117813  0  1.036388  0
H  H7  1  0.30723789  0.55935904  0.05732569  1  0  0.12064  0  0.951661  0  0  0.121867  0  1.030842  0  0  0.12735  0  1.023265  0  0  0.113912  0.11775  0  1.036439  0
C  C8  1  0.82892301  0.57892109  0.25000141  1  0  -0.002236  0  3.813711  0  0  0.009791  0  4.064702  0  0  -0.000895  0  4.089329  0  0  -0.01555  0.015768  0  4.048999  0
C  C9  1  0.17107762  0.42107758  0.74999993  1  0  -0.002156  0  3.813606  0  0  0.009853  0  4.064597  0  0  -0.000833  0  4.089225  0  0  -0.015541  0.015824  0  4.048909  0
C  C10  1  0.97783097  0.73029936  0.42117417  1  0  -0.067256  0  3.684264  0  0  -0.114052  0  3.955185  0  0  -0.102929  0  3.966888  0  0  -0.069439  -0.120845  0  3.94739  0
C  C11  1  0.80912625  0.55665478  0.07882684  1  0  -0.067311  0  3.684202  0  0  -0.114063  0  3.955145  0  0  -0.102942  0  3.966854  0  0  -0.069459  -0.120856  0  3.947352  0
C  C12  1  0.02217024  0.26970065  0.57882561  1  0  -0.067362  0  3.684219  0  0  -0.114143  0  3.955143  0  0  -0.103019  0  3.966841  0  0  -0.069473  -0.120935  0  3.947349  0
C  C13  1  0.19087309  0.44334388  0.92117392  1  0  -0.067308  0  3.684199  0  0  -0.114067  0  3.955131  0  0  -0.10294  0  3.966829  0  0  -0.069443  -0.120859  0  3.947336  0
C  C14  1  0.10707978  0.85632963  0.42322468  1  0  -0.039034  0  3.60421  0  0  -0.042331  0  3.85832  0  0  -0.055882  0  3.880001  0  0  0.067516  -0.034044  0  3.844075  0
C  C15  1  0.93310259  0.68385500  0.07677623  1  0  -0.038916  0  3.604019  0  0  -0.04231  0  3.85825  0  0  -0.055864  0  3.879931  0  0  0.067505  -0.034024  0  3.844006  0
C  C16  1  0.89292073  0.14367170  0.57677407  1  0  -0.03903  0  3.604143  0  0  -0.042303  0  3.858237  0  0  -0.055854  0  3.879917  0  0  0.06751  -0.034014  0  3.843992  0
C  C17  1  0.06689089  0.31614495  0.92322119  1  0  -0.038913  0  3.604044  0  0  -0.042244  0  3.858205  0  0  -0.055796  0  3.879887  0  0  0.067532  -0.033956  0  3.843958  0
C  C18  1  0.09395046  0.84395142  0.25000015  1  0  0.35441  0  3.771776  0  0  0.330305  0  4.028337  0  0  0.353919  0  4.039071  0  0  0.128437  0.314749  0  4.020891  0
C  C19  1  0.90604748  0.15604989  0.74999856  1  0  0.354458  0  3.771703  0  0  0.330304  0  4.0283  0  0  0.353918  0  4.039035  0  0  0.128424  0.314748  0  4.020854  0
C  C20  1  0.69637049  0.44636786  0.25000369  1  0  0.28654  0  3.78915  0  0  0.271561  0  4.036426  0  0  0.280325  0  4.060126  0  0  0.225664  0.266007  0  4.020227  0
C  C21  1  0.30363204  0.55363215  0.75000004  1  0  0.286475  0  3.789234  0  0  0.271513  0  4.036493  0  0  0.280276  0  4.060194  0  0  0.225648  0.265959  0  4.020293  0
N  N22  1  0.25338480  0.00534556  0.60968794  1  0  0.499765  0  3.892194  0  0  0.524754  0  4.187848  0  0  0.548093  0  4.196696  0  0  0.026808  0.509176  0  4.182106  0
N  N23  1  0.89565524  0.64369439  0.89031280  1  0  0.49983  0  3.892142  0  0  0.524836  0  4.187811  0  0  0.548176  0  4.196657  0  0  0.026882  0.509257  0  4.182073  0
N  N24  1  0.74661699  0.99465578  0.39031026  1  0  0.499768  0  3.892209  0  0  0.524742  0  4.187876  0  0  0.548081  0  4.196723  0  0  0.026839  0.509161  0  4.182138  0
N  N25  1  0.10434103  0.35630027  0.10968534  1  0  0.499663  0  3.89227  0  0  0.524655  0  4.187944  0  0  0.547995  0  4.196791  0  0  0.026744  0.509076  0  4.182204  0
N  N26  1  0.61721938  0.48207574  0.34779566  1  0  -0.296083  0  3.214024  0  0  -0.238767  0  3.517191  0  0  -0.255665  0  3.532603  0  0  -0.242165  -0.227335  0  3.506379  0
N  N27  1  0.63428057  0.26942862  0.15220986  1  0  -0.296057  0  3.214137  0  0  -0.238747  0  3.517301  0  0  -0.255643  0  3.532709  0  0  -0.242154  -0.227313  0  3.506484  0
N  N28  1  0.38278115  0.51792558  0.65220647  1  0  -0.296028  0  3.214072  0  0  -0.23872  0  3.51723  0  0  -0.255615  0  3.532639  0  0  -0.242138  -0.227286  0  3.506415  0
N  N29  1  0.36571927  0.73057401  0.84779349  1  0  -0.29606  0  3.214128  0  0  -0.238748  0  3.51728  0  0  -0.255644  0  3.532693  0  0  -0.242142  -0.227315  0  3.506464  0
N  N30  1  0.50548427  0.32370823  0.30845800  1  0  -0.067952  0  3.173369  0  0  -0.032377  0  3.485032  0  0  -0.035638  0  3.497463  0  0  -0.113009  -0.030126  0  3.476626  0
N  N31  1  0.51525291  0.19702893  0.19154539  1  0  -0.067965  0  3.173419  0  0  -0.032386  0  3.485067  0  0  -0.035648  0  3.497499  0  0  -0.112951  -0.030134  0  3.47666  0
N  N32  1  0.49451567  0.67629176  0.69154457  1  0  -0.067985  0  3.173405  0  0  -0.03241  0  3.485066  0  0  -0.035671  0  3.497497  0  0  -0.113003  -0.030159  0  3.476659  0
N  N33  1  0.48474702  0.80297107  0.80845493  1  0  -0.06793  0  3.173416  0  0  -0.032349  0  3.485066  0  0  -0.035612  0  3.497499  0  0  -0.112951  -0.030097  0  3.476657  0
O  O34  1  0.21005160  0.96005099  0.24999814  1  0  -0.523927  0  2.198768  0  0  -0.463029  0  2.482735  0  0  -0.489101  0  2.473269  0  0  -0.317298  -0.445406  0  2.488785  0
O  O35  1  0.78994573  0.03994900  0.74999765  1  0  -0.52394  0  2.198745  0  0  -0.463029  0  2.482729  0  0  -0.489101  0  2.473264  0  0  -0.317276  -0.445403  0  2.488778  0
O  O36  1  0.23025837  0.03416309  0.74275008  1  0  -0.394245  0  1.803018  0  0  -0.384316  0  2.048115  0  0  -0.394871  0  2.043811  0  0  -0.143897  -0.377467  0  2.051218  0
O  O37  1  0.79141362  0.48750297  0.75725424  1  0  -0.394312  0  1.803079  0  0  -0.384333  0  2.048135  0  0  -0.394893  0  2.04384  0  0  -0.143908  -0.377475  0  2.051222  0
O  O38  1  0.76974541  0.96583694  0.25724859  1  0  -0.394273  0  1.803104  0  0  -0.38433  0  2.048193  0  0  -0.394888  0  2.043892  0  0  -0.143921  -0.377476  0  2.051289  0
O  O39  1  0.20858337  0.51249037  0.24274717  1  0  -0.394259  0  1.803109  0  0  -0.384309  0  2.048178  0  0  -0.394866  0  2.043878  0  0  -0.143904  -0.377456  0  2.051273  0
O  O40  1  0.40137092  0.10250186  0.63497925  1  0  -0.407113  0  1.887385  0  0  -0.377563  0  2.15842  0  0  -0.385937  0  2.142505  0  0  -0.161109  -0.372715  0  2.169825  0
O  O41  1  0.96752121  0.76638662  0.86501820  1  0  -0.407178  0  1.887374  0  0  -0.377652  0  2.15844  0  0  -0.38602  0  2.142514  0  0  -0.161169  -0.372804  0  2.169847  0
O  O42  1  0.59863077  0.89750213  0.36501973  1  0  -0.407116  0  1.887366  0  0  -0.377567  0  2.158422  0  0  -0.385935  0  2.142498  0  0  -0.161117  -0.372718  0  2.169829  0
O  O43  1  0.03247644  0.23360541  0.13497749  1  0  -0.407057  0  1.887429  0  0  -0.377495  0  2.158448  0  0  -0.385869  0  2.142533  0  0  -0.161033  -0.372648  0  2.169853  0
