# generated using pymatgen
data_ZnH20C30N4(ClO2)2
_symmetry_space_group_name_H-M   'P 1'
_cell_length_a   8.50445988
_cell_length_b   9.33202375
_cell_length_c   18.30782936
_cell_angle_alpha   94.52721886
_cell_angle_beta   89.98605400
_cell_angle_gamma   117.11415286
_symmetry_Int_Tables_number   1
_chemical_formula_structural   ZnH20C30N4(ClO2)2
_chemical_formula_sum   'Zn2 H40 C60 N8 Cl4 O8'
_cell_volume   1288.21635220
_cell_formula_units_Z   2
loop_
 _symmetry_equiv_pos_site_id
 _symmetry_equiv_pos_as_xyz
  1  'x, y, z'
loop_
 _atom_site_type_symbol
 _atom_site_label
 _atom_site_symmetry_multiplicity
 _atom_site_fract_x
 _atom_site_fract_y
 _atom_site_fract_z
 _atom_site_occupancy
 _atom_site_hle17_bader_spin_density
 _atom_site_hle17_ddec_charge
 _atom_site_hle17_ddec_spin_density
 _atom_site_hle17_ddec_sum_bond_order
 _atom_site_hle17_magmom
 _atom_site_hse06_10hf_bader_spin_density
 _atom_site_hse06_10hf_ddec_charge
 _atom_site_hse06_10hf_ddec_spin_density
 _atom_site_hse06_10hf_ddec_sum_bond_order
 _atom_site_hse06_10hf_magmom
 _atom_site_hse06_bader_spin_density
 _atom_site_hse06_ddec_charge
 _atom_site_hse06_ddec_spin_density
 _atom_site_hse06_ddec_sum_bond_order
 _atom_site_hse06_magmom
 _atom_site_pbe_bader_spin_density
 _atom_site_pbe_cm5_charge
 _atom_site_pbe_ddec_charge
 _atom_site_pbe_ddec_spin_density
 _atom_site_pbe_ddec_sum_bond_order
 _atom_site_pbe_magmom
Zn  Zn0  1  0.10375537  0.99983981  0.75006049  1  0  1.036085  0  1.836826  0  0  0.846283  0  2.325189  0  0  0.891971  0  2.269122  0  0  0.704986  0.814157  0  2.364709  0
Zn  Zn1  1  0.89624389  0.00016119  0.24994000  1  0  1.036081  0  1.836865  0  0  0.846237  0  2.325227  0  0  0.891955  0  2.269175  0  0  0.70498  0.814119  0  2.364754  0
H  H2  1  0.78870612  0.01790727  0.96554408  1  0  0.123724  0  0.943519  0  0  0.133751  0  1.002895  0  0  0.137318  0  1.000755  0  0  0.111748  0.131233  0  1.004429  0
H  H3  1  0.77092791  0.98254345  0.53449658  1  0  0.124489  0  0.943704  0  0  0.134125  0  1.003308  0  0  0.137668  0  1.001225  0  0  0.111896  0.131577  0  1.005031  0
H  H4  1  0.21129431  0.98209372  0.03445642  1  0  0.123723  0  0.943519  0  0  0.133749  0  1.002893  0  0  0.137316  0  1.000752  0  0  0.111744  0.131231  0  1.004427  0
H  H5  1  0.22907313  0.01745876  0.46550451  1  0  0.124525  0  0.943682  0  0  0.134157  0  1.003278  0  0  0.1377  0  1.001197  0  0  0.111931  0.131629  0  1.00498  0
H  H6  1  0.85464178  0.72753187  0.62473066  1  0  0.11144  0  0.97465  0  0  0.120401  0  1.036826  0  0  0.123434  0  1.032821  0  0  0.139103  0.118174  0  1.039509  0
H  H7  1  0.12709296  0.27249060  0.87535735  1  0  0.1134  0  0.972462  0  0  0.121309  0  1.035717  0  0  0.124503  0  1.031537  0  0  0.139199  0.11896  0  1.038728  0
H  H8  1  0.14535983  0.27246913  0.37526984  1  0  0.111472  0  0.974562  0  0  0.120415  0  1.036765  0  0  0.12345  0  1.032758  0  0  0.139108  0.118189  0  1.039447  0
H  H9  1  0.87290452  0.72750919  0.12464365  1  0  0.11339  0  0.9724  0  0  0.121294  0  1.035671  0  0  0.124488  0  1.031491  0  0  0.139175  0.118944  0  1.038684  0
H  H10  1  0.89300459  0.87900016  0.89496376  1  0  0.113891  0  0.968163  0  0  0.12235  0  1.032001  0  0  0.125654  0  1.029645  0  0  0.104788  0.119931  0  1.033634  0
H  H11  1  0.01464829  0.12070343  0.60514303  1  0  0.113933  0  0.967996  0  0  0.122854  0  1.031092  0  0  0.126088  0  1.028862  0  0  0.104598  0.119941  0  1.033717  0
H  H12  1  0.10698996  0.12100083  0.10503619  1  0  0.113886  0  0.968182  0  0  0.12235  0  1.032015  0  0  0.125652  0  1.029659  0  0  0.104784  0.11993  0  1.033649  0
H  H13  1  0.98535033  0.87929394  0.39485787  1  0  0.113932  0  0.968025  0  0  0.122841  0  1.031132  0  0  0.126071  0  1.028913  0  0  0.104601  0.119932  0  1.033742  0
H  H14  1  0.67769030  0.68836006  0.97538184  1  0  0.092159  0  0.979938  0  0  0.100821  0  1.045458  0  0  0.103991  0  1.043625  0  0  0.095317  0.098459  0  1.046971  0
H  H15  1  0.98974432  0.31113732  0.52464581  1  0  0.092354  0  0.979745  0  0  0.100652  0  1.045709  0  0  0.103773  0  1.043921  0  0  0.095359  0.098365  0  1.047126  0
H  H16  1  0.32230657  0.31163851  0.02461637  1  0  0.092116  0  0.979962  0  0  0.100784  0  1.045478  0  0  0.103953  0  1.04365  0  0  0.095304  0.098423  0  1.046989  0
H  H17  1  0.01025669  0.68886246  0.47535519  1  0  0.092358  0  0.979714  0  0  0.100656  0  1.045683  0  0  0.103778  0  1.043896  0  0  0.095357  0.098368  0  1.047101  0
H  H18  1  0.33280890  0.65873808  0.49626870  1  0  0.088349  0  0.963565  0  0  0.098775  0  1.028171  0  0  0.1003  0  1.029528  0  0  0.097144  0.098144  0  1.026614  0
H  H19  1  0.67396928  0.34165564  0.00377835  1  0  0.088802  0  0.96345  0  0  0.099319  0  1.027683  0  0  0.100844  0  1.029019  0  0  0.097196  0.098117  0  1.026939  0
H  H20  1  0.66718976  0.34126171  0.50373175  1  0  0.088336  0  0.963571  0  0  0.09878  0  1.028169  0  0  0.100297  0  1.029535  0  0  0.097148  0.09815  0  1.026611  0
H  H21  1  0.32603828  0.65835019  0.99622125  1  0  0.088818  0  0.963454  0  0  0.099333  0  1.027691  0  0  0.100859  0  1.029022  0  0  0.097182  0.098131  0  1.026947  0
H  H22  1  0.45680031  0.32947816  0.66404467  1  0  0.099753  0  0.925036  0  0  0.113534  0  0.987517  0  0  0.114637  0  0.986898  0  0  0.115404  0.112516  0  0.988211  0
H  H23  1  0.12724004  0.67038531  0.83593882  1  0  0.099929  0  0.925066  0  0  0.11364  0  0.987767  0  0  0.114729  0  0.987135  0  0  0.115273  0.112907  0  0.988057  0
H  H24  1  0.54320073  0.67052404  0.33595587  1  0  0.099718  0  0.924996  0  0  0.113469  0  0.987527  0  0  0.114572  0  0.986908  0  0  0.115378  0.112449  0  0.988218  0
H  H25  1  0.87276570  0.32961689  0.16405954  1  0  0.099981  0  0.924975  0  0  0.113693  0  0.987684  0  0  0.114773  0  0.987059  0  0  0.115264  0.112956  0  0.987973  0
H  H26  1  0.66093996  0.34937483  0.63162257  1  0  0.08585  0  0.920555  0  0  0.098516  0  0.986218  0  0  0.098743  0  0.986875  0  0  0.110213  0.098401  0  0.985414  0
H  H27  1  0.31157246  0.65070381  0.86833875  1  0  0.085213  0  0.921124  0  0  0.098358  0  0.986115  0  0  0.09859  0  0.986743  0  0  0.110044  0.097895  0  0.986027  0
H  H28  1  0.33905987  0.65062495  0.36837734  1  0  0.085847  0  0.920562  0  0  0.098509  0  0.986228  0  0  0.098737  0  0.986886  0  0  0.110211  0.098394  0  0.985422  0
H  H29  1  0.68843563  0.34929839  0.13165797  1  0  0.085228  0  0.921107  0  0  0.098341  0  0.986143  0  0  0.098572  0  0.986765  0  0  0.110047  0.097875  0  0.986052  0
H  H30  1  0.43699381  0.32498488  0.79222694  1  0  0.107467  0  0.967191  0  0  0.11664  0  1.032076  0  0  0.119589  0  1.030413  0  0  0.104029  0.114784  0  1.032499  0
H  H31  1  0.11160659  0.67452642  0.70773413  1  0  0.108768  0  0.965888  0  0  0.118231  0  1.029943  0  0  0.121054  0  1.028476  0  0  0.104228  0.115232  0  1.03246  0
H  H32  1  0.56300656  0.67501128  0.20777282  1  0  0.107451  0  0.967237  0  0  0.116661  0  1.032074  0  0  0.11961  0  1.030408  0  0  0.104038  0.114802  0  1.032502  0
H  H33  1  0.88839324  0.32547337  0.29226632  1  0  0.108787  0  0.965887  0  0  0.118255  0  1.029936  0  0  0.121078  0  1.028469  0  0  0.10424  0.115257  0  1.032454  0
H  H34  1  0.45156713  0.41398227  0.92480757  1  0  0.08658  0  0.968356  0  0  0.098906  0  1.029338  0  0  0.100929  0  1.029288  0  0  0.098041  0.097349  0  1.029511  0
H  H35  1  0.03731101  0.58532083  0.57517971  1  0  0.087373  0  0.968349  0  0  0.099707  0  1.028831  0  0  0.101692  0  1.028864  0  0  0.098128  0.097702  0  1.029957  0
H  H36  1  0.54843327  0.58601631  0.07519228  1  0  0.086448  0  0.968514  0  0  0.098859  0  1.029406  0  0  0.100882  0  1.029357  0  0  0.09802  0.097303  0  1.029579  0
H  H37  1  0.96268822  0.41467775  0.42482124  1  0  0.087332  0  0.968376  0  0  0.099662  0  1.028857  0  0  0.101647  0  1.02889  0  0  0.098121  0.097659  0  1.029979  0
H  H38  1  0.40600877  0.59079605  0.61542408  1  0  0.08665  0  0.977739  0  0  0.092988  0  1.04759  0  0  0.095415  0  1.047603  0  0  0.092371  0.091194  0  1.047539  0
H  H39  1  0.81522252  0.40959528  0.88460936  1  0  0.086556  0  0.977824  0  0  0.092794  0  1.047956  0  0  0.095236  0  1.047898  0  0  0.09233  0.091232  0  1.047573  0
H  H40  1  0.59399166  0.40920494  0.38457588  1  0  0.086657  0  0.977687  0  0  0.092992  0  1.047545  0  0  0.09542  0  1.047558  0  0  0.092367  0.091198  0  1.047494  0
H  H41  1  0.18478504  0.59041054  0.11538750  1  0  0.086582  0  0.977779  0  0  0.092805  0  1.047912  0  0  0.095237  0  1.047887  0  0  0.09233  0.091248  0  1.047523  0
C  C42  1  0.66107072  0.00933233  0.98047698  1  0  -0.13142  0  3.744877  0  0  -0.164392  0  4.002765  0  0  -0.166081  0  4.022214  0  0  -0.087311  -0.163273  0  3.989788  0
C  C43  1  0.65187485  0.99103791  0.51954277  1  0  -0.132567  0  3.745831  0  0  -0.165861  0  4.00394  0  0  -0.167547  0  4.023427  0  0  -0.087377  -0.164171  0  3.990266  0
C  C44  1  0.33892972  0.99066867  0.01952406  1  0  -0.131464  0  3.744895  0  0  -0.164422  0  4.002773  0  0  -0.166109  0  4.022221  0  0  -0.087331  -0.163303  0  3.989795  0
C  C45  1  0.34812502  0.00896430  0.48045886  1  0  -0.132668  0  3.745917  0  0  -0.165956  0  4.004063  0  0  -0.167642  0  4.023551  0  0  -0.087381  -0.164283  0  3.990384  0
C  C46  1  0.38658932  0.01260985  0.94649636  1  0  -0.092638  0  3.714464  0  0  -0.079613  0  3.955533  0  0  -0.084711  0  3.974409  0  0  -0.016778  -0.076061  0  3.942655  0
C  C47  1  0.37381230  0.98710720  0.55349095  1  0  -0.093115  0  3.715184  0  0  -0.078643  0  3.95458  0  0  -0.083902  0  3.973671  0  0  -0.016434  -0.075466  0  3.941323  0
C  C48  1  0.61341112  0.98739114  0.05350468  1  0  -0.092663  0  3.714499  0  0  -0.079626  0  3.955558  0  0  -0.084724  0  3.974433  0  0  -0.016782  -0.076077  0  3.942684  0
C  C49  1  0.62618518  0.01289259  0.44651004  1  0  -0.093256  0  3.71517  0  0  -0.07877  0  3.954624  0  0  -0.084034  0  3.973706  0  0  -0.016423  -0.075592  0  3.941362  0
C  C50  1  0.55101826  0.02155873  0.92753923  1  0  0.116868  0  3.772736  0  0  0.119102  0  4.045314  0  0  0.123416  0  4.06493  0  0  0.014803  0.116041  0  4.031754  0
C  C51  1  0.52945720  0.97857339  0.57247218  1  0  0.117665  0  3.773186  0  0  0.119159  0  4.046308  0  0  0.123544  0  4.065941  0  0  0.014644  0.116523  0  4.032115  0
C  C52  1  0.44898278  0.97844348  0.07246186  1  0  0.116877  0  3.772737  0  0  0.1191  0  4.045315  0  0  0.123415  0  4.064928  0  0  0.014797  0.116038  0  4.031758  0
C  C53  1  0.47054327  0.02143002  0.42752951  1  0  0.117753  0  3.773049  0  0  0.119234  0  4.046183  0  0  0.123618  0  4.065818  0  0  0.014629  0.116597  0  4.031998  0
C  C54  1  0.77952166  0.71259287  0.79770073  1  0  0.144008  0  3.837524  0  0  0.140848  0  4.082687  0  0  0.144294  0  4.106632  0  0  0.081765  0.138501  0  4.066168  0
C  C55  1  0.06734509  0.28722984  0.70234708  1  0  0.144746  0  3.835598  0  0  0.14121  0  4.081231  0  0  0.144672  0  4.105091  0  0  0.081948  0.13893  0  4.065117  0
C  C56  1  0.22047757  0.28740571  0.20229858  1  0  0.144128  0  3.837547  0  0  0.141004  0  4.08266  0  0  0.144449  0  4.1066  0  0  0.081806  0.138653  0  4.066149  0
C  C57  1  0.93265592  0.71276994  0.29765337  1  0  0.144713  0  3.835542  0  0  0.141193  0  4.081135  0  0  0.144657  0  4.104994  0  0  0.081937  0.138912  0  4.065024  0
C  C58  1  0.25873100  0.03121448  0.89544456  1  0  0.653101  0  3.915987  0  0  0.604439  0  4.209752  0  0  0.638456  0  4.20152  0  0  0.207086  0.581322  0  4.214385  0
C  C59  1  0.22723446  0.96834708  0.60452753  1  0  0.652812  0  3.917155  0  0  0.604283  0  4.209882  0  0  0.638373  0  4.201762  0  0  0.206958  0.58096  0  4.215858  0
C  C60  1  0.74126944  0.96878651  0.10455594  1  0  0.652994  0  3.91617  0  0  0.604328  0  4.209944  0  0  0.638346  0  4.201709  0  0  0.207048  0.581212  0  4.214577  0
C  C61  1  0.77275828  0.03165029  0.39547228  1  0  0.652934  0  3.917161  0  0  0.604272  0  4.21004  0  0  0.638384  0  4.201887  0  0  0.206945  0.580947  0  4.216018  0
C  C62  1  0.80671617  0.69592623  0.67909831  1  0  0.208384  0  3.660806  0  0  0.13787  0  3.940451  0  0  0.156488  0  3.948867  0  0  0.162321  0.126144  0  3.933712  0
C  C63  1  0.11086634  0.30398805  0.82096717  1  0  0.207051  0  3.660611  0  0  0.136999  0  3.939581  0  0  0.155417  0  3.948027  0  0  0.161558  0.124931  0  3.933903  0
C  C64  1  0.19328131  0.30407356  0.32090105  1  0  0.208328  0  3.660777  0  0  0.137808  0  3.94044  0  0  0.156422  0  3.948855  0  0  0.162303  0.126084  0  3.933701  0
C  C65  1  0.88913410  0.69601294  0.17903387  1  0  0.207067  0  3.660493  0  0  0.137001  0  3.939502  0  0  0.155419  0  3.947948  0  0  0.161557  0.124933  0  3.933826  0
C  C66  1  0.65016345  0.55767739  0.76902862  1  0  0.099644  0  3.773124  0  0  0.090564  0  4.013398  0  0  0.094281  0  4.035672  0  0  0.090835  0.088139  0  3.99873  0
C  C67  1  0.09257849  0.44205941  0.73097960  1  0  0.100264  0  3.770565  0  0  0.090752  0  4.011187  0  0  0.094473  0  4.033336  0  0  0.0898  0.088092  0  3.996185  0
C  C68  1  0.34983578  0.44232118  0.23097123  1  0  0.099589  0  3.773135  0  0  0.09049  0  4.013407  0  0  0.094207  0  4.035678  0  0  0.090809  0.088067  0  3.99874  0
C  C69  1  0.90742134  0.55794038  0.26902085  1  0  0.100314  0  3.770408  0  0  0.09082  0  4.011001  0  0  0.09454  0  4.033148  0  0  0.089833  0.088158  0  3.996004  0
C  C70  1  0.79191962  0.76073695  0.87255528  1  0  -0.139002  0  3.736212  0  0  -0.157763  0  3.986529  0  0  -0.160607  0  4.00732  0  0  -0.093024  -0.155714  0  3.971704  0
C  C71  1  0.03177924  0.23899163  0.62749500  1  0  -0.138925  0  3.736175  0  0  -0.157865  0  3.985886  0  0  -0.160657  0  4.006561  0  0  -0.092573  -0.155599  0  3.97232  0
C  C72  1  0.20807903  0.23926283  0.12744408  1  0  -0.139112  0  3.736239  0  0  -0.157889  0  3.986565  0  0  -0.160732  0  4.007357  0  0  -0.093045  -0.155837  0  3.971741  0
C  C73  1  0.96821882  0.76100695  0.37250594  1  0  -0.138899  0  3.73616  0  0  -0.157834  0  3.985872  0  0  -0.160628  0  4.006544  0  0  -0.09257  -0.155566  0  3.972307  0
C  C74  1  0.54084337  0.46049172  0.56768816  1  0  0.058751  0  3.756578  0  0  0.080624  0  3.991688  0  0  0.079218  0  4.016592  0  0  -0.015375  0.081282  0  3.975017  0
C  C75  1  0.08039797  0.53947624  0.93230777  1  0  0.058129  0  3.757213  0  0  0.080004  0  3.992352  0  0  0.078547  0  4.017375  0  0  -0.015512  0.080897  0  3.975657  0
C  C76  1  0.45915528  0.53950807  0.43231174  1  0  0.058799  0  3.75658  0  0  0.080685  0  3.991656  0  0  0.079282  0  4.016562  0  0  -0.01535  0.081342  0  3.974986  0
C  C77  1  0.91960781  0.46052838  0.06769123  1  0  0.05833  0  3.757255  0  0  0.080096  0  3.992555  0  0  0.078641  0  4.017576  0  0  -0.0155  0.080983  0  3.975861  0
C  C78  1  0.67017971  0.65179697  0.91696367  1  0  -0.074924  0  3.777293  0  0  -0.09075  0  4.031408  0  0  -0.09343  0  4.054167  0  0  -0.098013  -0.089102  0  4.016374  0
C  C79  1  0.01873130  0.34774397  0.58306109  1  0  -0.075115  0  3.778566  0  0  -0.090998  0  4.033249  0  0  -0.093625  0  4.05598  0  0  -0.098527  -0.089172  0  4.017471  0
C  C80  1  0.32982070  0.34820161  0.08303564  1  0  -0.074806  0  3.777191  0  0  -0.090633  0  4.031321  0  0  -0.093314  0  4.054079  0  0  -0.097994  -0.088984  0  4.016286  0
C  C81  1  0.98126910  0.65225460  0.41693931  1  0  -0.075185  0  3.778538  0  0  -0.091077  0  4.033236  0  0  -0.093707  0  4.055967  0  0  -0.09855  -0.08925  0  4.017453  0
C  C82  1  0.40712401  0.58967754  0.49787061  1  0  -0.107926  0  3.754465  0  0  -0.124647  0  3.996375  0  0  -0.127965  0  4.020582  0  0  -0.092217  -0.123019  0  3.980572  0
C  C83  1  0.81735955  0.41058134  0.00216309  1  0  -0.108043  0  3.757335  0  0  -0.124785  0  3.999396  0  0  -0.12814  0  4.023714  0  0  -0.092067  -0.122453  0  3.982991  0
C  C84  1  0.59287586  0.41032466  0.50212938  1  0  -0.107876  0  3.754488  0  0  -0.124612  0  3.996403  0  0  -0.127921  0  4.020612  0  0  -0.092199  -0.122983  0  3.9806  0
C  C85  1  0.18264909  0.58941724  0.99783622  1  0  -0.107916  0  3.757448  0  0  -0.12467  0  3.999417  0  0  -0.128024  0  4.023731  0  0  -0.091971  -0.122338  0  3.983014  0
C  C86  1  0.57969085  0.41291231  0.63981717  1  0  -0.029158  0  3.626511  0  0  -0.094787  0  3.87556  0  0  -0.089631  0  3.884988  0  0  -0.044169  -0.098124  0  3.869252  0
C  C87  1  0.16676780  0.58702403  0.86015893  1  0  -0.02688  0  3.626622  0  0  -0.093419  0  3.876149  0  0  -0.088197  0  3.885499  0  0  -0.043192  -0.096723  0  3.869571  0
C  C88  1  0.42030898  0.58708748  0.36018274  1  0  -0.029108  0  3.62647  0  0  -0.094726  0  3.875504  0  0  -0.089574  0  3.884938  0  0  -0.044144  -0.098058  0  3.86919  0
C  C89  1  0.83323915  0.41298059  0.13984062  1  0  -0.02705  0  3.626654  0  0  -0.093553  0  3.876266  0  0  -0.088324  0  3.885615  0  0  -0.043211  -0.096836  0  3.869664  0
C  C90  1  0.53195406  0.44612174  0.81386228  1  0  -0.148724  0  3.763185  0  0  -0.169946  0  4.020025  0  0  -0.17208  0  4.039235  0  0  -0.099738  -0.168393  0  4.006005  0
C  C91  1  0.08557549  0.55340491  0.68612008  1  0  -0.149548  0  3.762225  0  0  -0.170668  0  4.018497  0  0  -0.172765  0  4.037613  0  0  -0.099619  -0.168678  0  4.005823  0
C  C92  1  0.46804456  0.55387563  0.18613698  1  0  -0.148688  0  3.76321  0  0  -0.169949  0  4.020074  0  0  -0.172079  0  4.039278  0  0  -0.099738  -0.168392  0  4.006056  0
C  C93  1  0.91442078  0.44659246  0.31388082  1  0  -0.149594  0  3.762205  0  0  -0.170729  0  4.018474  0  0  -0.172823  0  4.037585  0  0  -0.099625  -0.16874  0  4.005802  0
C  C94  1  0.54273050  0.49731529  0.88818859  1  0  -0.078362  0  3.781505  0  0  -0.094001  0  4.038021  0  0  -0.096255  0  4.060773  0  0  -0.098738  -0.092217  0  4.022241  0
C  C95  1  0.04528919  0.50208310  0.61180397  1  0  -0.079474  0  3.782957  0  0  -0.094679  0  4.038756  0  0  -0.096958  0  4.061546  0  0  -0.098847  -0.093003  0  4.023722  0
C  C96  1  0.45727048  0.50268208  0.11181067  1  0  -0.078272  0  3.781614  0  0  -0.093983  0  4.038142  0  0  -0.096236  0  4.060893  0  0  -0.098715  -0.092199  0  4.022362  0
C  C97  1  0.95471239  0.49791548  0.38819643  1  0  -0.079404  0  3.782951  0  0  -0.09459  0  4.038729  0  0  -0.096869  0  4.061518  0  0  -0.098845  -0.092914  0  4.023694  0
C  C98  1  0.44815756  0.55120052  0.56493439  1  0  -0.106796  0  3.761314  0  0  -0.128262  0  4.00903  0  0  -0.13109  0  4.032226  0  0  -0.094705  -0.125804  0  3.993346  0
C  C99  1  0.89695271  0.44901533  0.93509213  1  0  -0.106981  0  3.76236  0  0  -0.128324  0  4.009726  0  0  -0.13117  0  4.033067  0  0  -0.095025  -0.126667  0  3.99429  0
C  C100  1  0.55183992  0.44879926  0.43506551  1  0  -0.106835  0  3.761333  0  0  -0.128307  0  4.009055  0  0  -0.131131  0  4.032239  0  0  -0.094712  -0.125851  0  3.993373  0
C  C101  1  0.10305015  0.55099049  0.06490583  1  0  -0.10715  0  3.76252  0  0  -0.128453  0  4.009952  0  0  -0.131302  0  4.033286  0  0  -0.095091  -0.126801  0  3.994525  0
N  N102  1  0.87592891  0.79511208  0.73975426  1  0  -0.456194  0  3.277633  0  0  -0.381987  0  3.591166  0  0  -0.403784  0  3.598677  0  0  -0.363435  -0.367139  0  3.585912  0
N  N103  1  0.08111948  0.20478716  0.76033078  1  0  -0.456565  0  3.277227  0  0  -0.382168  0  3.59085  0  0  -0.403987  0  3.598399  0  0  -0.363133  -0.367544  0  3.585504  0
N  N104  1  0.12406857  0.20488770  0.26024510  1  0  -0.456217  0  3.27766  0  0  -0.382018  0  3.591182  0  0  -0.403818  0  3.598706  0  0  -0.363447  -0.367172  0  3.585939  0
N  N105  1  0.91887918  0.79521263  0.23967022  1  0  -0.456502  0  3.277152  0  0  -0.382118  0  3.59079  0  0  -0.403947  0  3.598355  0  0  -0.363069  -0.367497  0  3.585449  0
N  N106  1  0.67192730  0.55242018  0.69369074  1  0  -0.107548  0  3.507079  0  0  -0.018795  0  3.729437  0  0  -0.035429  0  3.752566  0  0  -0.234653  -0.0079  0  3.713568  0
N  N107  1  0.11951877  0.44742769  0.80632899  1  0  -0.109073  0  3.506524  0  0  -0.018685  0  3.72716  0  0  -0.035279  0  3.750267  0  0  -0.234268  -0.007845  0  3.711695  0
N  N108  1  0.32807193  0.44757840  0.30630857  1  0  -0.107524  0  3.507127  0  0  -0.018741  0  3.72945  0  0  -0.035375  0  3.752581  0  0  -0.234634  -0.00785  0  3.713587  0
N  N109  1  0.88048285  0.55257330  0.19367206  1  0  -0.109081  0  3.506368  0  0  -0.018675  0  3.726992  0  0  -0.035265  0  3.750086  0  0  -0.234318  -0.007841  0  3.711525  0
Cl  Cl110  1  0.62768738  0.05443034  0.83981453  1  0  -0.069788  0  1.39575  0  0  -0.056318  0  1.63772  0  0  -0.058877  0  1.632737  0  0  0.007253  -0.05362  0  1.639132  0
Cl  Cl111  1  0.57324289  0.94574248  0.66020369  1  0  -0.069491  0  1.394749  0  0  -0.055212  0  1.635854  0  0  -0.057717  0  1.630751  0  0  0.007182  -0.053903  0  1.639152  0
Cl  Cl112  1  0.37231424  0.94557066  0.16018706  1  0  -0.069779  0  1.395726  0  0  -0.056309  0  1.637699  0  0  -0.058864  0  1.632716  0  0  0.007264  -0.05361  0  1.639112  0
Cl  Cl113  1  0.42675812  0.05425730  0.33979675  1  0  -0.069553  0  1.394719  0  0  -0.05528  0  1.635834  0  0  -0.057782  0  1.630723  0  0  0.007148  -0.053972  0  1.639136  0
O  O114  1  0.24122647  0.96632096  0.82907171  1  0  -0.650223  0  2.072565  0  0  -0.580107  0  2.352935  0  0  -0.607754  0  2.336633  0  0  -0.331762  -0.560744  0  2.363588  0
O  O115  1  0.27445563  0.03322507  0.67089807  1  0  -0.650139  0  2.072439  0  0  -0.580229  0  2.353002  0  0  -0.607678  0  2.336354  0  0  -0.331757  -0.560538  0  2.364077  0
O  O116  1  0.75877336  0.03367883  0.17092874  1  0  -0.650139  0  2.072621  0  0  -0.580039  0  2.353018  0  0  -0.607695  0  2.336724  0  0  -0.331756  -0.560677  0  2.363673  0
O  O117  1  0.72553708  0.96676988  0.32910109  1  0  -0.650211  0  2.072405  0  0  -0.580156  0  2.352898  0  0  -0.607624  0  2.336264  0  0  -0.331731  -0.560466  0  2.363976  0
O  O118  1  0.17734036  0.10553457  0.92134941  1  0  -0.603085  0  1.917604  0  0  -0.553473  0  2.133645  0  0  -0.576007  0  2.124056  0  0  -0.314645  -0.537588  0  2.139722  0
O  O119  1  0.07155353  0.89403033  0.57859637  1  0  -0.602435  0  1.918916  0  0  -0.553371  0  2.134629  0  0  -0.575956  0  2.125127  0  0  -0.314647  -0.537518  0  2.141843  0
O  O120  1  0.82265652  0.89446401  0.07865208  1  0  -0.603066  0  1.91771  0  0  -0.553418  0  2.1337  0  0  -0.575952  0  2.124111  0  0  -0.31462  -0.537531  0  2.139777  0
O  O121  1  0.92843919  0.10596462  0.42140280  1  0  -0.602527  0  1.918998  0  0  -0.553397  0  2.134732  0  0  -0.57599  0  2.125221  0  0  -0.314661  -0.537544  0  2.141945  0
