# generated using pymatgen
data_NdH19C21NO8
_symmetry_space_group_name_H-M   'P 1'
_cell_length_a   12.22373653
_cell_length_b   12.22387689
_cell_length_c   18.32187886
_cell_angle_alpha   103.60524961
_cell_angle_beta   107.04448933
_cell_angle_gamma   101.97084407
_symmetry_Int_Tables_number   1
_chemical_formula_structural   NdH19C21NO8
_chemical_formula_sum   'Nd4 H76 C84 N4 O32'
_cell_volume   2428.87707813
_cell_formula_units_Z   4
loop_
 _symmetry_equiv_pos_site_id
 _symmetry_equiv_pos_as_xyz
  1  'x, y, z'
loop_
 _atom_site_type_symbol
 _atom_site_label
 _atom_site_symmetry_multiplicity
 _atom_site_fract_x
 _atom_site_fract_y
 _atom_site_fract_z
 _atom_site_occupancy
 _atom_site_pbe_bader_charge
 _atom_site_pbe_bader_spin_density
 _atom_site_pbe_cm5_charge
 _atom_site_pbe_ddec_charge
 _atom_site_pbe_ddec_spin_density
 _atom_site_pbe_ddec_sum_bond_order
 _atom_site_pbe_magmom
Nd  Nd0  1  0.39496197  0.32657140  0.98468724  1  2.226697  0  1.491876  2.05057  0  2.148646  0
Nd  Nd1  1  0.84201969  0.41021199  0.51525005  1  2.224746  0  1.492644  2.050751  0  2.149  0
Nd  Nd2  1  0.60503965  0.67342533  0.01531040  1  2.226649  0  1.491866  2.05057  0  2.148641  0
Nd  Nd3  1  0.15797993  0.58978927  0.48475004  1  2.224741  0  1.49263  2.050755  0  2.148925  0
H  H4  1  0.32093221  0.49319605  0.88388406  1  0.655483  0  0.302676  0.403711  0  0.933292  0
H  H5  1  0.10942216  0.43698267  0.61599199  1  0.672067  0  0.302119  0.402972  0  0.934682  0
H  H6  1  0.67906806  0.50680290  0.11611490  1  0.655504  0  0.302685  0.403707  0  0.933298  0
H  H7  1  0.89057763  0.56301509  0.38400914  1  0.672064  0  0.302102  0.402925  0  0.934748  0
H  H8  1  0.19780100  0.39726014  0.86993771  1  0.599907  0  0.340031  0.42369  0  0.854259  0
H  H9  1  0.02757044  0.32791937  0.63018540  1  0.621253  0  0.339801  0.424244  0  0.853809  0
H  H10  1  0.80219858  0.60273873  0.13006144  1  0.599912  0  0.340041  0.423717  0  0.854223  0
H  H11  1  0.97242878  0.67207805  0.36981428  1  0.62126  0  0.339837  0.424306  0  0.85373  0
H  H12  1  0.25913439  0.66191841  0.00823520  1  0.075954  0  0.106745  0.103221  0  1.005232  0
H  H13  1  0.15397104  0.25072847  0.49180011  1  0.075074  0  0.106379  0.102713  0  1.004931  0
H  H14  1  0.74086670  0.33807472  0.99176367  1  0.075987  0  0.106738  0.103202  0  1.005314  0
H  H15  1  0.84602638  0.74927562  0.50820130  1  0.07515  0  0.106362  0.102634  0  1.004941  0
H  H16  1  0.20067986  0.83811586  0.05941191  1  0.075775  0  0.099265  0.096584  0  1.034357  0
H  H17  1  0.27873071  0.14080409  0.44049879  1  0.078734  0  0.099174  0.096913  0  1.034445  0
H  H18  1  0.79931067  0.16187195  0.94058517  1  0.075556  0  0.099284  0.09665  0  1.03435  0
H  H19  1  0.72126368  0.85919537  0.55950222  1  0.078696  0  0.099167  0.096912  0  1.034429  0
H  H20  1  0.25774570  0.92905587  0.20779310  1  0.030303  0  0.095859  0.0873  0  1.032735  0
H  H21  1  0.22112159  0.04933331  0.29210518  1  0.045064  0  0.096252  0.087922  0  1.03217  0
H  H22  1  0.74225221  0.07093615  0.79220434  1  0.030167  0  0.09589  0.087395  0  1.032692  0
H  H23  1  0.77887248  0.95066731  0.70789640  1  0.044964  0  0.096272  0.087968  0  1.032121  0
H  H24  1  0.37799192  0.84614827  0.30267893  1  0.056563  0  0.096568  0.093417  0  1.050307  0
H  H25  1  0.04348737  0.07501551  0.19731961  1  0.074091  0  0.096825  0.092988  0  1.050582  0
H  H26  1  0.62200707  0.15384485  0.69731960  1  0.05685  0  0.096572  0.093499  0  1.050227  0
H  H27  1  0.95650881  0.92498795  0.80268145  1  0.074019  0  0.096861  0.093006  0  1.050603  0
H  H28  1  0.57770094  0.64006856  0.19526349  1  0.120047  0  0.10969  0.109338  0  1.049766  0
H  H29  1  0.94523574  0.38254671  0.30456755  1  0.119734  0  0.110739  0.111774  0  1.048078  0
H  H30  1  0.42229775  0.35992831  0.80473564  1  0.120074  0  0.109701  0.109322  0  1.049801  0
H  H31  1  0.05476411  0.61745907  0.69543278  1  0.119658  0  0.11069  0.11172  0  1.048064  0
H  H32  1  0.70386578  0.55344345  0.28180846  1  0.065465  0  0.101184  0.097397  0  1.034627  0
H  H33  1  0.77218890  0.42225166  0.21799918  1  0.087487  0  0.101537  0.097791  0  1.034597  0
H  H34  1  0.29613628  0.44655646  0.71819231  1  0.0655  0  0.101168  0.097428  0  1.034654  0
H  H35  1  0.22780660  0.57774714  0.78199675  1  0.087528  0  0.101519  0.097764  0  1.034523  0
H  H36  1  0.51536004  0.60536594  0.44583418  1  0.101451  0  0.111266  0.120122  0  0.991334  0
H  H37  1  0.66021504  0.06976533  0.05410423  1  0.129978  0  0.111193  0.118722  0  0.992193  0
H  H38  1  0.48464049  0.39463710  0.55416682  1  0.101459  0  0.111239  0.120102  0  0.99129  0
H  H39  1  0.33979196  0.93023710  0.94589798  1  0.130549  0  0.11118  0.118731  0  0.992195  0
H  H40  1  0.37877233  0.68143070  0.35414528  1  0.078509  0  0.106091  0.110096  0  1.0127  0
H  H41  1  0.82782387  0.02479434  0.14578833  1  0.085117  0  0.106402  0.110099  0  1.012866  0
H  H42  1  0.62122584  0.31856823  0.64585334  1  0.078183  0  0.10613  0.110165  0  1.01264  0
H  H43  1  0.17218231  0.97521108  0.85421483  1  0.085066  0  0.106397  0.110109  0  1.0128  0
H  H44  1  0.96495915  0.11111602  0.90185866  1  0.098538  0  0.106303  0.110693  0  1.00796  0
H  H45  1  0.70905811  0.06319724  0.59837892  1  0.106867  0  0.105939  0.110069  0  1.009807  0
H  H46  1  0.03504366  0.88888637  0.09814286  1  0.098494  0  0.106317  0.110717  0  1.007903  0
H  H47  1  0.29094757  0.93681306  0.40162287  1  0.106937  0  0.105941  0.110103  0  1.009911  0
H  H48  1  0.20843037  0.03950358  0.09308510  1  0.110461  0  0.104782  0.106536  0  1.014349  0
H  H49  1  0.44653777  0.11565061  0.40706307  1  0.072252  0  0.10486  0.10638  0  1.016061  0
H  H50  1  0.79157135  0.96049770  0.90691533  1  0.110482  0  0.104809  0.106594  0  1.014283  0
H  H51  1  0.55346806  0.88435944  0.59293708  1  0.072409  0  0.104849  0.10639  0  1.016063  0
H  H52  1  0.47706878  0.92642671  0.80202857  1  0.056077  0  0.111197  0.125847  0  0.987581  0
H  H53  1  0.62446478  0.67476233  0.69805014  1  0.074369  0  0.110937  0.124144  0  0.989394  0
H  H54  1  0.52293078  0.07357238  0.19796968  1  0.056041  0  0.111189  0.125875  0  0.987521  0
H  H55  1  0.37554055  0.32523629  0.30194859  1  0.0744  0  0.110964  0.124188  0  0.98938  0
H  H56  1  0.47234164  0.94124948  0.70626729  1  0.053672  0  0.101464  0.114747  0  1.009059  0
H  H57  1  0.73493613  0.76571416  0.79379519  1  0.051871  0  0.101277  0.114526  0  1.008211  0
H  H58  1  0.52765735  0.05874667  0.29372947  1  0.053549  0  0.101443  0.114702  0  1.009109  0
H  H59  1  0.26506829  0.23428267  0.20620262  1  0.051822  0  0.101305  0.114562  0  1.008197  0
H  H60  1  0.34476974  0.85016060  0.71405328  1  0.128389  0  0.114249  0.14125  0  0.987188  0
H  H61  1  0.63629967  0.63020430  0.78599016  1  0.099453  0  0.113822  0.140244  0  0.989072  0
H  H62  1  0.65523034  0.14983644  0.28594547  1  0.128433  0  0.114272  0.141256  0  0.987184  0
H  H63  1  0.36369994  0.36979717  0.21400902  1  0.099508  0  0.113822  0.140243  0  0.989085  0
H  H64  1  0.25621922  0.12056729  0.71445114  1  0.08627  0  0.113268  0.134205  0  0.991993  0
H  H65  1  0.90612227  0.54138754  0.78540758  1  0.072464  0  0.113434  0.134416  0  0.990899  0
H  H66  1  0.74378071  0.87943021  0.28554835  1  0.086244  0  0.113288  0.134213  0  0.991967  0
H  H67  1  0.09388163  0.45861268  0.21459770  1  0.072598  0  0.113446  0.134441  0  0.990944  0
H  H68  1  0.22496153  0.96953323  0.65442250  1  0.138377  0  0.108616  0.137328  0  1.008849  0
H  H69  1  0.81508912  0.57014701  0.84544778  1  0.102758  0  0.108277  0.13704  0  1.008687  0
H  H70  1  0.77503542  0.03046507  0.34557576  1  0.138413  0  0.108615  0.13733  0  1.008879  0
H  H71  1  0.18491214  0.42985567  0.15455485  1  0.102538  0  0.108266  0.137043  0  1.008668  0
H  H72  1  0.34648574  0.08277276  0.65696300  1  0.055938  0  0.103053  0.116787  0  0.983836  0
H  H73  1  0.92593854  0.68908335  0.84300719  1  0.061929  0  0.103168  0.117437  0  0.985221  0
H  H74  1  0.65351049  0.91722567  0.34303454  1  0.05588  0  0.103038  0.116748  0  0.983813  0
H  H75  1  0.07405973  0.31092013  0.15699421  1  0.061947  0  0.103154  0.117448  0  0.985271  0
H  H76  1  0.46377772  0.07663179  0.88314224  1  0.112338  0  0.130429  0.060246  0  1.009392  0
H  H77  1  0.69389407  0.58089363  0.61683924  1  0.114615  0  0.130988  0.060579  0  1.009249  0
H  H78  1  0.53622406  0.92336447  0.11685468  1  0.112356  0  0.130405  0.060222  0  1.009402  0
H  H79  1  0.30610543  0.41909439  0.38316157  1  0.114604  0  0.131023  0.060608  0  1.00935  0
C  C80  1  0.37712138  0.54486063  0.08811771  1  1.547097  0  0.216251  0.606892  0  4.224373  0
C  C81  1  0.95691767  0.28892961  0.41186425  1  1.574871  0  0.21725  0.609047  0  4.225629  0
C  C82  1  0.62288021  0.45513349  0.91187990  1  1.546731  0  0.216195  0.60677  0  4.224578  0
C  C83  1  0.04307883  0.71107270  0.58813624  1  1.574683  0  0.217261  0.608969  0  4.225745  0
C  C84  1  0.35059182  0.65406602  0.12589614  1  0.000723  0  -0.003431  -0.063654  0  3.924102  0
C  C85  1  0.02840737  0.22459380  0.37414614  1  -0.026557  0  -0.003097  -0.064453  0  3.924972  0
C  C86  1  0.64940753  0.34592832  0.87410276  1  0.001133  0  -0.003437  -0.06361  0  3.92395  0
C  C87  1  0.97159075  0.77541015  0.62585599  1  -0.026152  0  -0.003095  -0.06455  0  3.925019  0
C  C88  1  0.28457481  0.70241792  0.07282825  1  -0.047017  0  -0.081519  -0.092591  0  3.981391  0
C  C89  1  0.12980183  0.21155215  0.42718270  1  -0.004785  0  -0.080926  -0.091466  0  3.98073  0
C  C90  1  0.71542298  0.29757413  0.92717173  1  -0.047252  0  -0.081472  -0.092607  0  3.981378  0
C  C91  1  0.87019613  0.78845227  0.57282016  1  -0.005412  0  -0.080846  -0.091194  0  3.980661  0
C  C92  1  0.25102428  0.80108921  0.10172331  1  -0.001586  0  -0.090757  -0.082042  0  4.015916  0
C  C93  1  0.19944997  0.14894922  0.39824359  1  -0.079107  0  -0.090732  -0.081884  0  4.016321  0
C  C94  1  0.74897011  0.19890002  0.89827412  1  -0.001455  0  -0.090849  -0.082155  0  4.016209  0
C  C95  1  0.80054744  0.85105183  0.60175960  1  -0.078785  0  -0.090865  -0.082159  0  4.0167  0
C  C96  1  0.28319810  0.85140839  0.18460026  1  -0.097856  0  -0.094062  -0.085589  0  4.037326  0
C  C97  1  0.16679110  0.09810894  0.31535616  1  -0.060448  0  -0.094749  -0.087737  0  4.036962  0
C  C98  1  0.71679613  0.14858131  0.81539791  1  -0.097857  0  -0.093975  -0.085525  0  4.037631  0
C  C99  1  0.83320172  0.90189126  0.68464416  1  -0.060515  0  -0.094732  -0.087682  0  4.03692  0
C  C100  1  0.34988397  0.80426952  0.23793462  1  0.005558  0  -0.088621  -0.126779  0  3.977225  0
C  C101  1  0.06637758  0.11158312  0.26206358  1  -0.009365  0  -0.089073  -0.12527  0  3.977553  0
C  C102  1  0.65011117  0.19572196  0.76206446  1  0.005045  0  -0.088664  -0.126949  0  3.977497  0
C  C103  1  0.93362067  0.88841776  0.73793778  1  -0.009197  0  -0.089067  -0.125248  0  3.977496  0
C  C104  1  0.38610245  0.70580550  0.20988372  1  -0.050701  0  -0.000802  0.04555  0  3.961837  0
C  C105  1  0.99616876  0.17611725  0.29014557  1  -0.046825  0  -0.001567  0.044373  0  3.964122  0
C  C106  1  0.61389654  0.29418762  0.79011481  1  -0.050384  0  -0.000792  0.0456  0  3.96199  0
C  C107  1  0.00382957  0.82388863  0.70985677  1  -0.037093  0  -0.001662  0.044311  0  3.964191  0
C  C108  1  0.46572790  0.66252902  0.26654613  1  -0.041967  0  -0.001522  0.076867  0  3.984284  0
C  C109  1  0.89642502  0.19925839  0.23342292  1  -0.059721  0  0.000318  0.079415  0  3.985023  0
C  C110  1  0.53427165  0.33746724  0.73345298  1  -0.042793  0  -0.001573  0.076721  0  3.98435  0
C  C111  1  0.10357732  0.80074843  0.76657903  1  -0.069249  0  0.000468  0.079543  0  3.984756  0
C  C112  1  0.56005177  0.62851980  0.24818255  1  -0.059636  0  -0.082997  -0.121126  0  3.954228  0
C  C113  1  0.88079339  0.31197620  0.25168321  1  -0.03324  0  -0.084982  -0.124541  0  3.954134  0
C  C114  1  0.43994726  0.37147571  0.75181691  1  -0.05907  0  -0.082999  -0.121033  0  3.954183  0
C  C115  1  0.11920872  0.68802914  0.74831673  1  -0.033158  0  -0.084997  -0.124578  0  3.954171  0
C  C116  1  0.63372887  0.58312771  0.29811838  1  -0.051324  0  -0.082537  -0.081499  0  3.978807  0
C  C117  1  0.78551896  0.33576265  0.20172519  1  -0.035649  0  -0.082688  -0.081967  0  3.97852  0
C  C118  1  0.36627337  0.41687151  0.70188255  1  -0.051036  0  -0.082543  -0.081598  0  3.978832  0
C  C119  1  0.21448066  0.66424165  0.79827312  1  -0.035778  0  -0.082664  -0.081923  0  3.978618  0
C  C120  1  0.61787507  0.57366847  0.36926143  1  -0.054609  0  -0.022611  -0.047047  0  3.994938  0
C  C121  1  0.70490169  0.24879942  0.13063218  1  -0.09032  0  -0.023059  -0.049202  0  3.997223  0
C  C122  1  0.38212548  0.42633436  0.63074048  1  -0.054605  0  -0.022629  -0.047004  0  3.994862  0
C  C123  1  0.29509651  0.75119929  0.86936734  1  -0.090328  0  -0.023047  -0.049123  0  3.99707  0
C  C124  1  0.52729471  0.61217940  0.39015671  1  0.005044  0  -0.079881  -0.08937  0  3.959044  0
C  C125  1  0.72264374  0.13735216  0.10975017  1  -0.028889  0  -0.079432  -0.085645  0  3.958077  0
C  C126  1  0.47270530  0.38782288  0.60984465  1  0.004853  0  -0.079836  -0.08934  0  3.95897  0
C  C127  1  0.27735956  0.86264839  0.89025096  1  -0.029242  0  -0.079442  -0.085756  0  3.958083  0
C  C128  1  0.45163085  0.65554426  0.33904439  1  -0.049864  0  -0.087645  -0.136692  0  3.961064  0
C  C129  1  0.81704674  0.11277109  0.16090111  1  -0.050326  0  -0.088931  -0.138366  0  3.961719  0
C  C130  1  0.54836857  0.34445508  0.66095548  1  -0.049481  0  -0.087661  -0.136698  0  3.96108  0
C  C131  1  0.18295875  0.88723425  0.83910224  1  -0.050658  0  -0.088965  -0.138371  0  3.961595  0
C  C132  1  0.69637095  0.52191617  0.42059807  1  1.523559  0  0.196383  0.568568  0  4.227757  0
C  C133  1  0.60160521  0.27581499  0.07935906  1  1.515087  0  0.197395  0.569724  0  4.228998  0
C  C134  1  0.30363049  0.47808865  0.57940386  1  1.52358  0  0.196336  0.568477  0  4.227917  0
C  C135  1  0.39839487  0.72418204  0.92063969  1  1.515083  0  0.197399  0.569729  0  4.229007  0
C  C136  1  0.97850624  0.06141590  0.94428420  1  -0.054771  0  -0.083974  -0.105939  0  3.983101  0
C  C137  1  0.61701344  0.03430857  0.55586966  1  -0.057222  0  -0.083267  -0.104703  0  3.983644  0
C  C138  1  0.02149602  0.93858593  0.05571678  1  -0.054846  0  -0.083995  -0.105961  0  3.983021  0
C  C139  1  0.38299110  0.96570588  0.44413364  1  -0.057285  0  -0.083221  -0.104673  0  3.983694  0
C  C140  1  0.09524756  0.08268732  0.99731042  1  -0.083512  0  -0.013012  -0.017089  0  3.956066  0
C  C141  1  0.58532721  0.09817609  0.50289721  1  0.00385  0  -0.011778  -0.014979  0  3.960093  0
C  C142  1  0.90475352  0.91731628  0.00269114  1  -0.08346  0  -0.013063  -0.017174  0  3.95601  0
C  C143  1  0.41467750  0.90183767  0.49710626  1  0.004194  0  -0.011838  -0.015149  0  3.960032  0
C  C144  1  0.11633249  0.02111176  0.05304246  1  -0.036662  0  -0.082254  -0.104133  0  3.978188  0
C  C145  1  0.46814454  0.06344568  0.44703665  1  -0.072915  0  -0.083488  -0.105771  0  3.983003  0
C  C146  1  0.88366874  0.97889136  0.94695837  1  -0.036795  0  -0.082232  -0.104109  0  3.978075  0
C  C147  1  0.53185751  0.93656772  0.55296503  1  -0.072873  0  -0.083451  -0.105733  0  3.983012  0
C  C148  1  0.19799518  0.16884915  0.99344246  1  1.558247  0  0.187198  0.570795  0  4.239979  0
C  C149  1  0.67534992  0.20485188  0.50682663  1  1.543459  0  0.182939  0.56339  0  4.248595  0
C  C150  1  0.80200518  0.83115458  0.00655837  1  1.558243  0  0.187279  0.57087  0  4.239925  0
C  C151  1  0.32465246  0.79515733  0.49317625  1  1.543241  0  0.183028  0.563548  0  4.248389  0
C  C152  1  0.41986448  0.93161964  0.74512483  1  0.243183  0  -0.127503  -0.281007  0  3.894582  0
C  C153  1  0.68659793  0.67441786  0.75491624  1  0.258462  0  -0.126548  -0.277721  0  3.894873  0
C  C154  1  0.58013504  0.06837706  0.25487248  1  0.243389  0  -0.127508  -0.280984  0  3.894599  0
C  C155  1  0.31340424  0.32557942  0.24508195  1  0.25868  0  -0.126611  -0.277839  0  3.894896  0
C  C156  1  0.29505659  0.05253578  0.69247364  1  0.2003  0  -0.132411  -0.26742  0  3.852846  0
C  C157  1  0.86014139  0.60224742  0.80743806  1  0.241371  0  -0.132667  -0.268555  0  3.853486  0
C  C158  1  0.70494176  0.94746247  0.30752515  1  0.200374  0  -0.132364  -0.267281  0  3.852781  0
C  C159  1  0.13985967  0.39775335  0.19256436  1  0.241537  0  -0.132617  -0.26858  0  3.853436  0
C  C160  1  0.40216069  0.10040368  0.83646614  1  1.368663  0  0.185084  0.309672  0  4.105467  0
C  C161  1  0.76430444  0.56586848  0.66348597  1  1.369996  0  0.184287  0.308416  0  4.103986  0
C  C162  1  0.59784073  0.89959113  0.16353130  1  1.368755  0  0.185138  0.309789  0  4.105527  0
C  C163  1  0.23569877  0.43412446  0.33651414  1  1.369631  0  0.184296  0.308391  0  4.104286  0
N  N164  1  0.37442590  0.03231712  0.76138284  1  -1.198826  0  -0.272512  0.040893  0  3.721459  0
N  N165  1  0.77115257  0.61293767  0.73857850  1  -1.203473  0  -0.272969  0.040996  0  3.721111  0
N  N166  1  0.62557308  0.96767904  0.23861391  1  -1.19888  0  -0.272537  0.040723  0  3.721508  0
N  N167  1  0.22885020  0.38705928  0.26142386  1  -1.203574  0  -0.272958  0.041122  0  3.721111  0
O  O168  1  0.32511677  0.44557711  0.08991449  1  -1.173843  0  -0.337206  -0.591243  0  2.186814  0
O  O169  1  0.85570390  0.23522023  0.40993432  1  -1.178487  0  -0.3369  -0.591604  0  2.186112  0
O  O170  1  0.67488537  0.55441756  0.91008367  1  -1.173582  0  -0.33715  -0.591178  0  2.186856  0
O  O171  1  0.14429345  0.76478474  0.59006349  1  -1.178182  0  -0.336926  -0.591562  0  2.186046  0
O  O172  1  0.28337577  0.41124015  0.88271486  1  -1.23976  0  -0.616848  -0.82757  0  2.017452  0
O  O173  1  0.02858853  0.40043604  0.61703884  1  -1.27831  0  -0.616353  -0.828059  0  2.017811  0
O  O174  1  0.71662382  0.58875872  0.11728428  1  -1.239789  0  -0.616855  -0.827584  0  2.01744  0
O  O175  1  0.97141234  0.59956259  0.38296428  1  -1.278298  0  -0.616351  -0.82807  0  2.017844  0
O  O176  1  0.36254865  0.18621384  0.85509283  1  -1.191837  0  -0.381004  -0.569065  0  2.357867  0
O  O177  1  0.83152633  0.50769911  0.64483945  1  -1.191319  0  -0.380719  -0.568509  0  2.357636  0
O  O178  1  0.63745229  0.81378259  0.14490590  1  -1.191997  0  -0.381049  -0.569125  0  2.357947  0
O  O179  1  0.16847568  0.49229256  0.35516301  1  -1.191197  0  -0.380775  -0.568596  0  2.357674  0
O  O180  1  0.17804231  0.22378200  0.94165549  1  -1.185262  0  -0.401635  -0.647049  0  2.137498  0
O  O181  1  0.78203264  0.23664576  0.55860714  1  -1.189606  0  -0.399168  -0.642888  0  2.139902  0
O  O182  1  0.82196031  0.77622129  0.05834496  1  -1.185204  0  -0.401676  -0.647092  0  2.137502  0
O  O183  1  0.21796957  0.76336414  0.44139558  1  -1.189677  0  -0.399214  -0.642923  0  2.13978  0
O  O184  1  0.77434667  0.48199462  0.39637429  1  -1.201615  0  -0.378705  -0.647826  0  2.241052  0
O  O185  1  0.58580681  0.37794891  0.10357197  1  -1.200657  0  -0.378516  -0.647973  0  2.240668  0
O  O186  1  0.22565176  0.51800840  0.60362637  1  -1.201687  0  -0.378739  -0.647848  0  2.241058  0
O  O187  1  0.41419503  0.62204952  0.89642679  1  -1.200742  0  -0.37851  -0.647978  0  2.240725  0
O  O188  1  0.44852105  0.55401282  0.04863307  1  -1.203984  0  -0.435023  -0.737039  0  2.396151  0
O  O189  1  0.00559805  0.39975315  0.45140775  1  -1.227574  0  -0.436441  -0.738615  0  2.397456  0
O  O190  1  0.55147865  0.44598320  0.95136440  1  -1.20387  0  -0.435017  -0.736995  0  2.396222  0
O  O191  1  0.99439936  0.60025094  0.54859366  1  -1.227787  0  -0.436422  -0.738568  0  2.397574  0
O  O192  1  0.30382354  0.18357864  0.04114969  1  -1.179349  0  -0.392929  -0.627034  0  2.15543  0
O  O193  1  0.64244440  0.26298506  0.45908333  1  -1.180108  0  -0.391546  -0.624658  0  2.157073  0
O  O194  1  0.69617716  0.81642371  0.95885148  1  -1.179331  0  -0.392953  -0.627037  0  2.155418  0
O  O195  1  0.35755884  0.73702658  0.54091778  1  -1.179898  0  -0.391531  -0.624677  0  2.157093  0
O  O196  1  0.68713703  0.51647440  0.48695218  1  -1.171922  0  -0.368046  -0.612745  0  2.23737  0
O  O197  1  0.52972025  0.20016754  0.01308981  1  -1.174961  0  -0.368499  -0.613316  0  2.238086  0
O  O198  1  0.31286657  0.48353262  0.51305194  1  -1.171856  0  -0.36794  -0.612657  0  2.237492  0
O  O199  1  0.47027841  0.79982976  0.98690751  1  -1.174873  0  -0.368501  -0.613338  0  2.2381  0
