# generated using pymatgen
data_ZnH16C32(N2F)4
_symmetry_space_group_name_H-M   'P 1'
_cell_length_a   8.21745580
_cell_length_b   13.96435701
_cell_length_c   14.16000000
_cell_angle_alpha   64.31446668
_cell_angle_beta   88.79484908
_cell_angle_gamma   88.10676390
_symmetry_Int_Tables_number   1
_chemical_formula_structural   ZnH16C32(N2F)4
_chemical_formula_sum   'Zn2 H32 C64 N16 F8'
_cell_volume   1463.48085804
_cell_formula_units_Z   2
loop_
 _symmetry_equiv_pos_site_id
 _symmetry_equiv_pos_as_xyz
  1  'x, y, z'
loop_
 _atom_site_type_symbol
 _atom_site_label
 _atom_site_symmetry_multiplicity
 _atom_site_fract_x
 _atom_site_fract_y
 _atom_site_fract_z
 _atom_site_occupancy
 _atom_site_hle17_bader_spin_density
 _atom_site_hle17_ddec_charge
 _atom_site_hle17_ddec_spin_density
 _atom_site_hle17_ddec_sum_bond_order
 _atom_site_hle17_magmom
 _atom_site_hse06_10hf_bader_spin_density
 _atom_site_hse06_10hf_ddec_charge
 _atom_site_hse06_10hf_ddec_spin_density
 _atom_site_hse06_10hf_ddec_sum_bond_order
 _atom_site_hse06_10hf_magmom
 _atom_site_hse06_bader_spin_density
 _atom_site_hse06_ddec_charge
 _atom_site_hse06_ddec_spin_density
 _atom_site_hse06_ddec_sum_bond_order
 _atom_site_hse06_magmom
 _atom_site_pbe_bader_charge
 _atom_site_pbe_bader_spin_density
 _atom_site_pbe_cm5_charge
 _atom_site_pbe_ddec_charge
 _atom_site_pbe_ddec_spin_density
 _atom_site_pbe_ddec_sum_bond_order
 _atom_site_pbe_magmom
Zn  Zn0  1  0.77282975  0.74641653  0.25158438  1  0  0.881543  0  2.045912  0  0  0.687081  0  2.50612  0  0  0.728518  0  2.465335  0  1.257324  0  0.701629  0.658783  0  2.533752  0
Zn  Zn1  1  0.22716967  0.25358238  0.74841644  1  0  0.88158  0  2.045892  0  0  0.687096  0  2.506094  0  0  0.728528  0  2.465309  0  1.25741  0  0.701633  0.658798  0  2.533725  0
H  H2  1  0.43490390  0.77334249  0.34004925  1  0  0.082686  0  0.987672  0  0  0.086701  0  1.057658  0  0  0.088887  0  1.055748  0  0.102231  0  0.110601  0.085054  0  1.059104  0
H  H3  1  0.56509423  0.22665802  0.65994950  1  0  0.082701  0  0.987644  0  0  0.08669  0  1.057669  0  0  0.088866  0  1.055751  0  0.102223  0  0.110609  0.085048  0  1.059107  0
H  H4  1  0.47109091  0.71590950  0.12700858  1  0  0.070728  0  0.942502  0  0  0.079406  0  1.004519  0  0  0.081417  0  1.00394  0  0.078222  0  0.111286  0.077934  0  1.00507  0
H  H5  1  0.52891094  0.28408941  0.87299150  1  0  0.070652  0  0.942544  0  0  0.079354  0  1.004544  0  0  0.081364  0  1.003966  0  0.078214  0  0.111274  0.077882  0  1.005094  0
H  H6  1  0.11091031  0.82881443  0.27567618  1  0  0.0829  0  0.963313  0  0  0.08862  0  1.031552  0  0  0.090879  0  1.029582  0  0.125046  0  0.113921  0.086891  0  1.033142  0
H  H7  1  0.88909145  0.17118687  0.72432430  1  0  0.082904  0  0.96332  0  0  0.08863  0  1.031544  0  0  0.090889  0  1.029576  0  0.125042  0  0.113915  0.086901  0  1.033136  0
H  H8  1  0.44672206  0.40097683  0.39672617  1  0  0.11268  0  0.989001  0  0  0.123489  0  1.047695  0  0  0.125906  0  1.04783  0  0.136851  0  0.108167  0.121743  0  1.04774  0
H  H9  1  0.55327614  0.59902209  0.60327749  1  0  0.112692  0  0.988995  0  0  0.123504  0  1.047686  0  0  0.125914  0  1.047824  0  0.136895  0  0.108192  0.121757  0  1.047731  0
H  H10  1  0.91680046  0.82683351  0.86799299  1  0  0.118681  0  0.975049  0  0  0.121537  0  1.047131  0  0  0.125536  0  1.044213  0  0.137974  0  0.105326  0.118655  0  1.049328  0
H  H11  1  0.08320011  0.17316699  0.13200784  1  0  0.118649  0  0.975044  0  0  0.121499  0  1.047138  0  0  0.125499  0  1.044218  0  0.137967  0  0.105308  0.118617  0  1.049334  0
H  H12  1  0.08233417  0.61365398  0.22005736  1  0  0.072309  0  0.938712  0  0  0.080693  0  1.000668  0  0  0.082864  0  0.999814  0  0.082845  0  0.111403  0.079122  0  1.001378  0
H  H13  1  0.91766531  0.38634334  0.77994767  1  0  0.072324  0  0.938686  0  0  0.080712  0  1.000637  0  0  0.082884  0  0.999783  0  0.08281  0  0.111415  0.079141  0  1.001346  0
H  H14  1  0.34574097  0.92347062  0.15997197  1  0  0.112856  0  0.951735  0  0  0.12133  0  1.012998  0  0  0.124411  0  1.012277  0  0.150399  0  0.107979  0.119097  0  1.013714  0
H  H15  1  0.65425713  0.07653068  0.84002644  1  0  0.11285  0  0.951756  0  0  0.121342  0  1.013004  0  0  0.124424  0  1.012282  0  0.150394  0  0.107971  0.119108  0  1.013721  0
H  H16  1  0.65738073  0.77011277  0.82129198  1  0  0.111968  0  0.944855  0  0  0.119541  0  1.007812  0  0  0.122147  0  1.005934  0  0.140449  0  0.10924  0.117536  0  1.009299  0
H  H17  1  0.34262105  0.22988773  0.17870743  1  0  0.111985  0  0.944889  0  0  0.119532  0  1.007867  0  0  0.122135  0  1.005997  0  0.140432  0  0.109235  0.117556  0  1.009323  0
H  H18  1  0.08997179  0.91262727  0.90189679  1  0  0.114877  0  0.962407  0  0  0.125067  0  1.021208  0  0  0.127405  0  1.021542  0  0.129197  0  0.110595  0.123338  0  1.021209  0
H  H19  1  0.91002641  0.08737165  0.09810334  1  0  0.114879  0  0.962411  0  0  0.125065  0  1.021207  0  0  0.127396  0  1.02156  0  0.129187  0  0.110601  0.123337  0  1.021208  0
H  H20  1  0.90757107  0.30391921  0.28018244  1  0  0.112987  0  0.939282  0  0  0.120856  0  1.001222  0  0  0.123527  0  0.999213  0  0.122317  0  0.1097  0.118844  0  1.002793  0
H  H21  1  0.09242957  0.69607970  0.71981907  1  0  0.112983  0  0.939286  0  0  0.120853  0  1.001221  0  0  0.123524  0  0.999213  0  0.122314  0  0.109689  0.118841  0  1.002791  0
H  H22  1  0.64233828  0.35640547  0.33259718  1  0  0.121281  0  0.97105  0  0  0.125229  0  1.040479  0  0  0.129221  0  1.037624  0  0.140958  0  0.106919  0.122368  0  1.042614  0
H  H23  1  0.35765867  0.64359423  0.66740051  1  0  0.121294  0  0.97107  0  0  0.125283  0  1.040447  0  0  0.129276  0  1.037588  0  0.140989  0  0.106937  0.122421  0  1.042582  0
H  H24  1  0.33014489  0.96828045  0.96701433  1  0  0.100736  0  0.936397  0  0  0.11485  0  0.989624  0  0  0.117094  0  0.988648  0  0.086343  0  0.109451  0.113185  0  0.990416  0
H  H25  1  0.66985321  0.03172085  0.03298549  1  0  0.100773  0  0.936366  0  0  0.114869  0  0.989609  0  0  0.117106  0  0.988641  0  0.086408  0  0.109449  0.113204  0  0.990402  0
H  H26  1  0.20152503  0.47041373  0.45465446  1  0  0.103052  0  0.933689  0  0  0.115631  0  0.988819  0  0  0.117912  0  0.987881  0  0.110715  0  0.110184  0.113953  0  0.989572  0
H  H27  1  0.79847560  0.52958518  0.54534917  1  0  0.102975  0  0.933703  0  0  0.115575  0  0.988814  0  0  0.117855  0  0.987876  0  0.110759  0  0.110164  0.113898  0  0.989565  0
H  H28  1  0.19180894  0.66182547  0.42560728  1  0  0.112124  0  0.952449  0  0  0.120458  0  1.013457  0  0  0.123518  0  1.012811  0  0.113112  0  0.107397  0.118273  0  1.014071  0
H  H29  1  0.80818801  0.33817423  0.57439324  1  0  0.112166  0  0.952458  0  0  0.120498  0  1.013465  0  0  0.123557  0  1.01282  0  0.113136  0  0.107407  0.118317  0  1.014075  0
H  H30  1  0.42741192  0.71582206  0.95177259  1  0  0.116667  0  0.957435  0  0  0.126833  0  1.012994  0  0  0.130122  0  1.011936  0  0.135715  0  0.109968  0.124476  0  1.01385  0
H  H31  1  0.57258868  0.28417764  0.04822788  1  0  0.116656  0  0.957432  0  0  0.126821  0  1.013  0  0  0.13011  0  1.011941  0  0.13571  0  0.109968  0.124463  0  1.013857  0
H  H32  1  0.13728741  0.43283122  0.22644570  1  0  0.113885  0  0.944367  0  0  0.123957  0  0.999259  0  0  0.127125  0  0.998625  0  0.120693  0  0.111022  0.121713  0  0.999834  0
H  H33  1  0.86271447  0.56716690  0.77356038  1  0  0.113863  0  0.944393  0  0  0.123952  0  0.99927  0  0  0.127119  0  0.998635  0  0.12057  0  0.111018  0.121707  0  0.999845  0
C  C34  1  0.64552102  0.96054042  0.26185191  1  0  0.324879  0  3.855192  0  0  0.296289  0  4.138455  0  0  0.314761  0  4.154159  0  0.764234  0  0.177828  0.283677  0  4.127688  0
C  C35  1  0.35448199  0.03946009  0.73814536  1  0  0.324831  0  3.855122  0  0  0.296236  0  4.138371  0  0  0.31471  0  4.15407  0  0.763547  0  0.177789  0.283627  0  4.127608  0
C  C36  1  0.91991486  0.90376244  0.51081589  1  0  -0.075192  0  3.900593  0  0  -0.091046  0  4.174554  0  0  -0.089622  0  4.195456  0  0.095269  0  -0.029016  -0.091899  0  4.160538  0
C  C37  1  0.08008449  0.09623806  0.48918355  1  0  -0.075277  0  3.900657  0  0  -0.091096  0  4.174584  0  0  -0.089672  0  4.195483  0  0.095006  0  -0.029  -0.091952  0  4.16057  0
C  C38  1  0.97493276  0.83966176  0.05450844  1  0  0.175303  0  3.749653  0  0  0.171232  0  3.987965  0  0  0.177984  0  4.008091  0  0.458822  0  0.122265  0.166746  0  3.974331  0
C  C39  1  0.02506544  0.16033715  0.94549240  1  0  0.175291  0  3.749598  0  0  0.171273  0  3.987868  0  0  0.178027  0  4.007992  0  0.458874  0  0.122258  0.166788  0  3.974235  0
C  C40  1  0.00083643  0.97186946  0.41901096  1  0  0.154853  0  3.786229  0  0  0.117164  0  4.100728  0  0  0.125464  0  4.108401  0  0.551648  0  0.07375  0.111182  0  4.095931  0
C  C41  1  0.99916052  0.02813025  0.58098744  1  0  0.154944  0  3.786078  0  0  0.117277  0  4.100525  0  0  0.125574  0  4.108202  0  0.551754  0  0.073762  0.111296  0  4.095731  0
C  C42  1  0.63792428  0.04080905  0.29466707  1  0  -0.202649  0  3.974229  0  0  -0.189247  0  4.234798  0  0  -0.203465  0  4.256  0  0.237815  0  -0.062372  -0.179211  0  4.219723  0
C  C43  1  0.36207863  0.95919384  0.70532919  1  0  -0.202583  0  3.974193  0  0  -0.189119  0  4.234749  0  0  -0.203339  0  4.255959  0  0.238109  0  -0.062282  -0.17908  0  4.219664  0
C  C44  1  0.72527741  0.75687038  0.60313633  1  0  0.2757  0  3.873928  0  0  0.258118  0  4.160538  0  0  0.271427  0  4.179089  0  0.813481  0  0.160414  0.249043  0  4.147907  0
C  C45  1  0.27472444  0.24312853  0.39686305  1  0  0.275549  0  3.873912  0  0  0.257972  0  4.160531  0  0  0.271275  0  4.179086  0  0.813434  0  0.160312  0.248894  0  4.147898  0
C  C46  1  0.72174314  0.13336509  0.23183793  1  0  0.280919  0  3.87026  0  0  0.262438  0  4.159229  0  0  0.276374  0  4.176175  0  0.816037  0  0.157144  0.252879  0  4.14765  0
C  C47  1  0.27825605  0.86663939  0.76815840  1  0  0.280883  0  3.870135  0  0  0.262394  0  4.159085  0  0  0.276329  0  4.17603  0  0.815704  0  0.157139  0.252837  0  4.147511  0
C  C48  1  0.61114579  0.07792892  0.45349028  1  0  0.154605  0  3.810778  0  0  0.119335  0  4.120357  0  0  0.126103  0  4.132528  0  0.561482  0  0.075216  0.114445  0  4.112403  0
C  C49  1  0.38885596  0.92207238  0.54650738  1  0  0.154739  0  3.810671  0  0  0.119491  0  4.120279  0  0  0.126259  0  4.132451  0  0.561444  0  0.075299  0.114603  0  4.11233  0
C  C50  1  0.83821191  0.80814282  0.52220555  1  0  -0.19477  0  3.97367  0  0  -0.179629  0  4.228746  0  0  -0.19427  0  4.25165  0  0.270289  0  -0.058031  -0.169504  0  4.212921  0
C  C51  1  0.16178863  0.19185848  0.47779212  1  0  -0.194754  0  3.973524  0  0  -0.179636  0  4.228624  0  0  -0.194265  0  4.251509  0  0.270307  0  -0.058013  -0.169503  0  4.21279  0
C  C52  1  0.86327577  0.76311201  0.45309759  1  0  0.328162  0  3.843142  0  0  0.303995  0  4.115694  0  0  0.322011  0  4.132216  0  0.720713  0  0.179545  0.29172  0  4.104411  0
C  C53  1  0.13672602  0.23688850  0.54690323  1  0  0.328247  0  3.843142  0  0  0.304085  0  4.1157  0  0  0.322097  0  4.132218  0  0.720791  0  0.179554  0.291808  0  4.104417  0
C  C54  1  0.82742412  0.80442741  0.02125727  1  0  0.168739  0  3.757721  0  0  0.165563  0  3.997569  0  0  0.170807  0  4.018846  0  0.496253  0  0.118015  0.162098  0  3.983119  0
C  C55  1  0.17257649  0.19557230  0.97874391  1  0  0.168717  0  3.7576  0  0  0.16542  0  3.997529  0  0  0.170665  0  4.018805  0  0.496136  0  0.117954  0.161955  0  3.983078  0
C  C56  1  0.43150446  0.69031343  0.35459788  1  0  0.122995  0  3.705464  0  0  0.089968  0  3.960739  0  0  0.096238  0  3.979202  0  0.53388  0  0.044952  0.085956  0  3.948193  0
C  C57  1  0.56849249  0.30968628  0.64540122  1  0  0.123043  0  3.705409  0  0  0.090029  0  3.960704  0  0  0.096317  0  3.97915  0  0.533799  0  0.044963  0.086013  0  3.948162  0
C  C58  1  0.56634659  0.74070272  0.06692197  1  0  0.128867  0  3.723129  0  0  0.098595  0  3.978619  0  0  0.104552  0  3.997091  0  0.472749  0  0.044594  0.094777  0  3.966  0
C  C59  1  0.43365527  0.25929619  0.93307953  1  0  0.128975  0  3.723173  0  0  0.098655  0  3.978649  0  0  0.104612  0  3.997123  0  0.472725  0  0.044573  0.094837  0  3.966028  0
C  C60  1  0.11280282  0.84821419  0.19249850  1  0  0.133138  0  3.701484  0  0  0.098027  0  3.959275  0  0  0.104861  0  3.977261  0  0.499522  0  0.048329  0.093605  0  3.947111  0
C  C61  1  0.88719772  0.15178711  0.80750058  1  0  0.133034  0  3.701379  0  0  0.09792  0  3.959187  0  0  0.104753  0  3.977176  0  0.499529  0  0.048253  0.093499  0  3.94702  0
C  C62  1  0.57118482  0.54990385  0.33932392  1  0  0.174922  0  3.75537  0  0  0.170788  0  3.995114  0  0  0.177516  0  4.015173  0  0.499412  0  0.122653  0.166287  0  3.981529  0
C  C63  1  0.42881335  0.45009585  0.66067658  1  0  0.174872  0  3.755605  0  0  0.170756  0  3.995324  0  0  0.177479  0  4.015388  0  0.499383  0  0.12262  0.166254  0  3.981741  0
C  C64  1  0.55097370  0.05438053  0.55304526  1  0  0.148966  0  3.782959  0  0  0.1131  0  4.093618  0  0  0.120534  0  4.10261  0  0.455544  0  0.071624  0.107751  0  4.087868  0
C  C65  1  0.44902930  0.94561997  0.44695272  1  0  0.148895  0  3.783042  0  0  0.112982  0  4.093702  0  0  0.120417  0  4.102692  0  0.455517  0  0.071582  0.107631  0  4.087946  0
C  C66  1  0.44083699  0.48289301  0.38595441  1  0  -0.137632  0  3.691399  0  0  -0.156431  0  3.934777  0  0  -0.163764  0  3.957085  0  -0.065614  0  -0.077479  -0.151647  0  3.919808  0
C  C67  1  0.55916002  0.51710511  0.61404749  1  0  -0.137677  0  3.691536  0  0  -0.156503  0  3.934943  0  0  -0.163829  0  3.957247  0  -0.065618  0  -0.077532  -0.151717  0  3.919974  0
C  C68  1  0.81459151  0.80430181  0.92282775  1  0  -0.131011  0  3.670216  0  0  -0.150686  0  3.917109  0  0  -0.156979  0  3.937325  0  -0.054057  0  -0.075243  -0.146604  0  3.903546  0
C  C69  1  0.18541034  0.19569710  0.07717445  1  0  -0.130883  0  3.670154  0  0  -0.150521  0  3.917048  0  0  -0.156813  0  3.937263  0  -0.053566  0  -0.075182  -0.14644  0  3.903494  0
C  C70  1  0.98848862  0.55389350  0.24551734  1  0  0.128925  0  3.725987  0  0  0.098837  0  3.981229  0  0  0.104882  0  3.999481  0  0.484037  0  0.046655  0.094978  0  3.968726  0
C  C71  1  0.01151202  0.44610541  0.75448558  1  0  0.128908  0  3.725946  0  0  0.098801  0  3.981197  0  0  0.104844  0  3.999453  0  0.483707  0  0.046614  0.094943  0  3.968693  0
C  C72  1  0.56501560  0.02327415  0.39564183  1  0  -0.072195  0  3.897484  0  0  -0.087999  0  4.171046  0  0  -0.086956  0  4.193362  0  0.115193  0  -0.02866  -0.088586  0  4.155941  0
C  C73  1  0.43498497  0.97672636  0.60435548  1  0  -0.07219  0  3.897497  0  0  -0.088104  0  4.17117  0  0  -0.087062  0  4.193486  0  0.115298  0  -0.02871  -0.088701  0  4.156086  0
C  C74  1  0.92342741  0.93693082  0.59120984  1  0  0.153484  0  3.791584  0  0  0.116279  0  4.103891  0  0  0.124185  0  4.112423  0  0.486966  0  0.075545  0.110588  0  4.098477  0
C  C75  1  0.07656957  0.06306809  0.40879031  1  0  0.153548  0  3.791637  0  0  0.116313  0  4.103988  0  0  0.124217  0  4.112522  0  0.48727  0  0.075531  0.110621  0  4.098575  0
C  C76  1  0.72378102  0.51274582  0.30650181  1  0  0.168099  0  3.754937  0  0  0.163941  0  3.995307  0  0  0.169258  0  4.016572  0  0.51579  0  0.117761  0.160439  0  3.980856  0
C  C77  1  0.27621597  0.48725309  0.69349904  1  0  0.168077  0  3.755017  0  0  0.163909  0  3.995381  0  0  0.169229  0  4.016646  0  0.515821  0  0.117763  0.160407  0  3.980929  0
C  C78  1  0.24189730  0.90144846  0.12761594  1  0  -0.12156  0  3.718619  0  0  -0.135199  0  3.975091  0  0  -0.142087  0  3.99611  0  -0.075325  0  -0.082571  -0.130801  0  3.960998  0
C  C79  1  0.75810445  0.09855284  0.87238242  1  0  -0.121501  0  3.718644  0  0  -0.135151  0  3.975101  0  0  -0.14204  0  3.996119  0  -0.075391  0  -0.082518  -0.130752  0  3.961007  0
C  C80  1  0.67028827  0.77150863  0.89717338  1  0  0.008502  0  3.686594  0  0  -0.010047  0  3.932648  0  0  -0.007278  0  3.952204  0  -0.000822  0  -0.05903  -0.011601  0  3.919304  0
C  C81  1  0.32971115  0.22849028  0.10282816  1  0  0.008414  0  3.686666  0  0  -0.010121  0  3.932739  0  0  -0.007352  0  3.952301  0  -0.001234  0  -0.059006  -0.011698  0  3.919385  0
C  C82  1  0.09902296  0.89421717  0.98441759  1  0  -0.128951  0  3.685089  0  0  -0.148158  0  3.931188  0  0  -0.155474  0  3.953803  0  -0.027849  0  -0.074982  -0.143439  0  3.916048  0
C  C83  1  0.90097643  0.10578254  0.01558290  1  0  -0.12897  0  3.685118  0  0  -0.148163  0  3.931171  0  0  -0.155481  0  3.953778  0  -0.027852  0  -0.074996  -0.143445  0  3.916031  0
C  C84  1  0.89186723  0.38181713  0.27992042  1  0  0.013788  0  3.685958  0  0  -0.005835  0  3.93441  0  0  -0.002791  0  3.953675  0  -0.021369  0  -0.057757  -0.007619  0  3.921216  0
C  C85  1  0.10813215  0.61818258  0.72008148  1  0  0.013796  0  3.686013  0  0  -0.005818  0  3.934471  0  0  -0.002773  0  3.953738  0  -0.021163  0  -0.057738  -0.007602  0  3.921277  0
C  C86  1  0.74266137  0.41130190  0.30962863  1  0  -0.129155  0  3.659842  0  0  -0.14621  0  3.903559  0  0  -0.152784  0  3.923988  0  -0.053422  0  -0.073036  -0.141924  0  3.889805  0
C  C87  1  0.25733680  0.58869781  0.69037117  1  0  -0.129166  0  3.659905  0  0  -0.146262  0  3.903609  0  0  -0.152839  0  3.924038  0  -0.05378  0  -0.073059  -0.141975  0  3.889855  0
C  C88  1  0.23380496  0.92501434  0.02144391  1  0  0.002508  0  3.714746  0  0  -0.01803  0  3.967775  0  0  -0.014523  0  3.98669  0  -0.012574  0  -0.064126  -0.020059  0  3.954802  0
C  C89  1  0.76619439  0.07498617  0.97855553  1  0  0.00249  0  3.714743  0  0  -0.018047  0  3.967765  0  0  -0.014532  0  3.986678  0  -0.012631  0  -0.064119  -0.020076  0  3.95479  0
C  C90  1  0.30295241  0.52236979  0.41742927  1  0  0.001338  0  3.71345  0  0  -0.018466  0  3.967428  0  0  -0.014888  0  3.986106  0  -0.053389  0  -0.065763  -0.020532  0  3.954569  0
C  C91  1  0.69704454  0.47762992  0.58257266  1  0  0.001541  0  3.713343  0  0  -0.018265  0  3.967306  0  0  -0.014685  0  3.985981  0  -0.05345  0  -0.065668  -0.020331  0  3.954448  0
C  C92  1  0.29776958  0.62811179  0.40206009  1  0  -0.119175  0  3.722052  0  0  -0.133129  0  3.979382  0  0  -0.139981  0  4.000553  0  -0.048499  0  -0.081993  -0.128734  0  3.965151  0
C  C93  1  0.70222862  0.37188713  0.59794075  1  0  -0.119331  0  3.722041  0  0  -0.133287  0  3.97938  0  0  -0.140139  0  4.000547  0  -0.048402  0  -0.082047  -0.128895  0  3.96515  0
C  C94  1  0.54293056  0.73973770  0.97017747  1  0  -0.11479  0  3.716911  0  0  -0.124165  0  3.957422  0  0  -0.13131  0  3.979844  0  -0.049818  0  -0.077815  -0.119516  0  3.942216  0
C  C95  1  0.45707010  0.26026042  0.02982368  1  0  -0.114738  0  3.716888  0  0  -0.124121  0  3.957421  0  0  -0.131266  0  3.979843  0  -0.049809  0  -0.077829  -0.119473  0  3.942221  0
C  C96  1  0.01807884  0.45388519  0.24817042  1  0  -0.115789  0  3.718929  0  0  -0.125279  0  3.962561  0  0  -0.132389  0  3.984705  0  -0.020521  0  -0.076954  -0.120673  0  3.947556  0
C  C97  1  0.98192301  0.54611373  0.75183391  1  0  -0.115728  0  3.718974  0  0  -0.125247  0  3.96262  0  0  -0.132357  0  3.984765  0  -0.020267  0  -0.076914  -0.120642  0  3.947614  0
N  N98  1  0.98297995  0.81819365  0.15712193  1  0  -0.340938  0  3.269711  0  0  -0.265126  0  3.529452  0  0  -0.282734  0  3.545974  0  -1.25181  0  -0.316114  -0.253199  0  3.518026  0
N  N99  1  0.01702187  0.18180606  0.84287853  1  0  -0.340855  0  3.269567  0  0  -0.265053  0  3.529278  0  0  -0.282659  0  3.545793  0  -1.251778  0  -0.316043  -0.253127  0  3.517852  0
N  N100  1  0.88360859  0.72229660  0.39568480  1  0  -0.521737  0  2.849451  0  0  -0.480175  0  3.138932  0  0  -0.49702  0  3.142545  0  -1.26678  0  -0.375883  -0.468705  0  3.136509  0
N  N101  1  0.11639698  0.27770072  0.60431380  1  0  -0.521753  0  2.849612  0  0  -0.480181  0  3.139066  0  0  -0.497025  0  3.14268  0  -1.266795  0  -0.375862  -0.468713  0  3.136647  0
N  N102  1  0.70478660  0.77167079  0.09224513  1  0  -0.343248  0  3.269116  0  0  -0.276599  0  3.531809  0  0  -0.293033  0  3.549272  0  -1.243484  0  -0.318497  -0.26546  0  3.519837  0
N  N103  1  0.29521525  0.22832812  0.90775425  1  0  -0.343386  0  3.269126  0  0  -0.276611  0  3.531742  0  0  -0.293044  0  3.549205  0  -1.243426  0  -0.318476  -0.265472  0  3.519769  0
N  N104  1  0.79280738  0.20942200  0.17621337  1  0  -0.467274  0  2.585639  0  0  -0.455774  0  2.820926  0  0  -0.465573  0  2.828657  0  -1.21364  0  -0.352535  -0.448969  0  2.815809  0
N  N105  1  0.20719062  0.79058168  0.82378260  1  0  -0.467264  0  2.585568  0  0  -0.455777  0  2.820876  0  0  -0.465576  0  2.828606  0  -1.213627  0  -0.352559  -0.448974  0  2.815764  0
N  N106  1  0.84543020  0.58288384  0.27357231  1  0  -0.340859  0  3.258465  0  0  -0.273835  0  3.518861  0  0  -0.290056  0  3.536251  0  -1.245917  0  -0.316867  -0.262822  0  3.506916  0
N  N107  1  0.15456925  0.41711428  0.72642885  1  0  -0.340854  0  3.258455  0  0  -0.273784  0  3.518815  0  0  -0.290005  0  3.536204  0  -1.245608  0  -0.316846  -0.262771  0  3.506868  0
N  N108  1  0.56432264  0.65249404  0.32392204  1  0  -0.342338  0  3.282369  0  0  -0.266161  0  3.54108  0  0  -0.283848  0  3.558246  0  -1.263826  0  -0.318643  -0.254174  0  3.529279  0
N  N109  1  0.43567552  0.34750567  0.67607704  1  0  -0.342346  0  3.282308  0  0  -0.266189  0  3.541058  0  0  -0.283874  0  3.558221  0  -1.263866  0  -0.318667  -0.254202  0  3.529259  0
N  N110  1  0.65156335  0.89265517  0.23294425  1  0  -0.52202  0  2.858482  0  0  -0.480105  0  3.156152  0  0  -0.497365  0  3.160052  0  -1.290682  0  -0.37162  -0.468309  0  3.153539  0
N  N111  1  0.34843716  0.10734692  0.76705662  1  0  -0.52206  0  2.858428  0  0  -0.480149  0  3.156118  0  0  -0.497407  0  3.160019  0  -1.290051  0  -0.37164  -0.468351  0  3.153501  0
N  N112  1  0.62997141  0.71188488  0.66971902  1  0  -0.461781  0  2.605818  0  0  -0.448936  0  2.843928  0  0  -0.459257  0  2.852149  0  -1.217105  0  -0.347815  -0.441843  0  2.838459  0
N  N113  1  0.37003291  0.28811324  0.33028208  1  0  -0.461694  0  2.605769  0  0  -0.448837  0  2.843862  0  0  -0.459162  0  2.85209  0  -1.217112  0  -0.347762  -0.441746  0  2.838399  0
F  F114  1  0.72382206  0.15470602  0.41380211  1  0  -0.174394  0  1.298524  0  0  -0.112815  0  1.469375  0  0  -0.123423  0  1.463924  0  -0.634591  0  -0.078543  -0.105092  0  1.473078  0
F  F115  1  0.27617720  0.84529687  0.58619490  1  0  -0.174433  0  1.298509  0  0  -0.112849  0  1.469356  0  0  -0.123458  0  1.463905  0  -0.634535  0  -0.078578  -0.105127  0  1.473059  0
F  F116  1  0.00636798  0.94964619  0.33425971  1  0  -0.180613  0  1.278318  0  0  -0.120693  0  1.448176  0  0  -0.129867  0  1.439682  0  -0.633689  0  -0.084514  -0.113939  0  1.453985  0
F  F117  1  0.99362769  0.05035511  0.66573873  1  0  -0.180624  0  1.278237  0  0  -0.120758  0  1.448118  0  0  -0.129934  0  1.439627  0  -0.633711  0  -0.084535  -0.114005  0  1.45393  0
F  F118  1  0.85204357  0.87708290  0.68518953  1  0  -0.171777  0  1.284672  0  0  -0.106681  0  1.45  0  0  -0.116384  0  1.442008  0  -0.633697  0  -0.076189  -0.099551  0  1.455418  0
F  F119  1  0.14795581  0.12291680  0.31480884  1  0  -0.171792  0  1.284556  0  0  -0.10671  0  1.449918  0  0  -0.116412  0  1.441926  0  -0.633708  0  -0.076207  -0.09958  0  1.45534  0
F  F120  1  0.61339790  0.10907823  0.60346957  1  0  -0.180832  0  1.258476  0  0  -0.11847  0  1.42004  0  0  -0.126297  0  1.409771  0  -0.641141  0  -0.088996  -0.112704  0  1.427106  0
F  F121  1  0.38660514  0.89092148  0.39653087  1  0  -0.180837  0  1.258562  0  0  -0.118451  0  1.420118  0  0  -0.126279  0  1.409852  0  -0.641139  0  -0.088996  -0.112682  0  1.427183  0
