# generated using pymatgen
data_MnV4H18C4(NO3)4
_symmetry_space_group_name_H-M   'P 1'
_cell_length_a   5.78710764
_cell_length_b   8.32550802
_cell_length_c   17.50310556
_cell_angle_alpha   90.00043946
_cell_angle_beta   89.99998437
_cell_angle_gamma   100.68859199
_symmetry_Int_Tables_number   1
_chemical_formula_structural   MnV4H18C4(NO3)4
_chemical_formula_sum   'Mn2 V8 H36 C8 N8 O24'
_cell_volume   828.67867287
_cell_formula_units_Z   2
loop_
 _symmetry_equiv_pos_site_id
 _symmetry_equiv_pos_as_xyz
  1  'x, y, z'
loop_
 _atom_site_type_symbol
 _atom_site_label
 _atom_site_symmetry_multiplicity
 _atom_site_fract_x
 _atom_site_fract_y
 _atom_site_fract_z
 _atom_site_occupancy
 _atom_site_hle17_ddec_charge
 _atom_site_hle17_ddec_spin_density
 _atom_site_hle17_ddec_sum_bond_order
 _atom_site_hle17_magmom
 _atom_site_hse06_10hf_bader_charge
 _atom_site_hse06_10hf_bader_spin_density
 _atom_site_hse06_10hf_ddec_charge
 _atom_site_hse06_10hf_ddec_spin_density
 _atom_site_hse06_10hf_ddec_sum_bond_order
 _atom_site_hse06_10hf_magmom
 _atom_site_hse06_ddec_charge
 _atom_site_hse06_ddec_spin_density
 _atom_site_hse06_ddec_sum_bond_order
 _atom_site_hse06_magmom
 _atom_site_pbe_cm5_charge
 _atom_site_pbe_ddec_charge
 _atom_site_pbe_ddec_spin_density
 _atom_site_pbe_ddec_sum_bond_order
 _atom_site_pbe_magmom
Mn  Mn0  1  0.00000181  0.00000219  0.99999911  1  1.269866  4.630105  2.00549  4.519  1.596208  4.34725  1.199534  4.471626  2.495893  4.312  1.236042  4.597198  2.421697  4.455  0.648361  1.168579  4.34202  2.549456  4.166
Mn  Mn1  1  0.49999585  0.50000092  0.49999959  1  1.269842  4.630116  2.005545  4.519  1.596191  4.347247  1.199508  4.471628  2.495978  4.312  1.235995  4.59723  2.421782  4.455  0.648334  1.168558  4.342027  2.549533  4.166
V  V2  1  0.78003405  0.86386193  0.17675646  1  1.953221  0.084849  3.042173  0.098  2.158951  0.104479  2.002985  0.093265  3.453793  0.109  2.103318  0.075328  3.418949  0.089  1.437188  1.920439  0.11136  3.502882  0.128
V  V3  1  0.71996745  0.63614643  0.67675189  1  1.953077  0.084841  3.042438  0.098  2.158345  0.104488  2.002999  0.093272  3.453872  0.109  2.103186  0.075369  3.419226  0.09  1.437182  1.920439  0.111387  3.502969  0.128
V  V4  1  0.21997007  0.13614110  0.82324329  1  1.953239  0.084919  3.042098  0.098  2.158831  0.104488  2.003068  0.093273  3.453621  0.109  2.103353  0.075373  3.418856  0.09  1.437214  1.920522  0.111388  3.502702  0.128
V  V5  1  0.28002252  0.36385541  0.32324557  1  1.953211  0.084893  3.042261  0.098  2.158666  0.104492  2.003037  0.093276  3.453796  0.109  2.103292  0.075361  3.419066  0.09  1.437208  1.920499  0.111385  3.502864  0.128
V  V6  1  0.78207002  0.29238164  0.88737846  1  1.957277  0.12452  2.990502  0.143  2.160837  0.141196  2.012314  0.127032  3.386121  0.146  2.104527  0.109875  3.365074  0.129  1.429378  1.933518  0.142642  3.430926  0.163
V  V7  1  0.71791510  0.20761799  0.38738246  1  1.957311  0.124478  2.990683  0.142  2.160756  0.141135  2.012594  0.126975  3.385985  0.146  2.10458  0.109823  3.365263  0.129  1.429491  1.933825  0.142587  3.430754  0.163
V  V8  1  0.21793377  0.70762017  0.11262187  1  1.957392  0.124532  2.990242  0.143  2.160798  0.141185  2.012355  0.12702  3.385983  0.146  2.104657  0.10989  3.364774  0.129  1.429397  1.933581  0.142629  3.430737  0.163
V  V9  1  0.28207281  0.79238264  0.61262072  1  1.957272  0.124475  2.99063  0.142  2.16076  0.141192  2.012411  0.127027  3.38615  0.146  2.104527  0.109825  3.365223  0.129  1.429394  1.933597  0.14263  3.430972  0.163
H  H10  1  0.62433508  0.75922490  0.01671953  1  0.26995  6.4e-05  0.946064  0.001  0.425549  0.001681  0.257877  0.000983  1.01607  0.001  0.261818  0.000822  1.014769  0.001  0.290797  0.255615  0.001108  1.015506  0.002
H  H11  1  0.87566659  0.74077713  0.51672219  1  0.269955  6.4e-05  0.946038  0.001  0.426109  0.00168  0.257884  0.000982  1.016044  0.001  0.261822  0.000821  1.014743  0.001  0.290814  0.255623  0.001107  1.015476  0.002
H  H12  1  0.37567043  0.24077690  0.98327965  1  0.269884  6.3e-05  0.946123  0.001  0.425513  0.001681  0.257814  0.000983  1.01613  0.001  0.261755  0.000822  1.014826  0.001  0.290769  0.255552  0.001108  1.015564  0.002
H  H13  1  0.12433480  0.25922224  0.48327813  1  0.269933  6.4e-05  0.946077  0.001  0.426136  0.00168  0.257864  0.000983  1.016076  0.001  0.261807  0.000822  1.014768  0.001  0.290787  0.255602  0.001107  1.015511  0.002
H  H14  1  0.81086280  0.67876848  0.96427008  1  0.308262  -0.000178  0.917982  0.001  0.458429  0.001512  0.305474  0.000498  0.963709  0.001  0.310887  0.00034  0.96038  0.001  0.292649  0.301654  0.000624  0.965844  0.002
H  H15  1  0.68913910  0.82123609  0.46427336  1  0.308346  -0.000179  0.917917  0.001  0.458417  0.001513  0.305574  0.000498  0.963614  0.001  0.310984  0.00034  0.960288  0.001  0.292679  0.301755  0.000624  0.965747  0.002
H  H16  1  0.18913992  0.32123577  0.03572909  1  0.308355  -0.00018  0.917878  0.001  0.458427  0.001512  0.305576  0.000498  0.963579  0.001  0.31099  0.000339  0.960248  0.001  0.292702  0.301755  0.000624  0.965716  0.002
H  H17  1  0.31086262  0.17876450  0.53572753  1  0.308324  -0.000179  0.917939  0.001  0.458396  0.001512  0.305549  0.000498  0.963634  0.001  0.310959  0.00034  0.960307  0.001  0.292667  0.301729  0.000624  0.965768  0.002
H  H18  1  0.70967961  0.81080769  0.85198740  1  0.059496  -0.000272  0.928609  0.0  0.049919  0.000187  0.075028  -0.000202  0.992819  0.0  0.074864  -0.000243  0.993145  0.0  0.108241  0.075281  -0.000145  0.992474  0.0
H  H19  1  0.79031744  0.68919136  0.35198962  1  0.059525  -0.000274  0.928659  0.0  0.049899  0.000187  0.075039  -0.000202  0.992858  0.0  0.074881  -0.000243  0.993179  0.0  0.108221  0.075289  -0.000145  0.992517  0.0
H  H20  1  0.29031760  0.18919535  0.14801235  1  0.059495  -0.000268  0.928638  0.0  0.049918  0.000187  0.075012  -0.000202  0.992871  0.0  0.07485  -0.000243  0.993195  0.0  0.108222  0.075266  -0.000145  0.992528  0.0
H  H21  1  0.20968156  0.31080557  0.64801070  1  0.059531  -0.000267  0.928666  0.0  0.049889  0.000187  0.075029  -0.000202  0.992884  0.0  0.074866  -0.000243  0.99321  0.0  0.108236  0.075283  -0.000145  0.992541  0.0
H  H22  1  0.52293361  0.91056535  0.90789595  1  0.063964  -0.000619  0.961602  0.0  0.075312  0.00034  0.075547  -0.000589  1.032814  0.0  0.076326  -0.000616  1.032601  0.0  0.110091  0.075267  -0.000535  1.032538  0.0
H  H23  1  0.97706331  0.58943341  0.40789894  1  0.064022  -0.00062  0.961611  0.0  0.075118  0.00034  0.075561  -0.000589  1.032843  0.0  0.07634  -0.000616  1.032633  0.0  0.110096  0.075283  -0.000535  1.032563  0.0
H  H24  1  0.47706227  0.08943281  0.09210437  1  0.06397  -0.000617  0.961587  0.0  0.075315  0.00034  0.07555  -0.000589  1.032797  0.0  0.076328  -0.000616  1.032588  0.0  0.110095  0.075273  -0.000535  1.032522  0.0
H  H25  1  0.02293569  0.41056352  0.59210253  1  0.063985  -0.000617  0.961626  0.0  0.075146  0.00034  0.075573  -0.000589  1.032805  0.0  0.076351  -0.000616  1.032595  0.0  0.110081  0.075295  -0.000535  1.032529  0.0
H  H26  1  0.28509405  0.62972470  0.94316005  1  0.083687  -0.00029  0.948361  0.0  0.120728  0.000287  0.096079  -0.000183  1.014873  0.0  0.097937  -0.000202  1.013682  0.0  0.113555  0.094767  -0.000166  1.015625  0.0
H  H27  1  0.21490962  0.87027504  0.44316122  1  0.083765  -0.000292  0.948301  0.0  0.120756  0.000287  0.096211  -0.000183  1.014794  0.0  0.098078  -0.000203  1.013602  0.0  0.113576  0.0949  -0.000166  1.015542  0.0
H  H28  1  0.71490807  0.37027099  0.05684027  1  0.083709  -0.000293  0.948301  0.0  0.1208  0.000287  0.096112  -0.000183  1.014805  0.0  0.097973  -0.000202  1.013613  0.0  0.113553  0.0948  -0.000166  1.015556  0.0
H  H29  1  0.78509004  0.12972434  0.55683853  1  0.083752  -0.000296  0.948316  0.0  0.120754  0.000287  0.096172  -0.000183  1.014836  0.0  0.098039  -0.000203  1.013641  0.0  0.113565  0.09486  -0.000166  1.015585  0.0
H  H30  1  0.44983121  0.54293198  0.87291406  1  0.085745  -0.000139  0.958569  0.0  0.09962  1.2e-05  0.09915  -9.6e-05  1.022757  0.0  0.100534  -8.5e-05  1.022255  0.0  0.109645  0.098195  -0.0001  1.022932  0.0
H  H31  1  0.05017049  0.95706659  0.37291613  1  0.085744  -0.000143  0.958559  0.0  0.09962  1.2e-05  0.099175  -9.6e-05  1.022742  0.0  0.100559  -8.5e-05  1.022238  0.0  0.109647  0.098221  -0.0001  1.022915  0.0
H  H32  1  0.55017158  0.45706616  0.12708454  1  0.085754  -0.000145  0.958577  0.0  0.099612  1.2e-05  0.099168  -9.6e-05  1.022753  0.0  0.100553  -8.5e-05  1.022251  0.0  0.109653  0.098212  -0.0001  1.02293  0.0
H  H33  1  0.94982884  0.04293156  0.62708362  1  0.085753  -0.000144  0.958553  0.0  0.09957  1.2e-05  0.09919  -9.6e-05  1.022719  0.0  0.100574  -8.6e-05  1.022216  0.0  0.109638  0.098235  -0.0001  1.022894  0.0
H  H34  1  0.17518675  0.80669436  0.84757105  1  0.333546  -0.000603  0.896247  0.0  0.540781  0.000396  0.31647  -0.000599  0.956059  0.0  0.324896  -0.000603  0.950148  0.0  0.307364  0.310647  -0.000554  0.959983  0.0
H  H35  1  0.32481347  0.69330502  0.34757157  1  0.333553  -0.000602  0.896234  0.0  0.540748  0.000396  0.316491  -0.000599  0.956035  0.0  0.324917  -0.000603  0.950124  0.0  0.307359  0.310667  -0.000554  0.959958  0.0
H  H36  1  0.82481703  0.19330744  0.15242984  1  0.33357  -0.000601  0.896173  0.0  0.540789  0.000396  0.316483  -0.000599  0.956003  0.0  0.324909  -0.000603  0.95009  0.0  0.307366  0.310659  -0.000554  0.959927  0.0
H  H37  1  0.67518619  0.30669435  0.65242818  1  0.333566  -0.000601  0.896234  0.0  0.540818  0.000396  0.316477  -0.000599  0.956059  0.0  0.324905  -0.000603  0.950148  0.0  0.307349  0.310653  -0.000554  0.959984  0.0
H  H38  1  0.07625714  0.60913805  0.82529351  1  0.339996  -1.2e-05  0.857889  0.0  0.506471  0.000124  0.324023  3.4e-05  0.915426  0.0  0.331697  1.3e-05  0.908872  0.0  0.314875  0.318632  5.7e-05  0.920136  0.0
H  H39  1  0.42374127  0.89086097  0.32529531  1  0.340023  -1.1e-05  0.857874  0.0  0.506489  0.000124  0.32407  3.4e-05  0.915395  0.0  0.331745  1.3e-05  0.908841  0.0  0.314887  0.318679  5.7e-05  0.920105  0.0
H  H40  1  0.92374458  0.39086254  0.17470567  1  0.340013  -9e-06  0.857901  0.0  0.506455  0.000124  0.32405  3.5e-05  0.915416  0.0  0.331725  1.3e-05  0.908862  0.0  0.314878  0.318659  5.6e-05  0.920128  0.0
H  H41  1  0.57625806  0.10913718  0.67470501  1  0.340049  -1.1e-05  0.857857  0.0  0.506472  0.000124  0.32407  3.5e-05  0.915389  0.0  0.331748  1.3e-05  0.908834  0.0  0.314873  0.318679  5.7e-05  0.9201  0.0
H  H42  1  0.31111037  0.71596649  0.77799923  1  0.335903  -8.3e-05  0.883788  0.0  0.509195  5e-05  0.320942  -5.9e-05  0.939995  0.0  0.328929  -5.3e-05  0.933551  0.0  0.309741  0.315362  -5.2e-05  0.944276  0.0
H  H43  1  0.18888994  0.78403296  0.27800009  1  0.335941  -8.3e-05  0.883763  0.0  0.509111  5e-05  0.320992  -5.9e-05  0.939973  0.0  0.328985  -5.2e-05  0.933522  0.0  0.309745  0.315413  -5.2e-05  0.944253  0.0
H  H44  1  0.68889514  0.28403531  0.22200167  1  0.335898  -8.2e-05  0.883802  0.0  0.509211  5e-05  0.320935  -5.9e-05  0.940018  0.0  0.328924  -5.3e-05  0.933569  0.0  0.309719  0.315355  -5.2e-05  0.9443  0.0
H  H45  1  0.81111145  0.21596641  0.72200024  1  0.335964  -8.1e-05  0.883761  0.0  0.509203  5e-05  0.320997  -5.9e-05  0.939969  0.0  0.32899  -5.3e-05  0.933518  0.0  0.30975  0.315417  -5.2e-05  0.94425  0.0
C  C46  1  0.59237653  0.79735535  0.90185796  1  0.059678  0.000498  3.637495  0.0  0.291546  0.002094  0.007724  0.001469  3.897964  0.001  0.012136  0.001168  3.910759  0.001  -0.068972  0.004449  0.001727  3.888616  0.001
C  C47  1  0.90762070  0.70264453  0.40186079  1  0.059523  0.000482  3.63766  0.0  0.291842  0.002098  0.007685  0.001474  3.898087  0.001  0.01209  0.001164  3.910885  0.001  -0.068937  0.004404  0.001727  3.888759  0.001
C  C48  1  0.40762207  0.20264647  0.09814122  1  0.059665  0.000467  3.637525  0.0  0.291596  0.002096  0.007713  0.001472  3.898023  0.001  0.012126  0.001166  3.910815  0.001  -0.068944  0.004447  0.001727  3.888652  0.001
C  C49  1  0.09237864  0.29735362  0.59814011  1  0.059582  0.000465  3.637662  0.0  0.291832  0.002097  0.007709  0.001473  3.898083  0.001  0.012119  0.001165  3.910881  0.001  -0.068946  0.004436  0.001727  3.888729  0.001
C  C50  1  0.38894571  0.65414290  0.89067683  1  0.033628  0.000806  3.522698  0.001  0.20473  0.001798  -0.023059  0.001032  3.774434  0.001  -0.020055  0.000851  3.784542  0.001  -0.06519  -0.024889  0.001204  3.767731  0.001
C  C51  1  0.11105984  0.84585719  0.39067792  1  0.033633  0.000831  3.522846  0.001  0.204737  0.001795  -0.023162  0.001029  3.774689  0.001  -0.020167  0.000853  3.784808  0.001  -0.065197  -0.024992  0.001204  3.767978  0.001
C  C52  1  0.61106086  0.34585645  0.10932406  1  0.033591  0.000839  3.522744  0.001  0.204682  0.001795  -0.023113  0.00103  3.774501  0.001  -0.02011  0.000853  3.784604  0.001  -0.065217  -0.024942  0.001204  3.7678  0.001
C  C53  1  0.88894122  0.15414096  0.60932240  1  0.033612  0.000845  3.522782  0.001  0.204765  0.001796  -0.023193  0.00103  3.774586  0.001  -0.020191  0.000854  3.784702  0.001  -0.065194  -0.025021  0.001204  3.767881  0.001
N  N54  1  0.73338772  0.78023973  0.97019322  1  -0.631461  0.026286  3.064518  0.013  -1.171926  0.039887  -0.588044  0.02954  3.303825  0.012  -0.609586  0.028608  3.301951  0.011  -0.619204  -0.56986  0.030307  3.302958  0.014
N  N55  1  0.76660975  0.71976128  0.47019670  1  -0.631543  0.026307  3.064526  0.013  -1.172555  0.039886  -0.588182  0.029542  3.303871  0.012  -0.609723  0.028615  3.302005  0.011  -0.619267  -0.569997  0.030313  3.302999  0.014
N  N56  1  0.26661228  0.21976086  0.02980481  1  -0.631479  0.026307  3.064485  0.013  -1.171921  0.039889  -0.588084  0.029541  3.303828  0.012  -0.609626  0.028613  3.301953  0.011  -0.61924  -0.5699  0.03031  3.302965  0.014
N  N57  1  0.23338958  0.28023687  0.52980420  1  -0.631488  0.026306  3.064525  0.013  -1.172549  0.039889  -0.588135  0.029542  3.303888  0.012  -0.609679  0.028613  3.30202  0.011  -0.619212  -0.56995  0.030312  3.303021  0.014
N  N58  1  0.22723402  0.69725708  0.83080297  1  -0.48791  0.000128  3.166881  0.0  -1.193325  0.000849  -0.432607  0.00044  3.3501  0.001  -0.44809  0.000377  3.347023  0.0  -0.607623  -0.422087  0.00057  3.352636  0.001
N  N59  1  0.27276269  0.80274203  0.33080560  1  -0.487977  0.00011  3.16694  0.0  -1.193267  0.000852  -0.432744  0.000442  3.350302  0.001  -0.448226  0.000376  3.347212  0.0  -0.607664  -0.422223  0.00057  3.35284  0.001
N  N60  1  0.77276804  0.30274473  0.16919678  1  -0.487934  0.000103  3.166868  0.0  -1.193298  0.000851  -0.432625  0.000442  3.350113  0.001  -0.44811  0.000376  3.347041  0.0  -0.607598  -0.422105  0.00057  3.352646  0.001
N  N61  1  0.72723664  0.19725612  0.66919586  1  -0.488062  0.000102  3.166906  0.0  -1.19336  0.000851  -0.432703  0.000442  3.350135  0.001  -0.448204  0.000376  3.347071  0.0  -0.607626  -0.422183  0.00057  3.352673  0.001
O  O62  1  0.86055486  0.01305154  0.11054837  1  -0.911899  0.001567  1.612289  -0.018  -1.035535  0.016392  -0.902186  0.012022  1.919587  -0.013  -0.940077  0.007966  1.905765  -0.018  -0.599286  -0.872233  0.017936  1.930687  -0.007
O  O63  1  0.63944755  0.48694711  0.61054451  1  -0.911885  0.001574  1.612364  -0.018  -1.035362  0.016398  -0.902212  0.012019  1.919619  -0.013  -0.940062  0.007964  1.905821  -0.018  -0.599325  -0.872254  0.017932  1.930718  -0.007
O  O64  1  0.13945098  0.98695148  0.88945252  1  -0.911911  0.001553  1.612245  -0.019  -1.035464  0.016393  -0.902252  0.012021  1.919585  -0.013  -0.940129  0.007963  1.905763  -0.018  -0.599305  -0.872296  0.017933  1.930683  -0.007
O  O65  1  0.36054972  0.51304982  0.38945295  1  -0.911933  0.001562  1.612392  -0.019  -1.035467  0.016391  -0.902196  0.012019  1.919663  -0.013  -0.940069  0.007971  1.905853  -0.018  -0.599281  -0.872238  0.017934  1.930754  -0.007
O  O66  1  0.79379640  0.15777482  0.95861186  1  -0.877768  -0.019878  1.525129  -0.038  -0.99222  0.004504  -0.88112  -0.002292  1.841949  -0.027  -0.915686  -0.012601  1.828188  -0.038  -0.602023  -0.852778  0.010485  1.853878  -0.014
O  O67  1  0.70619866  0.34222352  0.45860950  1  -0.877703  -0.01986  1.525212  -0.038  -0.992129  0.004521  -0.881107  -0.002271  1.841978  -0.027  -0.915599  -0.012569  1.828246  -0.038  -0.602052  -0.852774  0.010497  1.853905  -0.014
O  O68  1  0.20620360  0.84222578  0.04138847  1  -0.877794  -0.019904  1.525071  -0.038  -0.992162  0.004502  -0.881128  -0.002285  1.841893  -0.027  -0.915716  -0.012613  1.828111  -0.038  -0.602013  -0.85279  0.010486  1.853819  -0.014
O  O69  1  0.29379104  0.65777098  0.54139025  1  -0.877756  -0.019869  1.525199  -0.038  -0.992179  0.004505  -0.881145  -0.002286  1.842006  -0.027  -0.915681  -0.012568  1.828263  -0.038  -0.602015  -0.852797  0.010492  1.853937  -0.014
O  O70  1  0.72282925  0.94852512  0.25722577  1  -0.800941  -0.008514  1.314074  -0.008  -0.899219  0.002304  -0.818946  0.00042  1.579762  0.0  -0.84967  -0.002404  1.570775  -0.003  -0.60563  -0.794657  0.002573  1.588996  0.002
O  O71  1  0.77716535  0.55147726  0.75722317  1  -0.80082  -0.008498  1.314005  -0.008  -0.89913  0.002314  -0.818906  0.000429  1.579693  0.0  -0.849592  -0.002425  1.570752  -0.003  -0.605589  -0.794613  0.002574  1.588924  0.002
O  O72  1  0.27717075  0.05147547  0.74277398  1  -0.800901  -0.008554  1.31412  -0.008  -0.899216  0.002315  -0.818921  0.000431  1.579798  0.0  -0.849633  -0.002429  1.570825  -0.003  -0.605605  -0.794634  0.002573  1.589033  0.002
O  O73  1  0.22283710  0.44851966  0.24277315  1  -0.800897  -0.008541  1.314007  -0.008  -0.899186  0.00231  -0.818945  0.000426  1.579705  0.0  -0.849669  -0.002425  1.570774  -0.003  -0.605635  -0.794667  0.002573  1.588945  0.002
O  O74  1  0.02421931  0.75653192  0.18864733  1  -1.016872  -0.004184  1.598002  -0.006  -1.114864  0.004356  -1.032103  0.002093  1.896798  -0.002  -1.075313  -0.000662  1.885688  -0.003  -0.685919  -0.995571  0.005216  1.908373  0.001
O  O75  1  0.47578820  0.74347459  0.68864484  1  -1.01673  -0.004179  1.598131  -0.006  -1.11485  0.00436  -1.032041  0.002097  1.89688  -0.002  -1.075158  -0.000667  1.885809  -0.003  -0.685895  -0.995499  0.005217  1.908462  0.001
O  O76  1  0.97578135  0.24347111  0.81135242  1  -1.016824  -0.004186  1.598009  -0.006  -1.114868  0.004359  -1.03209  0.002096  1.89679  -0.002  -1.075266  -0.000668  1.885698  -0.003  -0.685899  -0.995556  0.005216  1.908369  0.001
O  O77  1  0.52420223  0.25651625  0.31135662  1  -1.016731  -0.004186  1.598026  -0.006  -1.114847  0.004359  -1.032067  0.002097  1.896803  -0.002  -1.075171  -0.000671  1.885737  -0.003  -0.685905  -0.995541  0.005215  1.908375  0.001
O  O78  1  0.52179831  0.72912209  0.14295880  1  -1.012695  -0.003646  1.624909  -0.005  -1.097593  0.004334  -1.032394  0.002079  1.937722  0.0  -1.077449  -0.000163  1.928006  -0.002  -0.696735  -0.994497  0.004402  1.948713  0.001
O  O79  1  0.97821377  0.77088690  0.64296155  1  -1.012708  -0.003644  1.625163  -0.005  -1.09724  0.004335  -1.032469  0.002083  1.937886  0.0  -1.077436  -0.000164  1.928216  -0.002  -0.696759  -0.994559  0.004403  1.948884  0.001
O  O80  1  0.47820960  0.27088215  0.85703924  1  -1.012726  -0.003653  1.625031  -0.005  -1.097478  0.004336  -1.032445  0.002082  1.937799  0.0  -1.077465  -0.000165  1.928103  -0.002  -0.696777  -0.994544  0.004403  1.948792  0.001
O  O81  1  0.02177893  0.22911860  0.35703877  1  -1.012779  -0.003648  1.625176  -0.005  -1.097312  0.004335  -1.032555  0.002083  1.937902  0.0  -1.07751  -0.000165  1.928238  -0.002  -0.696777  -0.994661  0.004403  1.948888  0.001
O  O82  1  0.87452070  0.47705520  0.92083628  1  -0.779831  -0.015359  1.338698  -0.014  -0.895568  -0.000413  -0.782932  -0.002713  1.587796  -0.003  -0.810026  -0.006328  1.578962  -0.006  -0.597126  -0.761573  0.00032  1.597965  0.0
O  O83  1  0.62546659  0.02294621  0.42084419  1  -0.779891  -0.015355  1.33875  -0.014  -0.895665  -0.000408  -0.783086  -0.002707  1.587793  -0.003  -0.810122  -0.006323  1.579012  -0.006  -0.597173  -0.761735  0.000324  1.597964  0.0
O  O84  1  0.12548202  0.52294906  0.07916461  1  -0.77987  -0.01535  1.3387  -0.014  -0.895493  -0.00042  -0.782964  -0.002719  1.587841  -0.003  -0.810083  -0.006327  1.578984  -0.006  -0.597148  -0.761598  0.00032  1.597988  0.0
O  O85  1  0.37452550  0.97705074  0.57916127  1  -0.77983  -0.015327  1.338772  -0.014  -0.895518  -0.000414  -0.782981  -0.002714  1.587864  -0.003  -0.810048  -0.006319  1.579058  -0.006  -0.59713  -0.761613  0.000322  1.598037  0.0
