# generated using pymatgen
data_ZnH17C26N2(ClO2)3
_symmetry_space_group_name_H-M   'P 1'
_cell_length_a   12.66845884
_cell_length_b   13.88046176
_cell_length_c   23.51628886
_cell_angle_alpha   89.81128681
_cell_angle_beta   91.91409263
_cell_angle_gamma   94.24427780
_symmetry_Int_Tables_number   1
_chemical_formula_structural   ZnH17C26N2(ClO2)3
_chemical_formula_sum   'Zn2 H34 C52 N4 Cl6 O12'
_cell_volume   4121.55683981
_cell_formula_units_Z   2
loop_
 _symmetry_equiv_pos_site_id
 _symmetry_equiv_pos_as_xyz
  1  'x, y, z'
loop_
 _atom_site_type_symbol
 _atom_site_label
 _atom_site_symmetry_multiplicity
 _atom_site_fract_x
 _atom_site_fract_y
 _atom_site_fract_z
 _atom_site_occupancy
 _atom_site_pbe_bader_charge
 _atom_site_pbe_bader_spin_density
 _atom_site_pbe_cm5_charge
 _atom_site_pbe_ddec_charge
 _atom_site_pbe_ddec_spin_density
 _atom_site_pbe_ddec_sum_bond_order
 _atom_site_pbe_magmom
Zn  Zn0  1  0.60960971  0.49510826  0.50559175  1  1.317241  0  0.686931  0.888375  0  2.429702  0
Zn  Zn1  1  0.39038806  0.50489976  0.49440719  1  1.31811  0  0.686896  0.888224  0  2.429936  0
H  H2  1  0.55727576  0.32144059  0.21895195  1  0.085475  0  0.113476  0.127887  0  0.976672  0
H  H3  1  0.44274371  0.67856238  0.78104784  1  0.085672  0  0.113461  0.127901  0  0.976589  0
H  H4  1  0.99315042  0.57741871  0.45203852  1  0.171327  0  0.161292  0.173816  0  0.916383  0
H  H5  1  0.00685052  0.42257855  0.54794518  1  0.171653  0  0.16118  0.173705  0  0.916436  0
H  H6  1  0.72670627  0.75323000  0.92412206  1  0.040573  0  0.088881  0.123489  0  1.009119  0
H  H7  1  0.80540559  0.74068878  0.98749759  1  0.009088  0  0.083803  0.106657  0  1.016089  0
H  H8  1  0.86569345  0.74633528  0.92014497  1  0.004696  0  0.089517  0.119636  0  0.992995  0
H  H9  1  0.84875783  0.57477564  0.95302822  1  0.042666  0  0.091149  0.083161  0  1.021944  0
H  H10  1  0.76912501  0.59070736  0.89124099  1  0.085345  0  0.099938  0.109164  0  1.003489  0
H  H11  1  0.19459767  0.25932863  0.01250315  1  0.009307  0  0.083765  0.106638  0  1.016123  0
H  H12  1  0.27329957  0.24678019  0.07587747  1  0.040582  0  0.088922  0.123552  0  1.00911  0
H  H13  1  0.13431431  0.25367923  0.07985714  1  0.004957  0  0.089541  0.119665  0  0.993071  0
H  H14  1  0.23088724  0.40930425  0.10876249  1  0.085395  0  0.099878  0.109097  0  1.003557  0
H  H15  1  0.15125635  0.42524031  0.04697615  1  0.042797  0  0.091123  0.083134  0  1.022028  0
H  H16  1  0.81257960  0.39952067  0.07085409  1  0.031769  0  0.087077  0.114838  0  0.999579  0
H  H17  1  0.85690516  0.43415608  0.00245790  1  0.02809  0  0.083313  0.104654  0  1.016452  0
H  H18  1  0.93873448  0.46285455  0.06400112  1  0.032148  0  0.089355  0.118839  0  1.000113  0
H  H19  1  0.85486140  0.61151679  0.03331371  1  0.039766  0  0.094553  0.09435  0  1.010444  0
H  H20  1  0.80330617  0.57160506  0.09870206  1  0.102534  0  0.102188  0.122237  0  1.028241  0
H  H21  1  0.14310924  0.56587284  0.99755284  1  0.028025  0  0.083412  0.104665  0  1.01639  0
H  H22  1  0.18743227  0.60051619  0.92915873  1  0.031959  0  0.087059  0.11487  0  0.999566  0
H  H23  1  0.06127790  0.53717870  0.93601043  1  0.03171  0  0.089241  0.118705  0  0.999857  0
H  H24  1  0.19670294  0.42843617  0.90130220  1  0.102923  0  0.10219  0.122275  0  1.028271  0
H  H25  1  0.14514769  0.38851433  0.96668927  1  0.039592  0  0.094589  0.094452  0  1.010472  0
H  H26  1  0.39725332  0.28826445  0.37190192  1  0.028368  0  0.084944  0.123273  0  1.006254  0
H  H27  1  0.40183098  0.22278690  0.30739291  1  0.036712  0  0.086712  0.115588  0  0.998685  0
H  H28  1  0.45891852  0.17729698  0.37146046  1  0.030826  0  0.083046  0.11249  0  1.013584  0
H  H29  1  0.60108238  0.25059501  0.30967561  1  0.030248  0  0.093145  0.087585  0  0.973754  0
H  H30  1  0.59746817  0.31510800  0.37414487  1  0.0468  0  0.092981  0.098606  0  0.988956  0
H  H31  1  0.59818275  0.77721386  0.69261443  1  0.036354  0  0.086696  0.115612  0  0.998437  0
H  H32  1  0.60276988  0.71173631  0.62810603  1  0.028423  0  0.084898  0.123214  0  1.006314  0
H  H33  1  0.54110792  0.82270453  0.62854372  1  0.03119  0  0.083011  0.112447  0  1.013642  0
H  H34  1  0.40255477  0.68489859  0.62585287  1  0.046825  0  0.093059  0.098648  0  0.988869  0
H  H35  1  0.39893249  0.74940941  0.69032197  1  0.030324  0  0.093155  0.087612  0  0.973707  0
C  C36  1  0.53759939  0.68598275  0.49049689  1  1.727793  0  0.219033  0.651178  0  4.261912  0
C  C37  1  0.46239586  0.31402311  0.50949946  1  1.72765  0  0.219076  0.651345  0  4.261564  0
C  C38  1  0.54193277  0.38772040  0.24096701  1  0.039246  0  -0.082364  -0.198591  0  3.951888  0
C  C39  1  0.45808010  0.61227895  0.75903224  1  0.038359  0  -0.082276  -0.198513  0  3.951804  0
C  C40  1  0.53959574  0.38905471  0.30035897  1  0.066509  0  0.00099  0.124873  0  3.926762  0
C  C41  1  0.46041178  0.61094681  0.69964016  1  0.067337  0  0.000907  0.124724  0  3.926808  0
C  C42  1  0.51915609  0.47590125  0.32711099  1  -0.013754  0  -0.012492  -0.120838  0  3.908231  0
C  C43  1  0.48083775  0.52409736  0.67289043  1  -0.013624  0  -0.012362  -0.120614  0  3.908163  0
C  C44  1  0.50093677  0.55865960  0.29495998  1  0.094678  0  0.011744  0.076577  0  4.031993  0
C  C45  1  0.49904241  0.44133324  0.70503861  1  0.093896  0  0.011564  0.076344  0  4.032222  0
C  C46  1  0.50140294  0.55559182  0.23534592  1  0.100163  0  0.009471  0.01465  0  4.024263  0
C  C47  1  0.49858224  0.44440682  0.76465065  1  0.100353  0  0.009667  0.015024  0  4.023604  0
C  C48  1  0.52339365  0.46929400  0.20879286  1  0.406984  0  0.084837  0.149354  0  4.046848  0
C  C49  1  0.47661052  0.53070535  0.79120791  1  0.407413  0  0.084732  0.149064  0  4.046515  0
C  C50  1  0.45287545  0.20992337  0.51204206  1  0.238259  0  -0.017478  -0.113492  0  3.88793  0
C  C51  1  0.54710160  0.79008179  0.48794840  1  0.238711  0  -0.017573  -0.113432  0  3.887786  0
C  C52  1  0.45721995  0.02218067  0.50970372  1  0.241037  0  0.022717  0.098999  0  4.11491  0
C  C53  1  0.54269496  0.97781728  0.49027830  1  0.159776  0  0.022717  0.099217  0  4.11482  0
C  C54  1  0.54746961  0.87796093  0.48853455  1  -0.437354  0  -0.041103  -0.0643  0  4.167145  0
C  C55  1  0.45246532  0.12204063  0.51144871  1  -0.436719  0  -0.041234  -0.064175  0  4.167265  0
C  C56  1  0.97082733  0.47155886  0.51787811  1  0.141368  0  -0.004127  -0.074746  0  3.931631  0
C  C57  1  0.02917569  0.52843478  0.48210479  1  0.217057  0  -0.004005  -0.074819  0  3.931763  0
C  C58  1  0.51502333  0.48153155  0.39094217  1  1.618709  0  0.219057  0.620176  0  4.178241  0
C  C59  1  0.48496900  0.51846780  0.60905667  1  1.618167  0  0.219018  0.620072  0  4.178382  0
C  C60  1  0.14045082  0.52613439  0.48252519  1  0.789016  0  0.258242  0.338986  0  3.922715  0
C  C61  1  0.85954853  0.47386285  0.51746061  1  0.789581  0  0.258412  0.339122  0  3.922408  0
C  C62  1  0.38819364  0.48855326  0.87851026  1  1.269496  0  0.242232  0.444993  0  4.089181  0
C  C63  1  0.61181499  0.51145257  0.12149357  1  1.269082  0  0.242155  0.444979  0  4.089044  0
C  C64  1  0.56618876  0.57977588  0.88043894  1  1.328969  0  0.247604  0.454689  0  4.073664  0
C  C65  1  0.43382861  0.42022999  0.11955741  1  1.328658  0  0.247622  0.454779  0  4.073569  0
C  C66  1  0.58227035  0.55217716  0.94087157  1  0.00461  0  -0.007191  -0.121388  0  3.945877  0
C  C67  1  0.41774675  0.44782580  0.05912903  1  0.004336  0  -0.00724  -0.121433  0  3.946089  0
C  C68  1  0.49404888  0.50882701  0.97023633  1  -0.021119  0  -0.002166  0.029732  0  4.010383  0
C  C69  1  0.50596901  0.49117595  0.02976471  1  0.036236  0  -0.002298  0.030001  0  4.010539  0
C  C70  1  0.39378455  0.48511035  0.94190458  1  0.032594  0  -0.007792  -0.123142  0  3.91771  0
C  C71  1  0.60623217  0.51489766  0.05809686  1  0.031822  0  -0.007645  -0.123015  0  3.917689  0
C  C72  1  0.68262354  0.56755949  0.96780200  1  -0.022792  0  0.018987  0.082912  0  3.830191  0
C  C73  1  0.31739097  0.43245069  0.03220110  1  -0.02216  0  0.019102  0.082871  0  3.830193  0
C  C74  1  0.69529299  0.54646522  0.02713668  1  0.022222  0  0.021064  0.096617  0  3.818411  0
C  C75  1  0.30472047  0.45355145  0.97286681  1  0.021128  0  0.020956  0.096752  0  3.818286  0
C  C76  1  0.77825949  0.60838446  0.93648740  1  -0.033124  0  -0.166137  -0.165968  0  3.985232  0
C  C77  1  0.79505904  0.71879563  0.94265089  1  -0.014801  0  -0.240775  -0.345679  0  3.951512  0
C  C78  1  0.22175126  0.39162788  0.06351478  1  -0.03337  0  -0.165961  -0.165815  0  3.985431  0
C  C79  1  0.20494713  0.28121888  0.05735204  1  -0.015335  0  -0.240874  -0.345802  0  3.951785  0
C  C80  1  0.80593500  0.55373088  0.05366085  1  -0.024902  0  -0.171062  -0.182657  0  3.966531  0
C  C81  1  0.85654360  0.45695710  0.04720224  1  -0.078702  0  -0.237464  -0.337541  0  3.948723  0
C  C82  1  0.19407668  0.44630312  0.94634516  1  -0.026016  0  -0.171073  -0.182832  0  3.966938  0
C  C83  1  0.14347350  0.54307613  0.95281238  1  -0.07692  0  -0.237431  -0.337438  0  3.948548  0
C  C84  1  0.55310026  0.29772989  0.33405720  1  -0.003749  0  -0.159804  -0.146203  0  3.966556  0
C  C85  1  0.44643683  0.24325361  0.34695091  1  -0.063081  0  -0.244161  -0.349152  0  3.940726  0
C  C86  1  0.44691606  0.70227308  0.66594211  1  -0.003986  0  -0.159872  -0.146314  0  3.96654  0
C  C87  1  0.55358493  0.75674861  0.65305276  1  -0.063374  0  -0.244086  -0.349035  0  3.940581  0
N  N88  1  0.47674978  0.53346421  0.85223515  1  -1.21976  0  -0.242398  -0.234189  0  3.651908  0
N  N89  1  0.52326476  0.46653657  0.14776710  1  -1.220377  0  -0.242279  -0.234329  0  3.65222  0
N  N90  1  0.76817230  0.47622446  0.51691490  1  -1.054873  0  -0.240059  -0.244624  0  3.053311  0
N  N91  1  0.23182844  0.52378070  0.48307730  1  -1.054419  0  -0.239943  -0.244447  0  3.053368  0
Cl  Cl92  1  0.47925644  0.66494035  0.32895026  1  -0.180718  0  -0.007653  -0.054772  0  1.536058  0
Cl  Cl93  1  0.52070767  0.33505177  0.67104761  1  -0.180529  0  -0.007608  -0.054687  0  1.536229  0
Cl  Cl94  1  0.47461895  0.65521996  0.19526793  1  -0.185813  0  -0.011235  -0.063904  0  1.540923  0
Cl  Cl95  1  0.52535823  0.34476782  0.80473104  1  -0.185958  0  -0.011293  -0.064054  0  1.540518  0
Cl  Cl96  1  0.65083491  0.04851513  0.46655024  1  -0.166361  0  0.007261  -0.045154  0  1.414256  0
Cl  Cl97  1  0.34907885  0.95149867  0.53344110  1  -0.16508  0  0.007323  -0.045117  0  1.414268  0
O  O98  1  0.62267858  0.64299383  0.49501145  1  -1.13552  0  -0.311917  -0.534571  0  2.243206  0
O  O99  1  0.37731945  0.35701709  0.50498409  1  -1.135465  0  -0.31194  -0.53466  0  2.243071  0
O  O100  1  0.44277756  0.64816168  0.48873036  1  -1.141312  0  -0.311141  -0.547443  0  2.28109  0
O  O101  1  0.55721967  0.35183982  0.51127240  1  -1.141348  0  -0.311177  -0.547534  0  2.281019  0
O  O102  1  0.60285375  0.48295549  0.41872931  1  -1.149761  0  -0.313453  -0.544763  0  2.294917  0
O  O103  1  0.39713683  0.51704168  0.58126992  1  -1.149464  0  -0.313462  -0.544746  0  2.295007  0
O  O104  1  0.42363733  0.48386098  0.41129431  1  -1.152691  0  -0.313732  -0.552987  0  2.329972  0
O  O105  1  0.57635571  0.51614704  0.58870284  1  -1.152508  0  -0.313679  -0.552964  0  2.330005  0
O  O106  1  0.31452176  0.45386482  0.84776251  1  -1.104961  0  -0.269788  -0.425087  0  2.128001  0
O  O107  1  0.68549054  0.54614750  0.15224394  1  -1.104217  0  -0.269744  -0.425019  0  2.127747  0
O  O108  1  0.62523450  0.63654552  0.85384403  1  -1.107567  0  -0.260108  -0.41748  0  2.123508  0
O  O109  1  0.37477453  0.36345527  0.14615556  1  -1.107101  0  -0.260215  -0.417626  0  2.123227  0
