# generated using pymatgen
data_Cd5H10C20(N4O9)2
_symmetry_space_group_name_H-M   'P 1'
_cell_length_a   10.64639568
_cell_length_b   10.92591350
_cell_length_c   15.83691068
_cell_angle_alpha   90.00001168
_cell_angle_beta   90.00000453
_cell_angle_gamma   97.93972891
_symmetry_Int_Tables_number   1
_chemical_formula_structural   Cd5H10C20(N4O9)2
_chemical_formula_sum   'Cd10 H20 C40 N16 O36'
_cell_volume   1824.51552919
_cell_formula_units_Z   2
loop_
 _symmetry_equiv_pos_site_id
 _symmetry_equiv_pos_as_xyz
  1  'x, y, z'
loop_
 _atom_site_type_symbol
 _atom_site_label
 _atom_site_symmetry_multiplicity
 _atom_site_fract_x
 _atom_site_fract_y
 _atom_site_fract_z
 _atom_site_occupancy
 _atom_site_hle17_bader_spin_density
 _atom_site_hle17_ddec_charge
 _atom_site_hle17_ddec_spin_density
 _atom_site_hle17_ddec_sum_bond_order
 _atom_site_hle17_magmom
 _atom_site_hse06_10hf_bader_spin_density
 _atom_site_hse06_10hf_ddec_charge
 _atom_site_hse06_10hf_ddec_spin_density
 _atom_site_hse06_10hf_ddec_sum_bond_order
 _atom_site_hse06_10hf_magmom
 _atom_site_hse06_bader_spin_density
 _atom_site_hse06_ddec_charge
 _atom_site_hse06_ddec_spin_density
 _atom_site_hse06_ddec_sum_bond_order
 _atom_site_hse06_magmom
 _atom_site_pbe_bader_spin_density
 _atom_site_pbe_cm5_charge
 _atom_site_pbe_ddec_charge
 _atom_site_pbe_ddec_spin_density
 _atom_site_pbe_ddec_sum_bond_order
 _atom_site_pbe_magmom
Cd  Cd0  1  0.83465954  0.42896815  0.45464238  1  0  1.186939  0  1.657695  0  0  0.988794  0  2.104637  0  0  1.044751  0  2.052052  0  0  0.798255  0.94704  0  2.14211  0
Cd  Cd1  1  0.66534060  0.07103144  0.95464265  1  0  1.186935  0  1.657714  0  0  0.988809  0  2.104638  0  0  1.044765  0  2.052054  0  0  0.79826  0.947055  0  2.142112  0
Cd  Cd2  1  0.16534030  0.57103147  0.54535767  1  0  1.186944  0  1.657701  0  0  0.988795  0  2.104652  0  0  1.044753  0  2.052065  0  0  0.798262  0.947043  0  2.142128  0
Cd  Cd3  1  0.33465925  0.92896818  0.04535741  1  0  1.186931  0  1.657707  0  0  0.988782  0  2.104671  0  0  1.044741  0  2.052082  0  0  0.798258  0.947034  0  2.142144  0
Cd  Cd4  1  0.00000024  0.00000018  0.49999969  1  0  1.300718  0  1.675683  0  0  1.145673  0  2.141304  0  0  1.195196  0  2.08266  0  0  0.796729  1.109834  0  2.181598  0
Cd  Cd5  1  0.50000003  0.50000035  0.00000001  1  0  1.30073  0  1.675663  0  0  1.145688  0  2.141285  0  0  1.195211  0  2.08264  0  0  0.796736  1.109844  0  2.181578  0
Cd  Cd6  1  0.57408174  0.15653607  0.54395334  1  0  1.177306  0  1.707957  0  0  0.976474  0  2.16898  0  0  1.031243  0  2.116258  0  0  0.799028  0.936093  0  2.20606  0
Cd  Cd7  1  0.92591846  0.34346432  0.04395307  1  0  1.177315  0  1.707952  0  0  0.976494  0  2.168971  0  0  1.031262  0  2.116252  0  0  0.799036  0.936112  0  2.206042  0
Cd  Cd8  1  0.42591824  0.84346447  0.45604735  1  0  1.177333  0  1.707961  0  0  0.976509  0  2.168982  0  0  1.031278  0  2.116262  0  0  0.799048  0.936127  0  2.206051  0
Cd  Cd9  1  0.07408245  0.65653623  0.95604699  1  0  1.177316  0  1.707935  0  0  0.97649  0  2.168956  0  0  1.031258  0  2.116236  0  0  0.799034  0.936111  0  2.206031  0
H  H10  1  0.53926116  0.54995886  0.41262598  1  0  0.081649  0  0.919934  0  0  0.093642  0  0.978535  0  0  0.095691  0  0.97616  0  0  0.128811  0.092078  0  0.980439  0
H  H11  1  0.96073853  0.95004008  0.91262632  1  0  0.081683  0  0.919901  0  0  0.093674  0  0.978503  0  0  0.095724  0  0.976128  0  0  0.12882  0.092105  0  0.980405  0
H  H12  1  0.46073856  0.45003984  0.58737344  1  0  0.081663  0  0.919935  0  0  0.093655  0  0.978535  0  0  0.095705  0  0.97616  0  0  0.128816  0.092087  0  0.980437  0
H  H13  1  0.03926038  0.04995953  0.08737374  1  0  0.081659  0  0.919948  0  0  0.093652  0  0.97855  0  0  0.095702  0  0.976175  0  0  0.128827  0.092089  0  0.980452  0
H  H14  1  0.94753178  0.50385818  0.23766573  1  0  0.08773  0  0.928331  0  0  0.097725  0  0.9891  0  0  0.100117  0  0.986085  0  0  0.131443  0.095845  0  0.991497  0
H  H15  1  0.55246800  0.99614163  0.73766605  1  0  0.087711  0  0.928268  0  0  0.097705  0  0.989042  0  0  0.100097  0  0.986027  0  0  0.131422  0.095828  0  0.991439  0
H  H16  1  0.05246806  0.49614144  0.76233432  1  0  0.087735  0  0.928225  0  0  0.097705  0  0.98902  0  0  0.100097  0  0.986006  0  0  0.131432  0.095827  0  0.991413  0
H  H17  1  0.44753184  0.00385799  0.26233464  1  0  0.087742  0  0.928334  0  0  0.09773  0  0.989103  0  0  0.100123  0  0.986087  0  0  0.131438  0.095849  0  0.991495  0
H  H18  1  0.67731268  0.03898648  0.26012146  1  0  0.381023  0  0.925965  0  0  0.350215  0  1.006311  0  0  0.363485  0  0.991023  0  0  0.289691  0.340956  0  1.015066  0
H  H19  1  0.82268849  0.46101398  0.76012242  1  0  0.381041  0  0.925923  0  0  0.350239  0  1.006257  0  0  0.363509  0  0.990979  0  0  0.289708  0.340981  0  1.01501  0
H  H20  1  0.32268810  0.96101314  0.73987733  1  0  0.381042  0  0.925907  0  0  0.350219  0  1.006277  0  0  0.363489  0  0.991009  0  0  0.289711  0.340964  0  1.015024  0
H  H21  1  0.17731148  0.53898656  0.23987827  1  0  0.381045  0  0.925942  0  0  0.350224  0  1.00631  0  0  0.363493  0  0.991018  0  0  0.289701  0.34097  0  1.015049  0
H  H22  1  0.96957423  0.08269986  0.67020650  1  0  0.436537  0  0.807067  0  0  0.421152  0  0.85876  0  0  0.428909  0  0.847768  0  0  0.331588  0.415712  0  0.865091  0
H  H23  1  0.53042599  0.41730058  0.17020685  1  0  0.436526  0  0.80708  0  0  0.42114  0  0.858777  0  0  0.428897  0  0.847785  0  0  0.331579  0.4157  0  0.865111  0
H  H24  1  0.03042681  0.91730162  0.32979355  1  0  0.436534  0  0.807068  0  0  0.421146  0  0.858768  0  0  0.428904  0  0.847775  0  0  0.331582  0.415709  0  0.865094  0
H  H25  1  0.46957386  0.58269904  0.82979320  1  0  0.436521  0  0.807074  0  0  0.421133  0  0.858784  0  0  0.428891  0  0.847791  0  0  0.331569  0.41569  0  0.865109  0
H  H26  1  0.11444497  0.12872726  0.65934009  1  0  0.42949  0  0.816692  0  0  0.410952  0  0.874744  0  0  0.418219  0  0.864548  0  0  0.326984  0.405779  0  0.880573  0
H  H27  1  0.38555598  0.37127306  0.15934046  1  0  0.429488  0  0.816702  0  0  0.410949  0  0.874749  0  0  0.418216  0  0.864552  0  0  0.326986  0.405777  0  0.880583  0
H  H28  1  0.88555594  0.87127328  0.34065933  1  0  0.42951  0  0.816669  0  0  0.410971  0  0.874717  0  0  0.418239  0  0.864521  0  0  0.327  0.405799  0  0.880546  0
H  H29  1  0.61444493  0.62872749  0.84065897  1  0  0.429499  0  0.816677  0  0  0.41096  0  0.874731  0  0  0.418228  0  0.864534  0  0  0.326987  0.405785  0  0.880555  0
C  C30  1  0.61250072  0.61847458  0.43891900  1  0  0.241018  0  3.761213  0  0  0.182934  0  4.040621  0  0  0.195887  0  4.056281  0  0  0.130092  0.174252  0  4.029599  0
C  C31  1  0.88749897  0.88152437  0.93891932  1  0  0.240963  0  3.761105  0  0  0.182879  0  4.040518  0  0  0.19583  0  4.056178  0  0  0.130102  0.174204  0  4.029486  0
C  C32  1  0.38750006  0.38152504  0.56108106  1  0  0.240953  0  3.761101  0  0  0.182866  0  4.040515  0  0  0.195818  0  4.056175  0  0  0.130081  0.174197  0  4.029479  0
C  C33  1  0.11250088  0.11847525  0.06108074  1  0  0.240988  0  3.7612  0  0  0.182902  0  4.040603  0  0  0.195853  0  4.056264  0  0  0.130079  0.174225  0  4.029578  0
C  C34  1  0.79500242  0.70737715  0.48538956  1  0  -0.021558  0  3.765665  0  0  -0.026761  0  4.020656  0  0  -0.029704  0  4.04282  0  0  0.060488  -0.024812  0  4.005598  0
C  C35  1  0.70499834  0.79262274  0.98538986  1  0  -0.021471  0  3.765709  0  0  -0.026673  0  4.020687  0  0  -0.029621  0  4.042853  0  0  0.060531  -0.024729  0  4.005634  0
C  C36  1  0.20499755  0.29262339  0.51461049  1  0  -0.021526  0  3.765724  0  0  -0.026748  0  4.020701  0  0  -0.029694  0  4.042867  0  0  0.060493  -0.024806  0  4.005648  0
C  C37  1  0.29500150  0.20737688  0.01461020  1  0  -0.021514  0  3.765608  0  0  -0.026718  0  4.020603  0  0  -0.029665  0  4.042769  0  0  0.060472  -0.024773  0  4.005551  0
C  C38  1  0.70511487  0.79011243  0.49408444  1  0  -0.01365  0  3.742235  0  0  -0.018295  0  3.993857  0  0  -0.020653  0  4.015851  0  0  0.064696  -0.017089  0  3.979298  0
C  C39  1  0.79488402  0.70988745  0.99408473  1  0  -0.013764  0  3.742252  0  0  -0.018404  0  3.993869  0  0  -0.020764  0  4.015866  0  0  0.06462  -0.017196  0  3.979314  0
C  C40  1  0.29488497  0.20988719  0.50591498  1  0  -0.013764  0  3.742338  0  0  -0.01835  0  3.993907  0  0  -0.020709  0  4.015902  0  0  0.064637  -0.017141  0  3.979346  0
C  C41  1  0.20511489  0.29011216  0.00591532  1  0  -0.013658  0  3.742129  0  0  -0.018325  0  3.993793  0  0  -0.020686  0  4.015788  0  0  0.064661  -0.017117  0  3.979231  0
C  C42  1  0.93142305  0.71246687  0.50661908  1  0  0.645712  0  3.95348  0  0  0.59263  0  4.25099  0  0  0.629033  0  4.241619  0  0  0.203633  0.56775  0  4.256524  0
C  C43  1  0.56857777  0.78753379  0.00661879  1  0  0.645603  0  3.953621  0  0  0.592537  0  4.251118  0  0  0.628943  0  4.241746  0  0  0.203612  0.567663  0  4.256642  0
C  C44  1  0.06857692  0.28753367  0.49338097  1  0  0.645668  0  3.953608  0  0  0.592604  0  4.251101  0  0  0.629008  0  4.241732  0  0  0.203634  0.567726  0  4.25663  0
C  C45  1  0.43142301  0.21246583  0.99338127  1  0  0.645637  0  3.953643  0  0  0.592584  0  4.25112  0  0  0.628988  0  4.241752  0  0  0.203633  0.567704  0  4.256649  0
C  C46  1  0.70457325  0.91586342  0.53005548  1  0  0.66045  0  3.913651  0  0  0.607393  0  4.208539  0  0  0.643805  0  4.199209  0  0  0.209311  0.582593  0  4.213932  0
C  C47  1  0.79542745  0.58413633  0.03005580  1  0  0.660449  0  3.913737  0  0  0.607406  0  4.208603  0  0  0.643817  0  4.199276  0  0  0.209331  0.582603  0  4.214  0
C  C48  1  0.29542660  0.08413620  0.46994394  1  0  0.66042  0  3.913856  0  0  0.607332  0  4.208772  0  0  0.643744  0  4.199444  0  0  0.2093  0.582538  0  4.214154  0
C  C49  1  0.20457334  0.41586329  0.96994426  1  0  0.66044  0  3.913668  0  0  0.607388  0  4.20857  0  0  0.6438  0  4.199241  0  0  0.209319  0.582593  0  4.213953  0
C  C50  1  0.89327316  0.41286484  0.24464751  1  0  0.26439  0  3.697839  0  0  0.204331  0  3.976127  0  0  0.218719  0  3.989117  0  0  0.140495  0.194752  0  3.967115  0
C  C51  1  0.60672707  0.08713562  0.74464778  1  0  0.264424  0  3.697851  0  0  0.204369  0  3.976138  0  0  0.218756  0  3.98913  0  0  0.140521  0.194788  0  3.967129  0
C  C52  1  0.10672694  0.58713663  0.75535254  1  0  0.264398  0  3.697837  0  0  0.204377  0  3.976107  0  0  0.218765  0  3.989096  0  0  0.140498  0.194797  0  3.967087  0
C  C53  1  0.39327371  0.91286401  0.25535291  1  0  0.264346  0  3.697872  0  0  0.204311  0  3.976134  0  0  0.218699  0  3.989124  0  0  0.140477  0.194738  0  3.967111  0
C  C54  1  0.78208325  0.25137646  0.29950795  1  0  -0.002384  0  3.803316  0  0  -0.009891  0  4.055038  0  0  -0.011436  0  4.077559  0  0  0.070291  -0.008832  0  4.039674  0
C  C55  1  0.71791592  0.24862308  0.79950824  1  0  -0.002405  0  3.803372  0  0  -0.009898  0  4.055061  0  0  -0.011443  0  4.077586  0  0  0.070295  -0.00884  0  4.039687  0
C  C56  1  0.21791579  0.74862408  0.70049211  1  0  -0.002365  0  3.803308  0  0  -0.009867  0  4.055045  0  0  -0.011409  0  4.077567  0  0  0.0703  -0.008806  0  4.039678  0
C  C57  1  0.28208392  0.75137653  0.20049245  1  0  -0.002399  0  3.803386  0  0  -0.009876  0  4.05505  0  0  -0.01142  0  4.077575  0  0  0.070284  -0.008827  0  4.03969  0
C  C58  1  0.80086631  0.22897577  0.21366040  1  0  -0.041417  0  3.823038  0  0  -0.045424  0  4.072536  0  0  -0.050685  0  4.097097  0  0  0.061702  -0.041889  0  4.055809  0
C  C59  1  0.69913285  0.27102374  0.71366069  1  0  -0.04132  0  3.823013  0  0  -0.045325  0  4.072487  0  0  -0.050584  0  4.097048  0  0  0.061742  -0.041796  0  4.055763  0
C  C60  1  0.19913247  0.77102292  0.78633840  1  0  -0.041332  0  3.822947  0  0  -0.045377  0  4.072497  0  0  -0.050637  0  4.097058  0  0  0.06171  -0.041848  0  4.055777  0
C  C61  1  0.30086712  0.72897680  0.28633936  1  0  -0.041414  0  3.823048  0  0  -0.045401  0  4.072523  0  0  -0.050661  0  4.097086  0  0  0.06172  -0.041862  0  4.055799  0
C  C62  1  0.71050235  0.17451962  0.36437413  1  0  0.654532  0  3.906404  0  0  0.601172  0  4.203007  0  0  0.636982  0  4.193698  0  0  0.215225  0.576757  0  4.208522  0
C  C63  1  0.78949696  0.32548087  0.86437506  1  0  0.654615  0  3.906295  0  0  0.601278  0  4.202857  0  0  0.637086  0  4.193551  0  0  0.215279  0.576885  0  4.208338  0
C  C64  1  0.28949762  0.82548093  0.63562530  1  0  0.65456  0  3.90636  0  0  0.601215  0  4.202944  0  0  0.637022  0  4.193638  0  0  0.215259  0.576807  0  4.208449  0
C  C65  1  0.21050289  0.67451875  0.13562625  1  0  0.654561  0  3.906361  0  0  0.601209  0  4.20293  0  0  0.637017  0  4.193625  0  0  0.215228  0.576809  0  4.208428  0
C  C66  1  0.75583861  0.12333480  0.15939538  1  0  0.652015  0  3.866198  0  0  0.600974  0  4.163851  0  0  0.636816  0  4.153291  0  0  0.226462  0.576592  0  4.170347  0
C  C67  1  0.74416147  0.37666470  0.65939506  1  0  0.65195  0  3.866244  0  0  0.600907  0  4.163898  0  0  0.636749  0  4.153338  0  0  0.226449  0.576526  0  4.17039  0
C  C68  1  0.24416136  0.87666574  0.84060530  1  0  0.651972  0  3.86617  0  0  0.600935  0  4.163832  0  0  0.636777  0  4.153271  0  0  0.226449  0.576558  0  4.170326  0
C  C69  1  0.25583824  0.62333399  0.34060499  1  0  0.652043  0  3.866217  0  0  0.600943  0  4.16394  0  0  0.636784  0  4.153383  0  0  0.226457  0.576555  0  4.170445  0
N  N70  1  0.73316948  0.59954804  0.45090682  1  0  -0.437984  0  3.259265  0  0  -0.366112  0  3.543607  0  0  -0.387967  0  3.561227  0  0  -0.366886  -0.350302  0  3.530854  0
N  N71  1  0.76683035  0.90045184  0.95090650  1  0  -0.437992  0  3.259181  0  0  -0.366124  0  3.54352  0  0  -0.387976  0  3.561142  0  0  -0.366915  -0.350314  0  3.530769  0
N  N72  1  0.26682930  0.40045065  0.54909324  1  0  -0.437966  0  3.259227  0  0  -0.366094  0  3.54357  0  0  -0.387947  0  3.561192  0  0  -0.366903  -0.350285  0  3.530817  0
N  N73  1  0.23316963  0.09954871  0.04909292  1  0  -0.437977  0  3.259265  0  0  -0.366101  0  3.5436  0  0  -0.387952  0  3.56122  0  0  -0.366897  -0.350293  0  3.530852  0
N  N74  1  0.59131271  0.73122422  0.46366626  1  0  -0.426579  0  3.246862  0  0  -0.354348  0  3.528951  0  0  -0.37595  0  3.546855  0  0  -0.363555  -0.338859  0  3.516397  0
N  N75  1  0.90868793  0.76877474  0.96366656  1  0  -0.426546  0  3.246792  0  0  -0.354318  0  3.528883  0  0  -0.375917  0  3.546787  0  0  -0.363564  -0.338833  0  3.516335  0
N  N76  1  0.40868714  0.26877540  0.53633317  1  0  -0.426514  0  3.246831  0  0  -0.354295  0  3.528902  0  0  -0.375895  0  3.546806  0  0  -0.363537  -0.338813  0  3.516356  0
N  N77  1  0.09131285  0.23122488  0.03633349  1  0  -0.426595  0  3.246807  0  0  -0.354353  0  3.528897  0  0  -0.375952  0  3.546801  0  0  -0.36355  -0.33887  0  3.516353  0
N  N78  1  0.84096300  0.36783718  0.31770974  1  0  -0.423353  0  3.226458  0  0  -0.351676  0  3.512629  0  0  -0.373586  0  3.528306  0  0  -0.358535  -0.33642  0  3.501457  0
N  N79  1  0.65903630  0.13216330  0.81771001  1  0  -0.423367  0  3.226524  0  0  -0.351701  0  3.512695  0  0  -0.373611  0  3.528375  0  0  -0.358544  -0.336442  0  3.50152  0
N  N80  1  0.15903616  0.63216429  0.68228968  1  0  -0.423384  0  3.226489  0  0  -0.351709  0  3.51265  0  0  -0.373622  0  3.528328  0  0  -0.358538  -0.336451  0  3.501473  0
N  N81  1  0.34096354  0.86783632  0.18228941  1  0  -0.423336  0  3.226449  0  0  -0.351681  0  3.51261  0  0  -0.373594  0  3.528288  0  0  -0.358522  -0.336418  0  3.501429  0
N  N82  1  0.87123952  0.33261956  0.18049674  1  0  -0.409308  0  3.257206  0  0  -0.3361  0  3.543245  0  0  -0.35718  0  3.559883  0  0  -0.3602  -0.321563  0  3.531559  0
N  N83  1  0.62876164  0.16738088  0.68049702  1  0  -0.409353  0  3.257258  0  0  -0.336149  0  3.543295  0  0  -0.357231  0  3.559934  0  0  -0.360208  -0.321612  0  3.531616  0
N  N84  1  0.12876058  0.66738191  0.81950331  1  0  -0.409368  0  3.257266  0  0  -0.336152  0  3.543307  0  0  -0.357233  0  3.559946  0  0  -0.360205  -0.321612  0  3.53162  0
N  N85  1  0.37123914  0.83261874  0.31950367  1  0  -0.409304  0  3.257259  0  0  -0.336109  0  3.543292  0  0  -0.357189  0  3.55993  0  0  -0.360213  -0.321577  0  3.53161  0
O  O86  1  0.99457785  0.80441826  0.54229019  1  0  -0.6355  0  2.044124  0  0  -0.577226  0  2.297542  0  0  -0.604514  0  2.284457  0  0  -0.330131  -0.558324  0  2.306134  0
O  O87  1  0.50542190  0.69558149  0.04229051  1  0  -0.635486  0  2.044126  0  0  -0.577207  0  2.297537  0  0  -0.604496  0  2.284449  0  0  -0.330145  -0.558309  0  2.306126  0
O  O88  1  0.00542118  0.19558228  0.45770986  1  0  -0.635512  0  2.044161  0  0  -0.577239  0  2.297574  0  0  -0.604526  0  2.284488  0  0  -0.330144  -0.558338  0  2.306162  0
O  O89  1  0.49457794  0.30441813  0.95771018  1  0  -0.635492  0  2.044164  0  0  -0.577225  0  2.29756  0  0  -0.604514  0  2.284474  0  0  -0.33013  -0.558322  0  2.306144  0
O  O90  1  0.98121751  0.61538242  0.48651857  1  0  -0.659086  0  2.099965  0  0  -0.573624  0  2.363346  0  0  -0.605991  0  2.348337  0  0  -0.332209  -0.550506  0  2.373143  0
O  O91  1  0.51878245  0.88461839  0.98651824  1  0  -0.659012  0  2.100002  0  0  -0.573584  0  2.363402  0  0  -0.605951  0  2.348384  0  0  -0.332191  -0.550466  0  2.373193  0
O  O92  1  0.01878340  0.38461812  0.51348086  1  0  -0.659014  0  2.100011  0  0  -0.573581  0  2.363405  0  0  -0.605949  0  2.348399  0  0  -0.332192  -0.550462  0  2.373199  0
O  O93  1  0.48121659  0.11538215  0.01348119  1  0  -0.659026  0  2.100045  0  0  -0.573597  0  2.363436  0  0  -0.605963  0  2.348422  0  0  -0.332201  -0.55048  0  2.37323  0
O  O94  1  0.80405782  0.98772014  0.54984849  1  0  -0.656363  0  2.040925  0  0  -0.595993  0  2.298305  0  0  -0.624092  0  2.284064  0  0  -0.335641  -0.57558  0  2.306918  0
O  O95  1  0.69594194  0.51227961  0.04984942  1  0  -0.656351  0  2.040952  0  0  -0.595982  0  2.298325  0  0  -0.624082  0  2.284088  0  0  -0.33563  -0.575567  0  2.306937  0
O  O96  1  0.19594109  0.01227948  0.45015030  1  0  -0.656336  0  2.040999  0  0  -0.595953  0  2.298387  0  0  -0.624054  0  2.28415  0  0  -0.335601  -0.575541  0  2.306994  0
O  O97  1  0.30405803  0.48772093  0.95015063  1  0  -0.656374  0  2.040951  0  0  -0.595994  0  2.298332  0  0  -0.624095  0  2.284098  0  0  -0.335624  -0.57558  0  2.306937  0
O  O98  1  0.59405392  0.94779519  0.54067877  1  0  -0.650734  0  2.110311  0  0  -0.569409  0  2.379285  0  0  -0.600827  0  2.364659  0  0  -0.325726  -0.546855  0  2.388366  0
O  O99  1  0.90594596  0.55220548  0.04067908  1  0  -0.650686  0  2.110312  0  0  -0.569379  0  2.379286  0  0  -0.600795  0  2.364661  0  0  -0.325715  -0.546822  0  2.388367  0
O  O100  1  0.40594605  0.05220535  0.45932129  1  0  -0.650672  0  2.110335  0  0  -0.569356  0  2.379334  0  0  -0.600774  0  2.364709  0  0  -0.32571  -0.546805  0  2.388414  0
O  O101  1  0.09405401  0.44779507  0.95932097  1  0  -0.650698  0  2.110321  0  0  -0.569385  0  2.3793  0  0  -0.600802  0  2.364674  0  0  -0.32572  -0.546832  0  2.388377  0
O  O102  1  0.70173527  0.22640197  0.43633955  1  0  -0.649459  0  2.11479  0  0  -0.565804  0  2.388108  0  0  -0.596782  0  2.371151  0  0  -0.321228  -0.543531  0  2.399615  0
O  O103  1  0.79826393  0.27359762  0.93634049  1  0  -0.649477  0  2.114753  0  0  -0.565848  0  2.388084  0  0  -0.596824  0  2.371128  0  0  -0.321252  -0.543585  0  2.39958  0
O  O104  1  0.29826364  0.77359765  0.56365987  1  0  -0.649477  0  2.114758  0  0  -0.565835  0  2.388087  0  0  -0.59681  0  2.371128  0  0  -0.321241  -0.543561  0  2.399584  0
O  O105  1  0.20173592  0.72640200  0.06366020  1  0  -0.649445  0  2.114774  0  0  -0.565802  0  2.388101  0  0  -0.596779  0  2.371143  0  0  -0.321221  -0.543538  0  2.399607  0
O  O106  1  0.66055686  0.06497212  0.34643754  1  0  -0.577788  0  1.966976  0  0  -0.527896  0  2.183936  0  0  -0.552592  0  2.173486  0  0  -0.305823  -0.510745  0  2.190157  0
O  O107  1  0.83944339  0.43502836  0.84643786  1  0  -0.577872  0  1.96696  0  0  -0.52799  0  2.18391  0  0  -0.552686  0  2.173461  0  0  -0.305865  -0.510848  0  2.190122  0
O  O108  1  0.33944298  0.93502750  0.65356188  1  0  -0.577795  0  1.966998  0  0  -0.527901  0  2.183966  0  0  -0.552596  0  2.173521  0  0  -0.305837  -0.510753  0  2.190184  0
O  O109  1  0.16055753  0.56497218  0.15356219  1  0  -0.577848  0  1.96698  0  0  -0.527956  0  2.18394  0  0  -0.552651  0  2.173487  0  0  -0.305842  -0.510811  0  2.190153  0
O  O110  1  0.68866516  0.02576174  0.19310144  1  0  -0.535109  0  2.057632  0  0  -0.486904  0  2.264133  0  0  -0.508717  0  2.247579  0  0  -0.325076  -0.471768  0  2.273983  0
O  O111  1  0.81133494  0.47423778  0.69310177  1  0  -0.535096  0  2.057629  0  0  -0.486894  0  2.264126  0  0  -0.508706  0  2.247579  0  0  -0.325108  -0.471761  0  2.273978  0
O  O112  1  0.31133481  0.97423880  0.80689798  1  0  -0.535111  0  2.057588  0  0  -0.486897  0  2.264105  0  0  -0.508708  0  2.247563  0  0  -0.325086  -0.471759  0  2.273951  0
O  O113  1  0.18866491  0.52576184  0.30689891  1  0  -0.535118  0  2.05764  0  0  -0.486889  0  2.264177  0  0  -0.5087  0  2.247619  0  0  -0.325068  -0.471752  0  2.274023  0
O  O114  1  0.78193706  0.12870467  0.08202297  1  0  -0.610472  0  2.044867  0  0  -0.544131  0  2.302979  0  0  -0.570813  0  2.288589  0  0  -0.304084  -0.525229  0  2.312866  0
O  O115  1  0.71806315  0.37129574  0.58202391  1  0  -0.610441  0  2.044907  0  0  -0.544101  0  2.303017  0  0  -0.570782  0  2.288626  0  0  -0.304067  -0.525204  0  2.312908  0
O  O116  1  0.21806385  0.87129588  0.91797645  1  0  -0.610465  0  2.044885  0  0  -0.544112  0  2.302992  0  0  -0.570795  0  2.2886  0  0  -0.304065  -0.525219  0  2.31289  0
O  O117  1  0.28193683  0.62870481  0.41797677  1  0  -0.610485  0  2.044868  0  0  -0.544126  0  2.30301  0  0  -0.570808  0  2.28862  0  0  -0.304089  -0.525223  0  2.3129  0
O  O118  1  0.04836405  0.05987448  0.64783279  1  0  -0.798436  0  1.812606  0  0  -0.751652  0  1.984226  0  0  -0.769788  0  1.957026  0  0  -0.557471  -0.738835  0  2.000265  0
O  O119  1  0.45163596  0.44012584  0.14783317  1  0  -0.798423  0  1.81262  0  0  -0.751638  0  1.984237  0  0  -0.769774  0  1.957038  0  0  -0.557466  -0.73882  0  2.000284  0
O  O120  1  0.95163605  0.94012699  0.35216726  1  0  -0.79845  0  1.812585  0  0  -0.751662  0  1.98421  0  0  -0.769798  0  1.95701  0  0  -0.557479  -0.738848  0  2.000247  0
O  O121  1  0.54836388  0.55987378  0.85216752  1  0  -0.79843  0  1.8126  0  0  -0.751644  0  1.984238  0  0  -0.769781  0  1.957037  0  0  -0.557459  -0.738827  0  2.000265  0
