# generated using pymatgen
data_NiPH4CO4
_symmetry_space_group_name_H-M   'P 1'
_cell_length_a   4.69565966
_cell_length_b   5.59536575
_cell_length_c   15.32419579
_cell_angle_alpha   98.83537269
_cell_angle_beta   90.00000981
_cell_angle_gamma   89.99999748
_symmetry_Int_Tables_number   1
_chemical_formula_structural   NiPH4CO4
_chemical_formula_sum   'Ni4 P4 H16 C4 O16'
_cell_volume   397.84922255
_cell_formula_units_Z   4
loop_
 _symmetry_equiv_pos_site_id
 _symmetry_equiv_pos_as_xyz
  1  'x, y, z'
loop_
 _atom_site_type_symbol
 _atom_site_label
 _atom_site_symmetry_multiplicity
 _atom_site_fract_x
 _atom_site_fract_y
 _atom_site_fract_z
 _atom_site_occupancy
 _atom_site_hle17_ddec_charge
 _atom_site_hle17_ddec_spin_density
 _atom_site_hle17_ddec_sum_bond_order
 _atom_site_hle17_magmom
 _atom_site_hse06_10hf_ddec_charge
 _atom_site_hse06_10hf_ddec_spin_density
 _atom_site_hse06_10hf_ddec_sum_bond_order
 _atom_site_hse06_10hf_magmom
 _atom_site_hse06_ddec_charge
 _atom_site_hse06_ddec_spin_density
 _atom_site_hse06_ddec_sum_bond_order
 _atom_site_hse06_magmom
 _atom_site_pbe_cm5_charge
 _atom_site_pbe_ddec_charge
 _atom_site_pbe_ddec_spin_density
 _atom_site_pbe_ddec_sum_bond_order
 _atom_site_pbe_magmom
Ni  Ni0  1  0.89130627  0.49473510  0.73835802  1  1.05946  1.724202  1.825378  1.521  1.093569  1.806661  2.180402  1.659  1.174591  1.87494  2.118224  1.744  0.655033  1.013388  1.726082  2.249104  1.569
Ni  Ni1  1  0.39130414  0.00526654  0.76164259  1  1.05941  -1.724204  1.825418  -1.521  1.093565  -1.806664  2.180444  -1.659  1.174536  -1.874945  2.118276  -1.744  0.655021  1.013327  -1.726082  2.249152  -1.569
Ni  Ni2  1  0.10869404  0.50526538  0.26164232  1  1.059343  -1.724198  1.825405  -1.521  1.093512  -1.806661  2.180412  -1.659  1.174491  -1.874939  2.118246  -1.744  0.655004  1.013287  -1.726076  2.249126  -1.569
Ni  Ni3  1  0.60869404  0.99473393  0.23835709  1  1.059384  1.724203  1.825395  1.521  1.093552  1.80667  2.180399  1.659  1.174533  1.874937  2.118242  1.744  0.655015  1.013336  1.726077  2.249117  1.569
P  P4  1  0.46731476  0.54684637  0.85965725  1  1.488355  -0.000405  4.694773  -0.002  1.350776  0.001394  5.201127  0.0  1.403123  0.000873  5.168135  0.0  0.329075  1.312852  0.001872  5.217852  0.0
P  P5  1  0.96731470  0.95315434  0.64034259  1  1.488329  0.000406  4.694759  0.002  1.350763  -0.001396  5.201104  0.0  1.403109  -0.000875  5.168108  0.0  0.329054  1.312832  -0.001872  5.217815  0.0
P  P6  1  0.53272176  0.45315591  0.14034253  1  1.488363  0.000418  4.69483  0.002  1.350804  -0.001396  5.201141  0.0  1.403146  -0.000876  5.168154  0.0  0.329095  1.312851  -0.001872  5.217909  0.0
P  P7  1  0.03272394  0.04684433  0.35965764  1  1.488378  -0.000406  4.694974  -0.002  1.350811  0.001393  5.201291  0.0  1.403151  0.000872  5.168305  0.0  0.329092  1.312867  0.001872  5.218067  0.0
H  H8  1  0.46882035  0.32103758  0.64222901  1  0.434651  0.000103  0.84156  -0.001  0.406899  0.000381  0.91554  0.0  0.417433  0.000248  0.903633  0.0  0.304206  0.399138  0.000504  0.92374  0.0
H  H9  1  0.96882046  0.17896044  0.85777140  1  0.434612  -0.000107  0.841652  0.001  0.406861  -0.000381  0.915621  0.0  0.417394  -0.000248  0.903715  0.0  0.304186  0.399099  -0.000503  0.923822  0.0
H  H10  1  0.53117783  0.67896108  0.35777057  1  0.434605  -0.000105  0.841652  0.001  0.406863  -0.000381  0.915611  0.0  0.417392  -0.000248  0.903712  0.0  0.304197  0.399103  -0.000503  0.923804  0.0
H  H11  1  0.03117985  0.82103823  0.14222948  1  0.434639  0.000103  0.841577  -0.001  0.406889  0.000381  0.915558  0.0  0.41742  0.000248  0.903657  0.0  0.304205  0.39913  0.000504  0.923752  0.0
H  H12  1  0.48426225  0.59988472  0.64020588  1  0.433894  0.000106  0.844242  -0.001  0.405496  0.000376  0.92006  0.0  0.416216  0.000243  0.906631  0.0  0.302756  0.397584  0.000498  0.928683  0.0
H  H13  1  0.98426234  0.90011780  0.85979406  1  0.43396  -0.000106  0.844165  0.001  0.405448  -0.000376  0.920129  0.0  0.416167  -0.000243  0.906686  0.0  0.30273  0.397532  -0.000498  0.928753  0.0
H  H14  1  0.51574019  0.40011756  0.35979324  1  0.433895  -0.000104  0.844182  0.001  0.405502  -0.000376  0.919968  0.0  0.416222  -0.000243  0.90658  0.0  0.302806  0.397591  -0.000498  0.928583  0.0
H  H15  1  0.01574010  0.09988267  0.14020627  1  0.433887  0.000102  0.844226  -0.001  0.405498  0.000376  0.920024  0.0  0.416216  0.000243  0.906619  0.0  0.302768  0.397587  0.000498  0.928642  0.0
H  H16  1  0.78926742  0.61339045  0.97918082  1  0.144355  0.000606  0.927107  0.001  0.158857  0.000386  0.980231  0.001  0.161357  0.00025  0.979462  0.0  0.111359  0.156842  0.000525  0.981423  0.001
H  H17  1  0.28926936  0.88661207  0.52081977  1  0.144354  -0.0006  0.927083  -0.001  0.158861  -0.000386  0.980201  -0.001  0.161361  -0.000251  0.979429  0.0  0.111371  0.156844  -0.000525  0.981394  -0.001
H  H18  1  0.21072863  0.38661365  0.02081972  1  0.144358  -0.0006  0.92711  -0.001  0.158869  -0.000386  0.980222  -0.001  0.161369  -0.00025  0.979451  0.0  0.111363  0.156854  -0.000524  0.981412  -0.001
H  H19  1  0.71072882  0.11338660  0.47918046  1  0.144364  0.000615  0.927098  0.001  0.15887  0.000386  0.980211  0.001  0.161369  0.00025  0.979441  0.0  0.111362  0.156856  0.000524  0.9814  0.001
H  H20  1  0.46956124  0.77719484  0.00343628  1  0.141611  -0.000248  0.913302  0.0  0.158855  -5e-05  0.961576  0.0  0.160783  -4.1e-05  0.961506  0.0  0.113167  0.157046  -5.7e-05  0.962715  0.0
H  H21  1  0.96956569  0.72280450  0.49656445  1  0.141628  0.000247  0.913276  0.0  0.158872  5e-05  0.961545  0.0  0.160796  4.2e-05  0.961479  0.0  0.113166  0.157061  5.7e-05  0.96269  0.0
H  H22  1  0.53043268  0.22280564  0.99656340  1  0.141618  0.000245  0.913323  0.0  0.158864  5e-05  0.961588  0.0  0.160789  4.2e-05  0.961521  0.0  0.113163  0.157057  5.7e-05  0.962732  0.0
H  H23  1  0.03043462  0.27719417  0.50343579  1  0.141653  -0.00024  0.91333  0.0  0.158899  -5e-05  0.961583  0.0  0.160824  -4.2e-05  0.961516  0.0  0.113174  0.157092  -5.7e-05  0.962727  0.0
C  C24  1  0.55599243  0.59928707  0.97537635  1  -0.377183  0.002503  3.654139  0.003  -0.396302  0.001539  3.897266  0.002  -0.404001  0.001104  3.904198  0.001  -0.160477  -0.391444  0.001994  3.894479  0.002
C  C25  1  0.05599436  0.90071363  0.52462413  1  -0.377198  -0.002507  3.654175  -0.003  -0.396287  -0.001539  3.897232  -0.002  -0.403976  -0.001104  3.904148  -0.001  -0.160485  -0.391431  -0.001994  3.894442  -0.002
C  C26  1  0.44400363  0.40071159  0.02462258  1  -0.377313  -0.002513  3.654176  -0.003  -0.396377  -0.001539  3.897196  -0.002  -0.404064  -0.001102  3.904114  -0.001  -0.160515  -0.391524  -0.001993  3.894392  -0.002
C  C27  1  0.94400595  0.09928685  0.47537751  1  -0.377332  0.002467  3.65425  0.003  -0.396401  0.001538  3.897286  0.002  -0.404091  0.001105  3.904202  0.001  -0.160495  -0.391548  0.001993  3.894481  0.002
O  O28  1  0.61682301  0.74899004  0.81528996  1  -0.853192  0.005506  2.106142  0.008  -0.82  0.00263  2.414187  0.005  -0.864418  0.001521  2.396892  0.003  -0.366043  -0.780239  0.004094  2.423845  0.007
O  O29  1  0.11682294  0.75100885  0.68470977  1  -0.853141  -0.005505  2.106074  -0.008  -0.819972  -0.002631  2.414142  -0.005  -0.864393  -0.001519  2.396848  -0.003  -0.366021  -0.780211  -0.004095  2.423797  -0.007
O  O30  1  0.38317517  0.25100682  0.18471018  1  -0.853104  -0.005499  2.105871  -0.008  -0.819968  -0.002629  2.413952  -0.005  -0.86439  -0.001518  2.396667  -0.003  -0.366035  -0.780195  -0.004092  2.423593  -0.007
O  O31  1  0.88317312  0.24899342  0.31528936  1  -0.853095  0.005505  2.105799  0.008  -0.819989  0.002629  2.413936  0.005  -0.864408  0.001518  2.396641  0.003  -0.366055  -0.780219  0.004092  2.423584  0.007
O  O32  1  0.61690184  0.30578825  0.81600171  1  -0.852263  0.005189  2.095029  0.008  -0.81789  0.002392  2.402574  0.004  -0.862051  0.001341  2.385047  0.003  -0.364738  -0.778105  0.003822  2.411956  0.007
O  O33  1  0.11690177  0.19421156  0.68399814  1  -0.852284  -0.005185  2.095057  -0.008  -0.817909  -0.002393  2.402593  -0.004  -0.862071  -0.00134  2.385065  -0.003  -0.364746  -0.778127  -0.003824  2.411972  -0.007
O  O34  1  0.38309635  0.69421584  0.18399817  1  -0.852307  -0.005184  2.094865  -0.008  -0.81794  -0.002392  2.402389  -0.004  -0.862098  -0.001338  2.38484  -0.003  -0.364778  -0.778156  -0.003821  2.411764  -0.007
O  O35  1  0.88309641  0.80578348  0.31600125  1  -0.852346  0.005184  2.094926  0.008  -0.81797  0.002391  2.402436  0.004  -0.862124  0.001341  2.38488  0.003  -0.364791  -0.778183  0.003822  2.41181  0.007
O  O36  1  0.14497027  0.54183699  0.84932839  1  -0.831984  0.04189  2.059222  0.066  -0.777881  0.027263  2.339779  0.042  -0.814124  0.021405  2.322915  0.033  -0.36069  -0.747329  0.032422  2.349534  0.05
O  O37  1  0.64497022  0.95816190  0.65067134  1  -0.831942  -0.041895  2.059178  -0.066  -0.777895  -0.027263  2.339813  -0.042  -0.81413  -0.021403  2.322941  -0.033  -0.360693  -0.747333  -0.032424  2.349551  -0.05
O  O38  1  0.85500449  0.45816528  0.15067009  1  -0.831854  -0.041861  2.059711  -0.066  -0.777793  -0.027249  2.340399  -0.042  -0.814008  -0.021396  2.32351  -0.033  -0.360614  -0.747225  -0.032406  2.3501  -0.05
O  O39  1  0.35500241  0.04183497  0.34932944  1  -0.831887  0.041853  2.059837  0.066  -0.777839  0.027248  2.34054  0.042  -0.814052  0.021395  2.323645  0.033  -0.360618  -0.747268  0.032403  2.350241  0.05
O  O40  1  0.60236068  0.45243850  0.63437452  1  -0.787699  0.040338  1.928848  0.065  -0.762391  0.028236  2.154741  0.045  -0.788909  0.022359  2.126951  0.036  -0.563653  -0.739722  0.033215  2.174144  0.052
O  O41  1  0.10235861  0.04756132  0.86562598  1  -0.787702  -0.04033  1.928844  -0.065  -0.762283  -0.028234  2.154948  -0.045  -0.788788  -0.022359  2.127139  -0.036  -0.563605  -0.739601  -0.033214  2.174343  -0.052
O  O42  1  0.39764389  0.54755836  0.36562561  1  -0.787636  -0.040343  1.9289  -0.065  -0.762308  -0.028238  2.154807  -0.045  -0.788821  -0.022361  2.12707  -0.036  -0.563678  -0.739622  -0.033219  2.174191  -0.052
O  O43  1  0.89764170  0.95244097  0.13437446  1  -0.787647  0.040353  1.928817  0.065  -0.762356  0.028239  2.15472  0.045  -0.788872  0.022363  2.126954  0.036  -0.563639  -0.739671  0.033221  2.17411  0.052
