# generated using pymatgen
data_Zn2H10C22S5(NO2)4
_symmetry_space_group_name_H-M   'P 1'
_cell_length_a   11.39938431
_cell_length_b   12.76704287
_cell_length_c   26.10406313
_cell_angle_alpha   90.16262335
_cell_angle_beta   89.83239880
_cell_angle_gamma   89.94597664
_symmetry_Int_Tables_number   1
_chemical_formula_structural   Zn2H10C22S5(NO2)4
_chemical_formula_sum   'Zn4 H20 C44 S10 N8 O16'
_cell_volume   3799.05883248
_cell_formula_units_Z   2
loop_
 _symmetry_equiv_pos_site_id
 _symmetry_equiv_pos_as_xyz
  1  'x, y, z'
loop_
 _atom_site_type_symbol
 _atom_site_label
 _atom_site_symmetry_multiplicity
 _atom_site_fract_x
 _atom_site_fract_y
 _atom_site_fract_z
 _atom_site_occupancy
 _atom_site_pbe_bader_charge
 _atom_site_pbe_bader_spin_density
 _atom_site_pbe_cm5_charge
 _atom_site_pbe_ddec_charge
 _atom_site_pbe_ddec_spin_density
 _atom_site_pbe_ddec_sum_bond_order
 _atom_site_pbe_magmom
Zn  Zn0  1  0.61566193  0.50263043  0.50007348  1  1.287659  0  0.659995  0.828028  0  2.432203  0
Zn  Zn1  1  0.37624456  0.50208682  0.49768920  1  1.285238  0  0.662229  0.831006  0  2.458794  0
Zn  Zn2  1  0.38439383  0.50523426  0.00926316  1  1.286004  0  0.659604  0.827691  0  2.432811  0
Zn  Zn3  1  0.62379602  0.50432803  0.01167712  1  1.275919  0  0.662133  0.831292  0  2.458853  0
H  H4  1  0.82486290  0.38452260  0.44819998  1  0.172942  0  0.148268  0.142962  0  0.940472  0
H  H5  1  0.16756074  0.61961304  0.54848678  1  0.154392  0  0.147999  0.142444  0  0.942202  0
H  H6  1  0.68661876  0.14227988  0.50371358  1  0.122475  0  0.112676  0.137219  0  0.982182  0
H  H7  1  0.31100459  0.86242459  0.49474442  1  0.110223  0  0.112969  0.137472  0  0.982529  0
H  H8  1  0.70695082  0.48175403  0.85800881  1  0.07474  0  0.095874  0.107908  0  1.029425  0
H  H9  1  0.29304464  0.48151559  0.65129665  1  0.060157  0  0.09576  0.107599  0  1.028723  0
H  H10  1  0.31471914  0.50006512  0.32489438  1  0.141673  0  0.113281  0.138051  0  0.984126  0
H  H11  1  0.68509133  0.50170730  0.18442360  1  0.105681  0  0.113165  0.138171  0  0.983789  0
H  H12  1  0.17565976  0.38729568  0.06108367  1  0.153963  0  0.148572  0.143187  0  0.940266  0
H  H13  1  0.83222601  0.62141601  0.96104905  1  0.157973  0  0.148151  0.142381  0  0.942216  0
H  H14  1  0.31347579  0.14502828  0.00574951  1  0.082541  0  0.112821  0.13737  0  0.983098  0
H  H15  1  0.68907008  0.86455776  0.01443984  1  0.111091  0  0.113145  0.13775  0  0.98251  0
H  H16  1  0.21595870  0.41562548  0.77040621  1  0.401864  0  0.295872  0.28048  0  0.952122  0
H  H17  1  0.17225747  0.47106448  0.71646788  1  0.394123  0  0.29268  0.278679  0  0.958376  0
H  H18  1  0.30977163  0.53288131  0.87823041  1  0.480347  0  0.284668  0.293837  0  1.032283  0
H  H19  1  0.24776980  0.54288023  0.81557145  1  0.477846  0  0.291952  0.289727  0  1.012932  0
H  H20  1  0.78401077  0.41504273  0.73878402  1  0.418175  0  0.296337  0.281949  0  0.951322  0
H  H21  1  0.82773366  0.47065815  0.79281554  1  0.407499  0  0.29264  0.279341  0  0.958639  0
H  H22  1  0.69021567  0.53156727  0.63112429  1  0.472731  0  0.28447  0.293438  0  1.031796  0
H  H23  1  0.75223095  0.54198978  0.69378294  1  0.478382  0  0.292151  0.290448  0  1.0128  0
C  C24  1  0.49346339  0.70801371  0.49789554  1  1.526288  0  0.205855  0.605605  0  4.207595  0
C  C25  1  0.48704884  0.50613989  0.59996339  1  1.505449  0  0.208425  0.605236  0  4.124723  0
C  C26  1  0.50274499  0.29668490  0.49936022  1  1.527483  0  0.205639  0.603463  0  4.210468  0
C  C27  1  0.49917993  0.49850819  0.39858481  1  1.609208  0  0.205436  0.601782  0  4.211434  0
C  C28  1  0.50655719  0.71051193  0.01145487  1  1.575771  0  0.205756  0.603216  0  4.210313  0
C  C29  1  0.51289346  0.50721751  0.90939493  1  1.463299  0  0.208939  0.606899  0  4.124955  0
C  C30  1  0.49737468  0.29908390  0.00995131  1  1.591679  0  0.205258  0.604843  0  4.206107  0
C  C31  1  0.50073338  0.50140552  0.11073762  1  1.572686  0  0.205025  0.601889  0  4.212549  0
C  C32  1  0.86596120  0.44254605  0.47296329  1  0.57298  0  0.069294  0.079808  0  3.878536  0
C  C33  1  0.12628160  0.56171335  0.52371657  1  0.614727  0  0.066852  0.073724  0  3.88723  0
C  C34  1  0.00533452  0.54345356  0.51591351  1  -0.213847  0  -0.011569  -0.083139  0  4.085237  0
C  C35  1  0.98699512  0.46088731  0.48070968  1  -0.203409  0  -0.010182  -0.083483  0  4.078441  0
C  C36  1  0.59686973  0.11396488  0.50150785  1  0.005633  0  -0.097609  -0.147606  0  3.991613  0
C  C37  1  0.40076093  0.89075690  0.49674178  1  0.046921  0  -0.097002  -0.146588  0  3.992593  0
C  C38  1  0.50181899  0.18117596  0.49943454  1  -0.133854  0  -0.026131  -0.106217  0  3.975842  0
C  C39  1  0.49573426  0.82349190  0.49840480  1  -0.102913  0  -0.026272  -0.106424  0  3.976385  0
C  C40  1  0.43730223  0.99637266  0.49775097  1  -0.175321  0  -0.02701  -0.008564  0  4.073269  0
C  C41  1  0.56045149  0.00825280  0.50040224  1  -0.16106  0  -0.027081  -0.008902  0  4.071861  0
C  C42  1  0.42324441  0.50816527  0.81986975  1  0.480387  0  0.11068  0.268691  0  4.015262  0
C  C43  1  0.63418223  0.49096881  0.83137184  1  -0.023852  0  -0.117609  -0.223566  0  4.070645  0
C  C44  1  0.65508319  0.48952426  0.77945235  1  0.251824  0  0.06116  0.20954  0  4.073883  0
C  C45  1  0.55870530  0.49898159  0.74433178  1  0.048646  0  -0.014404  -0.093299  0  3.904338  0
C  C46  1  0.57676212  0.50751767  0.68947621  1  0.453504  0  0.110258  0.270324  0  4.014302  0
C  C47  1  0.36581384  0.49074369  0.67795034  1  -0.030768  0  -0.117488  -0.222741  0  4.070043  0
C  C48  1  0.34490678  0.48966533  0.72986805  1  0.290718  0  0.060791  0.20758  0  4.075235  0
C  C49  1  0.44128737  0.49917646  0.76499805  1  -0.00166  0  -0.013797  -0.089849  0  3.902081  0
C  C50  1  0.52137594  0.50330722  0.85284507  1  0.092306  0  -0.046464  -0.16227  0  4.001069  0
C  C51  1  0.47862332  0.50267021  0.65650465  1  0.017063  0  -0.046361  -0.162491  0  4.000653  0
C  C52  1  0.40394476  0.49951672  0.31009885  1  0.010241  0  -0.096346  -0.145167  0  3.987985  0
C  C53  1  0.59587773  0.50085051  0.19921668  1  -0.024755  0  -0.096266  -0.145505  0  3.987752  0
C  C54  1  0.50040394  0.49878996  0.34211155  1  -0.220317  0  -0.026469  -0.10652  0  3.976838  0
C  C55  1  0.49942726  0.50080653  0.16720475  1  -0.123497  0  -0.026175  -0.106625  0  3.978378  0
C  C56  1  0.56145747  0.49983013  0.25120081  1  -0.107963  0  -0.025937  -0.007313  0  4.071064  0
C  C57  1  0.43839396  0.49971075  0.25812573  1  -0.1921  0  -0.026308  -0.007884  0  4.072383  0
C  C58  1  0.13431932  0.44508346  0.03639285  1  0.584421  0  0.068754  0.079614  0  3.878173  0
C  C59  1  0.87364354  0.56370498  0.98575907  1  0.588245  0  0.066971  0.074504  0  3.886737  0
C  C60  1  0.99462847  0.54550118  0.99350437  1  -0.217569  0  -0.011453  -0.083265  0  4.085038  0
C  C61  1  0.01324493  0.46325201  0.02865755  1  -0.188177  0  -0.010018  -0.083446  0  4.077426  0
C  C62  1  0.40322894  0.11658204  0.00788077  1  0.052497  0  -0.097588  -0.147436  0  3.993827  0
C  C63  1  0.59933060  0.89307914  0.01250060  1  0.023741  0  -0.097675  -0.147333  0  3.993599  0
C  C64  1  0.49832180  0.18359537  0.00986404  1  -0.181387  0  -0.025961  -0.107138  0  3.978081  0
C  C65  1  0.50432229  0.82598656  0.01094541  1  -0.166879  0  -0.025864  -0.105503  0  3.976645  0
C  C66  1  0.56281182  0.99875060  0.01155124  1  -0.1357  0  -0.026906  -0.00893  0  4.073444  0
C  C67  1  0.43964144  0.01083063  0.00898335  1  -0.199374  0  -0.027163  -0.008864  0  4.071328  0
S  S68  1  0.87230961  0.59145013  0.53582776  1  0.71658  0  0.269709  0.314177  0  2.786082  0
S  S69  1  0.12003920  0.41346185  0.46047024  1  0.724488  0  0.274229  0.320899  0  2.775168  0
S  S70  1  0.36778372  0.11635862  0.49636514  1  0.242888  0  0.060022  0.090957  0  2.75692  0
S  S71  1  0.62991141  0.88814408  0.50115433  1  0.232592  0  0.059958  0.090267  0  2.753653  0
S  S72  1  0.63338247  0.49889201  0.30925317  1  0.238118  0  0.061332  0.092002  0  2.743669  0
S  S73  1  0.36645119  0.50004419  0.20006523  1  0.235283  0  0.061132  0.091874  0  2.744297  0
S  S74  1  0.12747533  0.59344586  0.97362533  1  0.709551  0  0.269844  0.314991  0  2.786911  0
S  S75  1  0.88031796  0.41594481  0.04886666  1  0.716435  0  0.274617  0.321237  0  2.775063  0
S  S76  1  0.63235347  0.11860991  0.01287899  1  0.238438  0  0.060271  0.091633  0  2.757922  0
S  S77  1  0.37014459  0.89084501  0.00829856  1  0.248303  0  0.059843  0.090204  0  2.753879  0
N  N78  1  0.79770792  0.50620705  0.50007764  1  -1.153031  0  -0.304764  -0.235838  0  3.395456  0
N  N79  1  0.19445599  0.49810171  0.49652996  1  -1.161456  0  -0.304652  -0.235107  0  3.400064  0
N  N80  1  0.20235007  0.50858878  0.00931245  1  -1.155439  0  -0.305247  -0.237345  0  3.398123  0
N  N81  1  0.80563777  0.50027833  0.01288965  1  -1.125044  0  -0.304985  -0.235872  0  3.399786  0
N  N82  1  0.22634878  0.47924406  0.74721158  1  -1.153243  0  -0.609047  -0.622577  0  3.288577  0
N  N83  1  0.31315343  0.52101650  0.83961678  1  -1.298399  0  -0.605461  -0.621993  0  3.390274  0
N  N84  1  0.77363996  0.47878861  0.76208658  1  -1.154281  0  -0.609669  -0.625552  0  3.28842  0
N  N85  1  0.68685258  0.51999506  0.66972765  1  -1.275339  0  -0.605162  -0.622495  0  3.390933  0
O  O86  1  0.59322913  0.66204441  0.49671460  1  -1.171058  0  -0.329291  -0.56004  0  2.331022  0
O  O87  1  0.39326492  0.66384282  0.49857498  1  -1.15481  0  -0.322519  -0.545569  0  2.280632  0
O  O88  1  0.39084844  0.50144571  0.57485174  1  -1.166394  0  -0.328523  -0.556139  0  2.344101  0
O  O89  1  0.58865166  0.51260245  0.57820290  1  -1.172914  0  -0.321102  -0.5577  0  2.342883  0
O  O90  1  0.40295816  0.34165313  0.49591783  1  -1.166427  0  -0.326351  -0.556743  0  2.325694  0
O  O91  1  0.60225556  0.34202389  0.50270401  1  -1.162736  0  -0.324915  -0.546474  0  2.28639  0
O  O92  1  0.59827129  0.49377808  0.42124104  1  -1.161137  0  -0.325953  -0.552202  0  2.304191  0
O  O93  1  0.39865596  0.50332638  0.42008265  1  -1.15819  0  -0.324087  -0.545278  0  2.314797  0
O  O94  1  0.40680085  0.66470146  0.01272831  1  -1.16447  0  -0.328933  -0.558702  0  2.329483  0
O  O95  1  0.60673039  0.66611845  0.01064819  1  -1.165024  0  -0.322698  -0.544745  0  2.282384  0
O  O96  1  0.60906970  0.50241532  0.93451756  1  -1.179891  0  -0.328448  -0.557063  0  2.344422  0
O  O97  1  0.41128955  0.51421859  0.93114031  1  -1.167965  0  -0.321554  -0.558411  0  2.343554  0
O  O98  1  0.59711694  0.34395518  0.01356579  1  -1.162111  0  -0.326639  -0.557589  0  2.323929  0
O  O99  1  0.39788212  0.34454012  0.00648214  1  -1.160863  0  -0.324917  -0.546868  0  2.284576  0
O  O100  1  0.40167394  0.49676382  0.08804538  1  -1.164626  0  -0.325748  -0.551939  0  2.305413  0
O  O101  1  0.60125104  0.50662415  0.08928477  1  -1.162777  0  -0.323691  -0.545082  0  2.314277  0
