# generated using pymatgen
data_ErP4H27C20(NO8)2
_symmetry_space_group_name_H-M   'P 1'
_cell_length_a   7.87779983
_cell_length_b   12.49180114
_cell_length_c   15.30080000
_cell_angle_alpha   110.57107374
_cell_angle_beta   90.29750621
_cell_angle_gamma   90.58520322
_symmetry_Int_Tables_number   1
_chemical_formula_structural   ErP4H27C20(NO8)2
_chemical_formula_sum   'Er2 P8 H54 C40 N4 O32'
_cell_volume   1409.57505533
_cell_formula_units_Z   2
loop_
 _symmetry_equiv_pos_site_id
 _symmetry_equiv_pos_as_xyz
  1  'x, y, z'
loop_
 _atom_site_type_symbol
 _atom_site_label
 _atom_site_symmetry_multiplicity
 _atom_site_fract_x
 _atom_site_fract_y
 _atom_site_fract_z
 _atom_site_occupancy
 _atom_site_hle17_bader_spin_density
 _atom_site_hle17_ddec_charge
 _atom_site_hle17_ddec_spin_density
 _atom_site_hle17_ddec_sum_bond_order
 _atom_site_hle17_magmom
 _atom_site_hse06_10hf_bader_spin_density
 _atom_site_hse06_10hf_ddec_charge
 _atom_site_hse06_10hf_ddec_spin_density
 _atom_site_hse06_10hf_ddec_sum_bond_order
 _atom_site_hse06_10hf_magmom
 _atom_site_hse06_bader_spin_density
 _atom_site_hse06_ddec_charge
 _atom_site_hse06_ddec_spin_density
 _atom_site_hse06_ddec_sum_bond_order
 _atom_site_hse06_magmom
 _atom_site_pbe_bader_charge
 _atom_site_pbe_bader_spin_density
 _atom_site_pbe_cm5_charge
 _atom_site_pbe_ddec_charge
 _atom_site_pbe_ddec_spin_density
 _atom_site_pbe_ddec_sum_bond_order
 _atom_site_pbe_magmom
Er  Er0  1  0.75656136  0.88568979  0.52738910  1  0  2.383051  0  1.718848  0  0  2.260516  0  2.176839  0  0  2.367086  0  2.016025  0  2.188998  0  1.596175  2.230799  0  2.205306  0
Er  Er1  1  0.24344172  0.11430677  0.47261169  1  0  2.382982  0  1.718838  0  0  2.260488  0  2.176749  0  0  2.367009  0  2.016022  0  2.188973  0  1.59617  2.230772  0  2.205231  0
P  P2  1  0.86508196  0.01197419  0.36227607  1  0  1.54623  0  4.872416  0  0  1.388165  0  5.384376  0  0  1.439049  0  5.349186  0  3.365592  0  0.353844  1.352451  0  5.414446  0
P  P3  1  0.13492363  0.98802066  0.63772358  1  0  1.546333  0  4.872015  0  0  1.388252  0  5.38398  0  0  1.439135  0  5.348794  0  3.365735  0  0.353948  1.352539  0  5.414048  0
P  P4  1  0.46805841  0.32638152  0.41563775  1  0  1.55324  0  4.752091  0  0  1.390338  0  5.263555  0  0  1.441062  0  5.224368  0  3.403405  0  0.378621  1.35523  0  5.292379  0
P  P5  1  0.53194594  0.67361504  0.58436304  1  0  1.553104  0  4.751898  0  0  1.390254  0  5.263314  0  0  1.440975  0  5.224126  0  3.40323  0  0.378589  1.35515  0  5.292141  0
P  P6  1  0.98429954  0.62701977  0.43497451  1  0  1.549261  0  4.734947  0  0  1.388394  0  5.246522  0  0  1.43916  0  5.207363  0  3.379616  0  0.383209  1.353293  0  5.275656  0
P  P7  1  0.01570103  0.37297850  0.56502088  1  0  1.549154  0  4.735028  0  0  1.388281  0  5.246593  0  0  1.439047  0  5.207449  0  3.379592  0  0.383178  1.353161  0  5.275729  0
P  P8  1  0.43845267  0.85242150  0.35264827  1  0  1.560914  0  4.774459  0  0  1.401616  0  5.285068  0  0  1.452047  0  5.249315  0  3.408248  0  0.376161  1.366551  0  5.314111  0
P  P9  1  0.56155298  0.14757677  0.64735301  1  0  1.560808  0  4.774627  0  0  1.401512  0  5.285225  0  0  1.45196  0  5.249464  0  3.408355  0  0.376076  1.366458  0  5.314242  0
H  H10  1  0.82893327  0.26547931  0.39465308  1  0  0.289619  0  0.901504  0  0  0.270139  0  0.96278  0  0  0.278423  0  0.957158  0  0.532421  0  0.314602  0.264319  0  0.966725  0
H  H11  1  0.17106991  0.73452239  0.60534984  1  0  0.289541  0  0.901521  0  0  0.270085  0  0.962786  0  0  0.27837  0  0.957156  0  0.532446  0  0.314573  0.264273  0  0.966723  0
H  H12  1  0.34442153  0.65945176  0.40240088  1  0  0.294289  0  0.87481  0  0  0.276268  0  0.933688  0  0  0.284297  0  0.928014  0  0.530078  0  0.320085  0.270653  0  0.93755  0
H  H13  1  0.65558161  0.34054823  0.59759959  1  0  0.294303  0  0.874802  0  0  0.27626  0  0.933716  0  0  0.284286  0  0.928045  0  0.53008  0  0.320084  0.270643  0  0.937577  0
H  H14  1  0.64313894  0.05786399  0.26798508  1  0  0.137734  0  0.933017  0  0  0.14815  0  0.99219  0  0  0.15068  0  0.99149  0  0.079988  0  0.123136  0.146409  0  0.992527  0
H  H15  1  0.35686167  0.94213600  0.73201799  1  0  0.137692  0  0.933113  0  0  0.148127  0  0.99227  0  0  0.150657  0  0.991573  0  0.080142  0  0.123125  0.146386  0  0.992608  0
H  H16  1  0.61120198  0.12370108  0.38892044  1  0  0.140564  0  0.966303  0  0  0.148948  0  1.029916  0  0  0.151747  0  1.028992  0  0.121059  0  0.131203  0.146489  0  1.031506  0
H  H17  1  0.38880499  0.87629976  0.61108419  1  0  0.140588  0  0.966283  0  0  0.148965  0  1.029946  0  0  0.151757  0  1.029032  0  0.121126  0  0.131231  0.146505  0  1.031535  0
H  H18  1  0.55187352  0.23866800  0.25450719  1  0  0.154597  0  0.935316  0  0  0.164819  0  0.994048  0  0  0.167731  0  0.992998  0  0.134445  0  0.125734  0.162741  0  0.994833  0
H  H19  1  0.44813086  0.76133027  0.74549409  1  0  0.154601  0  0.935315  0  0  0.164792  0  0.994077  0  0  0.167705  0  0.993027  0  0.13442  0  0.125724  0.162715  0  0.994864  0
H  H20  1  0.67387444  0.36618546  0.31449452  1  0  0.140084  0  0.938192  0  0  0.150688  0  0.997587  0  0  0.153349  0  0.996329  0  0.089321  0  0.123535  0.14875  0  0.998587  0
H  H21  1  0.32612740  0.63381282  0.68550610  1  0  0.140131  0  0.93815  0  0  0.15073  0  0.997543  0  0  0.153395  0  0.996282  0  0.08929  0  0.123564  0.148792  0  0.998543  0
H  H22  1  0.94370067  0.29728192  0.27118461  1  0  0.095254  0  0.909396  0  0  0.110823  0  0.9667  0  0  0.112379  0  0.965522  0  0.082649  0  0.118697  0.109645  0  0.967653  0
H  H23  1  0.05630125  0.70272063  0.72881920  1  0  0.095287  0  0.909366  0  0  0.110863  0  0.966669  0  0  0.112418  0  0.965491  0  0.082735  0  0.118705  0.109685  0  0.96762  0
H  H24  1  0.00772925  0.16238139  0.27426447  1  0  0.127589  0  0.936283  0  0  0.139153  0  0.993481  0  0  0.141899  0  0.991784  0  0.157145  0  0.127319  0.137265  0  0.994652  0
H  H25  1  0.99227645  0.83761945  0.72573690  1  0  0.127581  0  0.936251  0  0  0.139154  0  0.993454  0  0  0.141898  0  0.991759  0  0.157232  0  0.127311  0.13727  0  0.99462  0
H  H26  1  0.85313567  0.97940537  0.15716204  1  0  0.106567  0  0.964508  0  0  0.116069  0  1.025581  0  0  0.119643  0  1.023684  0  0.090199  0  0.105683  0.113471  0  1.027031  0
H  H27  1  0.14685864  0.02059718  0.84284240  1  0  0.106614  0  0.964381  0  0  0.116096  0  1.025494  0  0  0.119671  0  1.023597  0  0.090144  0  0.105684  0.113491  0  1.026961  0
H  H28  1  0.75673234  0.89192017  0.99227287  1  0  0.094721  0  0.96427  0  0  0.104111  0  1.027667  0  0  0.107353  0  1.025328  0  0.084634  0  0.104547  0.101741  0  1.029425  0
H  H29  1  0.24325691  0.10808324  0.00773181  1  0  0.094689  0  0.964266  0  0  0.104076  0  1.027673  0  0  0.107317  0  1.025331  0  0.084461  0  0.104568  0.101703  0  1.02944  0
H  H30  1  0.74949724  0.22283553  0.96621124  1  0  0.099848  0  0.96103  0  0  0.109524  0  1.024134  0  0  0.112452  0  1.02231  0  0.081341  0  0.105881  0.107372  0  1.025535  0
H  H31  1  0.25050089  0.77716788  0.03379280  1  0  0.099823  0  0.961013  0  0  0.109517  0  1.024109  0  0  0.112447  0  1.022281  0  0.08131  0  0.105873  0.107363  0  1.025511  0
H  H32  1  0.82796190  0.31374291  0.13410202  1  0  0.095435  0  0.946679  0  0  0.10652  0  1.006131  0  0  0.109701  0  1.004845  0  0.029213  0  0.102752  0.104194  0  1.007186  0
H  H33  1  0.17204255  0.68625879  0.86590024  1  0  0.095403  0  0.946603  0  0  0.106527  0  1.00602  0  0  0.109716  0  1.004729  0  0.029251  0  0.102753  0.104201  0  1.007075  0
H  H34  1  0.15470705  0.80147626  0.37840724  1  0  0.160082  0  0.925766  0  0  0.169414  0  0.984418  0  0  0.172953  0  0.982321  0  0.151826  0  0.138116  0.166799  0  0.986165  0
H  H35  1  0.84529869  0.19852629  0.62159462  1  0  0.160059  0  0.925798  0  0  0.169371  0  0.984484  0  0  0.172904  0  0.982394  0  0.15177  0  0.138085  0.166754  0  0.986228  0
H  H36  1  0.20058969  0.74381750  0.25725993  1  0  0.14869  0  0.919214  0  0  0.159599  0  0.976603  0  0  0.162405  0  0.975651  0  0.117818  0  0.12917  0.157581  0  0.977303  0
H  H37  1  0.79941224  0.25618505  0.74274061  1  0  0.148704  0  0.919136  0  0  0.159627  0  0.976519  0  0  0.162435  0  0.975565  0  0.117798  0  0.129188  0.157608  0  0.977217  0
H  H38  1  0.16020735  0.49112389  0.32560323  1  0  0.143419  0  0.952414  0  0  0.152156  0  1.014513  0  0  0.154959  0  1.013164  0  0.106021  0  0.12484  0.150122  0  1.015627  0
H  H39  1  0.83979329  0.50887781  0.67439510  1  0  0.143391  0  0.952468  0  0  0.152128  0  1.01456  0  0  0.154934  0  1.013215  0  0.106015  0  0.124837  0.150095  0  1.015671  0
H  H40  1  0.04867680  0.57681763  0.27181569  1  0  0.155402  0  0.946184  0  0  0.164705  0  1.006143  0  0  0.16785  0  1.004808  0  0.181392  0  0.124222  0.162497  0  1.007077  0
H  H41  1  0.95132640  0.42318492  0.72818289  1  0  0.15543  0  0.946131  0  0  0.164727  0  1.006091  0  0  0.167871  0  1.004763  0  0.18143  0  0.124228  0.162523  0  1.007019  0
H  H42  1  0.52193571  0.62980831  0.26846992  1  0  0.119768  0  0.937164  0  0  0.131745  0  0.99356  0  0  0.134371  0  0.991292  0  0.144615  0  0.126405  0.129816  0  0.995163  0
H  H43  1  0.47806743  0.37019082  0.73152637  1  0  0.119878  0  0.937114  0  0  0.131698  0  0.993642  0  0  0.134346  0  0.991347  0  0.144679  0  0.126382  0.129781  0  0.995248  0
H  H44  1  0.45202366  0.50727959  0.29325315  1  0  0.103813  0  0.94232  0  0  0.114974  0  1.003319  0  0  0.116938  0  1.00193  0  0.105398  0  0.118609  0.113483  0  1.00437  0
H  H45  1  0.54797563  0.49271782  0.70674525  1  0  0.10379  0  0.942339  0  0  0.114944  0  1.003295  0  0  0.116907  0  1.00191  0  0.105319  0  0.118631  0.11346  0  1.00435  0
H  H46  1  0.28293227  0.35978406  0.18726204  1  0  0.103759  0  0.942797  0  0  0.116372  0  0.998201  0  0  0.119527  0  0.996883  0  0.061111  0  0.105874  0.114053  0  0.999307  0
H  H47  1  0.71705816  0.64021507  0.81273487  1  0  0.103729  0  0.942894  0  0  0.116339  0  0.998299  0  0  0.119493  0  0.996983  0  0.061068  0  0.105893  0.114019  0  0.999405  0
H  H48  1  0.15721449  0.27003622  0.02907577  1  0  0.097287  0  0.973681  0  0  0.106876  0  1.036858  0  0  0.109799  0  1.03514  0  0.101543  0  0.104901  0.104737  0  1.03815  0
H  H49  1  0.84277596  0.72996377  0.97092205  1  0  0.09724  0  0.973755  0  0  0.106826  0  1.036945  0  0  0.109747  0  1.035231  0  0.101606  0  0.104871  0.104688  0  1.038235  0
H  H50  1  0.27253513  0.57147999  0.96636034  1  0  0.095368  0  0.953256  0  0  0.105418  0  1.015583  0  0  0.108502  0  1.013806  0  0.073532  0  0.105396  0.103165  0  1.016881  0
H  H51  1  0.72745539  0.42852341  0.03364107  1  0  0.095442  0  0.953201  0  0  0.105477  0  1.015545  0  0  0.108578  0  1.01373  0  0.073598  0  0.105428  0.103224  0  1.016844  0
H  H52  1  0.39426006  0.66558721  0.12717923  1  0  0.109797  0  0.950665  0  0  0.118774  0  1.012691  0  0  0.122111  0  1.01104  0  0.073984  0  0.105487  0.116325  0  1.014008  0
H  H53  1  0.60572535  0.33441448  0.87282168  1  0  0.109785  0  0.950652  0  0  0.118771  0  1.012664  0  0  0.122106  0  1.011014  0  0.073859  0  0.105492  0.11632  0  1.013984  0
H  H54  1  0.68372279  0.02752191  0.75335000  1  0  0.417415  0  0.837518  0  0  0.390171  0  0.909185  0  0  0.401687  0  0.89646  0  0.669883  0  0.320686  0.381953  0  0.918355  0
H  H55  1  0.31628159  0.97247637  0.24665063  1  0  0.417419  0  0.837412  0  0  0.390126  0  0.909154  0  0  0.401654  0  0.896414  0  0.669818  0  0.320684  0.381908  0  0.918324  0
H  H56  1  0.08210662  0.20355865  0.80763455  1  0  0.42796  0  0.851953  0  0  0.397036  0  0.928614  0  0  0.409151  0  0.912263  0  0.680394  0  0.310794  0.388496  0  0.938283  0
H  H57  1  0.91789654  0.79644219  0.19235897  1  0  0.427974  0  0.851956  0  0  0.397105  0  0.92851  0  0  0.409219  0  0.912146  0  0.68045  0  0.310829  0.388565  0  0.938181  0
H  H58  1  0.39704258  0.50605507  0.44099747  1  0  0.436491  0  0.876801  0  0  0.398668  0  0.951198  0  0  0.410596  0  0.934333  0  0.655137  0  0.308247  0.390411  0  0.962834  0
H  H59  1  0.60295663  0.49393807  0.55900102  1  0  0.436413  0  0.876904  0  0  0.398627  0  0.951246  0  0  0.410556  0  0.934379  0  0.655106  0  0.308215  0.390365  0  0.962889  0
H  H60  1  0.87589313  0.46833676  0.44009248  1  0  0.434582  0  0.869346  0  0  0.398757  0  0.942289  0  0  0.410259  0  0.925887  0  0.656347  0  0.309043  0.39076  0  0.953664  0
H  H61  1  0.12410494  0.53166323  0.55990273  1  0  0.434644  0  0.869249  0  0  0.398805  0  0.942228  0  0  0.410312  0  0.925817  0  0.65679  0  0.309039  0.39081  0  0.953601  0
H  H62  1  0.67724969  0.84131440  0.27338943  1  0  0.440016  0  0.868437  0  0  0.403041  0  0.940499  0  0  0.415198  0  0.923281  0  0.662649  0  0.306661  0.394554  0  0.952517  0
H  H63  1  0.32275340  0.15868216  0.72660874  1  0  0.439996  0  0.868481  0  0  0.402986  0  0.940577  0  0  0.415148  0  0.923353  0  0.662686  0  0.30666  0.394496  0  0.952596  0
C  C64  1  0.70731864  0.10466620  0.33437056  1  0  -0.34388  0  3.468266  0  0  -0.375788  0  3.700565  0  0  -0.380651  0  3.70461  0  -0.214142  0  -0.0721  -0.371916  0  3.697115  0
C  C65  1  0.29268701  0.89533208  0.66563268  1  0  -0.343955  0  3.468267  0  0  -0.375931  0  3.700638  0  0  -0.380796  0  3.704693  0  -0.214294  0  -0.072164  -0.372063  0  3.697192  0
C  C66  1  0.62082180  0.28683583  0.31929270  1  0  -0.36497  0  3.498641  0  0  -0.402296  0  3.743719  0  0  -0.407604  0  3.749062  0  -0.286281  0  -0.072872  -0.398397  0  3.739842  0
C  C67  1  0.37917753  0.71316330  0.68070882  1  0  -0.365054  0  3.498635  0  0  -0.402323  0  3.743662  0  0  -0.407635  0  3.749002  0  -0.286209  0  -0.072887  -0.398422  0  3.739783  0
C  C68  1  0.90255126  0.20862264  0.25725792  1  0  -0.06222  0  3.518615  0  0  -0.124809  0  3.76462  0  0  -0.121347  0  3.772306  0  0.154416  0  -0.05568  -0.127001  0  3.759198  0
C  C69  1  0.09745192  0.79137905  0.74274499  1  0  -0.062226  0  3.518545  0  0  -0.124881  0  3.764602  0  0  -0.121415  0  3.772287  0  0.154252  0  -0.055643  -0.127065  0  3.759163  0
C  C70  1  0.84312545  0.15343945  0.15795118  1  0  0.080176  0  3.741899  0  0  0.097478  0  3.984312  0  0  0.097961  0  4.009516  0  0.031984  0  -0.009547  0.097273  0  3.967062  0
C  C71  1  0.15687521  0.84656310  0.84205197  1  0  0.080008  0  3.741995  0  0  0.097421  0  3.984323  0  0  0.097902  0  4.009529  0  0.032096  0  -0.009605  0.097217  0  3.96707  0
C  C72  1  0.82470772  0.03407894  0.11703931  1  0  -0.112996  0  3.70566  0  0  -0.133329  0  3.956195  0  0  -0.137645  0  3.977748  0  -0.113768  0  -0.087165  -0.130398  0  3.941513  0
C  C73  1  0.17529042  0.96592447  0.88296408  1  0  -0.113008  0  3.705547  0  0  -0.133375  0  3.956083  0  0  -0.137694  0  3.977637  0  -0.113713  0  -0.087176  -0.130448  0  3.941402  0
C  C74  1  0.77336958  0.98417435  0.02424934  1  0  -0.047306  0  3.731466  0  0  -0.073853  0  3.981036  0  0  -0.07345  0  4.002616  0  0.040804  0  -0.075151  -0.073857  0  3.966323  0
C  C75  1  0.22662221  0.01582905  0.97575665  1  0  -0.047259  0  3.731518  0  0  -0.073797  0  3.981082  0  0  -0.073387  0  4.002657  0  0.040974  0  -0.075157  -0.073799  0  3.966366  0
C  C76  1  0.74681475  0.05165499  0.96932933  1  0  -0.075975  0  3.77063  0  0  -0.052906  0  4.001422  0  0  -0.062191  0  4.026723  0  -0.066137  0  -0.014716  -0.04693  0  3.984459  0
C  C77  1  0.25317954  0.94834670  0.03067617  1  0  -0.075951  0  3.770601  0  0  -0.052858  0  4.001371  0  0  -0.062146  0  4.026675  0  -0.066  0  -0.014718  -0.046884  0  3.984409  0
C  C78  1  0.76732291  0.17066832  0.00933547  1  0  -0.049348  0  3.72354  0  0  -0.076073  0  3.971153  0  0  -0.07481  0  3.991378  0  -0.008395  0  -0.078638  -0.076679  0  3.957342  0
C  C79  1  0.23267395  0.82933508  0.99066857  1  0  -0.049243  0  3.723393  0  0  -0.075977  0  3.970995  0  0  -0.074715  0  3.991221  0  -0.00869  0  -0.078579  -0.076581  0  3.957182  0
C  C80  1  0.81242625  0.22094316  0.10323467  1  0  -0.123457  0  3.741983  0  0  -0.142344  0  3.991778  0  0  -0.147057  0  4.014147  0  -0.022401  0  -0.087897  -0.139097  0  3.976472  0
C  C81  1  0.18757441  0.77905939  0.89676783  1  0  -0.12342  0  3.74188  0  0  -0.142386  0  3.991687  0  0  -0.147105  0  4.014056  0  -0.022349  0  -0.087898  -0.13914  0  3.976383  0
C  C82  1  0.70183347  0.99401930  0.86863431  1  0  0.648321  0  3.826355  0  0  0.600668  0  4.125013  0  0  0.633378  0  4.116434  0  1.541611  0  0.231673  0.578478  0  4.130247  0
C  C83  1  0.29815829  0.00598239  0.13137053  1  0  0.648448  0  3.826144  0  0  0.600751  0  4.124854  0  0  0.63346  0  4.116276  0  1.541396  0  0.231823  0.578558  0  4.130095  0
C  C84  1  0.25187109  0.75824245  0.32732438  1  0  -0.345586  0  3.471915  0  0  -0.37988  0  3.709945  0  0  -0.385249  0  3.71429  0  -0.319505  0  -0.059944  -0.375732  0  3.706345  0
C  C85  1  0.74812823  0.24175668  0.67267322  1  0  -0.345487  0  3.471865  0  0  -0.37978  0  3.709903  0  0  -0.385158  0  3.714273  0  -0.319281  0  -0.059919  -0.375665  0  3.706381  0
C  C86  1  0.12334523  0.57824738  0.33314907  1  0  -0.367207  0  3.497499  0  0  -0.40495  0  3.740593  0  0  -0.410481  0  3.745798  0  -0.307993  0  -0.075103  -0.400991  0  3.736907  0
C  C87  1  0.87665284  0.42175260  0.66684941  1  0  -0.367214  0  3.497573  0  0  -0.404894  0  3.74057  0  0  -0.410457  0  3.745823  0  -0.30792  0  -0.075111  -0.400934  0  3.736874  0
C  C88  1  0.41340362  0.57333388  0.26590085  1  0  -0.071559  0  3.514636  0  0  -0.13089  0  3.752095  0  0  -0.127338  0  3.75972  0  0.152826  0  -0.058946  -0.133024  0  3.746736  0
C  C89  1  0.58659569  0.42666439  0.73409715  1  0  -0.071672  0  3.514795  0  0  -0.130795  0  3.752132  0  0  -0.127257  0  3.759743  0  0.152879  0  -0.058937  -0.132977  0  3.746838  0
C  C90  1  0.34146887  0.52040135  0.16906502  1  0  0.085279  0  3.736601  0  0  0.103073  0  3.977074  0  0  0.10337  0  4.0019  0  0.018669  0  -0.009036  0.102957  0  3.960094  0
C  C91  1  0.65852285  0.47959864  0.83093345  1  0  0.085316  0  3.736625  0  0  0.103047  0  3.977108  0  0  0.103345  0  4.001935  0  0.018758  0  -0.009049  0.102941  0  3.960135  0
C  C92  1  0.27720534  0.40802885  0.14008891  1  0  -0.119363  0  3.735617  0  0  -0.138777  0  3.983114  0  0  -0.143013  0  4.004919  0  -0.026477  0  -0.086834  -0.135878  0  3.968209  0
C  C93  1  0.72278386  0.59197199  0.85990980  1  0  -0.11931  0  3.735628  0  0  -0.138729  0  3.983165  0  0  -0.142959  0  4.004955  0  -0.026165  0  -0.086895  -0.135826  0  3.968254  0
C  C94  1  0.20843959  0.35665519  0.05108547  1  0  -0.054767  0  3.735817  0  0  -0.080346  0  3.981624  0  0  -0.079751  0  4.002346  0  -0.101726  0  -0.080373  -0.080523  0  3.967477  0
C  C95  1  0.79155216  0.64334650  0.94891087  1  0  -0.054651  0  3.735592  0  0  -0.080245  0  3.981405  0  0  -0.079649  0  4.002127  0  -0.102128  0  -0.080267  -0.080422  0  3.967256  0
C  C96  1  0.20534043  0.41601050  0.98852910  1  0  -0.075277  0  3.768234  0  0  -0.052848  0  3.999195  0  0  -0.061985  0  4.02462  0  -0.00588  0  -0.01583  -0.046909  0  3.982063  0
C  C97  1  0.79465639  0.58399034  0.01146767  1  0  -0.07549  0  3.767947  0  0  -0.053003  0  3.998872  0  0  -0.06214  0  4.024283  0  -0.006025  0  -0.015879  -0.047057  0  3.981736  0
C  C98  1  0.27187793  0.52754242  0.01657477  1  0  -0.055113  0  3.737803  0  0  -0.081468  0  3.989957  0  0  -0.081521  0  4.011952  0  -0.019458  0  -0.077483  -0.081156  0  3.974896  0
C  C99  1  0.72810750  0.47246013  0.98342507  1  0  -0.055107  0  3.737669  0  0  -0.081468  0  3.989806  0  0  -0.081519  0  4.011802  0  -0.019272  0  -0.077447  -0.081157  0  3.974746  0
C  C100  1  0.33927049  0.57959761  0.10615041  1  0  -0.114236  0  3.703536  0  0  -0.136723  0  3.958813  0  0  -0.140626  0  3.98041  0  -0.049865  0  -0.085754  -0.134081  0  3.944133  0
C  C101  1  0.66071873  0.42040409  0.89384854  1  0  -0.114274  0  3.703632  0  0  -0.136741  0  3.958889  0  0  -0.140646  0  3.98049  0  -0.049885  0  -0.08576  -0.134095  0  3.944203  0
C  C102  1  0.14219292  0.35904267  0.89070232  1  0  0.648421  0  3.826103  0  0  0.60055  0  4.126331  0  0  0.633138  0  4.118302  0  1.539958  0  0.228093  0.578392  0  4.131289  0
C  C103  1  0.85781153  0.64095902  0.10929014  1  0  0.648809  0  3.825726  0  0  0.600877  0  4.126039  0  0  0.633491  0  4.117965  0  1.542201  0  0.228137  0.578718  0  4.130997  0
N  N104  1  0.76762179  0.21684800  0.33038114  1  0  -0.007733  0  3.356143  0  0  0.073286  0  3.564187  0  0  0.062648  0  3.582908  0  -0.987274  0  -0.332977  0.080644  0  3.55102  0
N  N105  1  0.23237884  0.78315283  0.66962152  1  0  -0.007532  0  3.355962  0  0  0.07348  0  3.564007  0  0  0.06285  0  3.582726  0  -0.987352  0  -0.332939  0.080836  0  3.550832  0
N  N106  1  0.28486785  0.64511659  0.33698362  1  0  -0.00419  0  3.336769  0  0  0.078223  0  3.540555  0  0  0.067676  0  3.559116  0  -0.998231  0  -0.328361  0.085484  0  3.527541  0
N  N107  1  0.71513275  0.35488254  0.66301594  1  0  -0.004211  0  3.336886  0  0  0.078187  0  3.540639  0  0  0.067646  0  3.559208  0  -0.99828  0  -0.328352  0.08546  0  3.527627  0
O  O108  1  0.65972035  0.89258032  0.83376869  1  0  -0.554536  0  1.892825  0  0  -0.514426  0  2.0985  0  0  -0.533854  0  2.091093  0  -1.16413  0  -0.296856  -0.501118  0  2.103352  0
O  O109  1  0.34026380  0.10742223  0.16623703  1  0  -0.554604  0  1.892734  0  0  -0.51448  0  2.098439  0  0  -0.533905  0  2.091034  0  -1.164119  0  -0.296939  -0.501165  0  2.103288  0
O  O110  1  0.71431189  0.06550274  0.82068752  1  0  -0.545171  0  2.079278  0  0  -0.49564  0  2.294241  0  0  -0.516293  0  2.277999  0  -1.178258  0  -0.331962  -0.481019  0  2.304797  0
O  O111  1  0.28569250  0.93449554  0.17931441  1  0  -0.545246  0  2.079189  0  0  -0.49567  0  2.294262  0  0  -0.516335  0  2.277998  0  -1.178075  0  -0.332028  -0.481051  0  2.304821  0
O  O112  1  0.08062701  0.25345980  0.87591772  1  0  -0.566363  0  2.072497  0  0  -0.517098  0  2.294616  0  0  -0.539021  0  2.277705  0  -1.198654  0  -0.339551  -0.501647  0  2.30434  0
O  O113  1  0.91936989  0.74654532  0.12407570  1  0  -0.566453  0  2.072374  0  0  -0.517202  0  2.294511  0  0  -0.539119  0  2.277568  0  -1.198714  0  -0.339582  -0.501768  0  2.304276  0
O  O114  1  0.14943490  0.40359764  0.83060796  1  0  -0.551813  0  1.886201  0  0  -0.511312  0  2.090469  0  0  -0.53045  0  2.082602  0  -1.150019  0  -0.298484  -0.498315  0  2.09569  0
O  O115  1  0.85058594  0.59639807  0.16938152  1  0  -0.552083  0  1.885989  0  0  -0.511549  0  2.090267  0  0  -0.530741  0  2.082438  0  -1.152258  0  -0.298591  -0.498549  0  2.09549  0
O  O116  1  0.84457149  0.89391430  0.28504552  1  0  -0.858066  0  1.986392  0  0  -0.774459  0  2.225926  0  0  -0.800279  0  2.204315  0  -1.464791  0  -0.363434  -0.756226  0  2.240718  0
O  O117  1  0.15542912  0.10608569  0.71495036  1  0  -0.858156  0  1.986392  0  0  -0.774429  0  2.225888  0  0  -0.800246  0  2.204281  0  -1.465098  0  -0.363459  -0.756191  0  2.24068  0
O  O118  1  0.81544696  0.00885302  0.45812335  1  0  -1.012421  0  2.012105  0  0  -0.944395  0  2.306239  0  0  -0.98258  0  2.283673  0  -1.47808  0  -0.487482  -0.926558  0  2.321596  0
O  O119  1  0.18456112  0.99113927  0.54187426  1  0  -1.012424  0  2.011959  0  0  -0.944407  0  2.306084  0  0  -0.982601  0  2.283569  0  -1.477961  0  -0.487533  -0.926574  0  2.321453  0
O  O120  1  0.04043594  0.06604659  0.36472131  1  0  -0.962116  0  1.997012  0  0  -0.891581  0  2.278809  0  0  -0.927271  0  2.255084  0  -1.468651  0  -0.479638  -0.873965  0  2.293426  0
O  O121  1  0.95957091  0.93394826  0.63527507  1  0  -0.962122  0  1.996933  0  0  -0.891593  0  2.278745  0  0  -0.927303  0  2.25503  0  -1.468644  0  -0.479657  -0.873996  0  2.293404  0
O  O122  1  0.36418549  0.42321058  0.39672412  1  0  -0.761348  0  2.026298  0  0  -0.684801  0  2.259366  0  0  -0.706655  0  2.233894  0  -1.427465  0  -0.383152  -0.669169  0  2.276262  0
O  O123  1  0.63581502  0.57678428  0.60327944  1  0  -0.761175  0  2.02621  0  0  -0.684729  0  2.25928  0  0  -0.70659  0  2.233831  0  -1.427329  0  -0.383107  -0.669091  0  2.276168  0
O  O124  1  0.56265619  0.37361129  0.50861276  1  0  -0.843647  0  2.016381  0  0  -0.76277  0  2.262477  0  0  -0.788207  0  2.243399  0  -1.459487  0  -0.361894  -0.744814  0  2.275197  0
O  O125  1  0.43734693  0.62638699  0.49138721  1  0  -0.843647  0  2.016299  0  0  -0.762752  0  2.262342  0  0  -0.788209  0  2.243314  0  -1.459444  0  -0.361918  -0.744825  0  2.275079  0
O  O126  1  0.35272333  0.22460904  0.40234232  1  0  -0.946665  0  2.003179  0  0  -0.880931  0  2.294842  0  0  -0.916846  0  2.269681  0  -1.458096  0  -0.477204  -0.86354  0  2.309813  0
O  O127  1  0.64728608  0.77538667  0.59765890  1  0  -0.946678  0  2.003137  0  0  -0.880905  0  2.294743  0  0  -0.916828  0  2.269576  0  -1.458097  0  -0.477181  -0.863509  0  2.309712  0
O  O128  1  0.84879224  0.52550896  0.40773427  1  0  -0.738919  0  1.969601  0  0  -0.666591  0  2.193384  0  0  -0.687431  0  2.167538  0  -1.413048  0  -0.382824  -0.65166  0  2.210762  0
O  O129  1  0.15120967  0.47449274  0.59226210  1  0  -0.738879  0  1.969413  0  0  -0.6666  0  2.193291  0  0  -0.687443  0  2.167441  0  -1.413546  0  -0.382794  -0.651675  0  2.21069  0
O  O130  1  0.07868434  0.63128167  0.52318574  1  0  -0.842409  0  2.001124  0  0  -0.761653  0  2.246094  0  0  -0.787208  0  2.227196  0  -1.460081  0  -0.359816  -0.743895  0  2.259001  0
O  O131  1  0.92130997  0.36872088  0.47681152  1  0  -0.842429  0  2.001167  0  0  -0.761654  0  2.246121  0  0  -0.787208  0  2.227224  0  -1.460219  0  -0.359829  -0.743864  0  2.259007  0
O  O132  1  0.90380238  0.73759397  0.43743406  1  0  -0.956627  0  1.96557  0  0  -0.889809  0  2.252192  0  0  -0.926313  0  2.225594  0  -1.465587  0  -0.466595  -0.872716  0  2.267881  0
O  O133  1  0.09619564  0.26240345  0.56256108  1  0  -0.956582  0  1.965648  0  0  -0.889754  0  2.252244  0  0  -0.926243  0  2.225656  0  -1.46555  0  -0.466559  -0.872656  0  2.267942  0
O  O134  1  0.55320410  0.80491896  0.26403880  1  0  -0.765268  0  2.006619  0  0  -0.691954  0  2.233113  0  0  -0.713613  0  2.208135  0  -1.432288  0  -0.378842  -0.676377  0  2.249876  0
O  O135  1  0.44680533  0.19507761  0.73596331  1  0  -0.765301  0  2.006646  0  0  -0.691941  0  2.233183  0  0  -0.713624  0  2.208211  0  -1.43261  0  -0.378866  -0.676358  0  2.249938  0
O  O136  1  0.52169364  0.84315718  0.43924058  1  0  -0.966776  0  1.990819  0  0  -0.900751  0  2.281481  0  0  -0.936379  0  2.257225  0  -1.469069  0  -0.465631  -0.883864  0  2.296612  0
O  O137  1  0.47830943  0.15683853  0.56076061  1  0  -0.966708  0  1.990854  0  0  -0.900687  0  2.281487  0  0  -0.936312  0  2.257231  0  -1.469042  0  -0.465603  -0.883809  0  2.296627  0
O  O138  1  0.37460193  0.97081231  0.36134016  1  0  -0.957644  0  2.012138  0  0  -0.879767  0  2.28675  0  0  -0.915357  0  2.264029  0  -1.464876  0  -0.451617  -0.86187  0  2.301072  0
O  O139  1  0.62540755  0.02918682  0.63866072  1  0  -0.957625  0  2.012086  0  0  -0.879771  0  2.286752  0  0  -0.915342  0  2.263954  0  -1.464962  0  -0.451563  -0.861868  0  2.301069  0
