# generated using pymatgen
data_ZnH20C22(N3O2)2
_symmetry_space_group_name_H-M   'P 1'
_cell_length_a   7.67506448
_cell_length_b   18.49040371
_cell_length_c   19.46175071
_cell_angle_alpha   90.00039390
_cell_angle_beta   90.00012004
_cell_angle_gamma   89.99932682
_symmetry_Int_Tables_number   1
_chemical_formula_structural   ZnH20C22(N3O2)2
_chemical_formula_sum   'Zn4 H80 C88 N24 O16'
_cell_volume   2761.91514254
_cell_formula_units_Z   4
loop_
 _symmetry_equiv_pos_site_id
 _symmetry_equiv_pos_as_xyz
  1  'x, y, z'
loop_
 _atom_site_type_symbol
 _atom_site_label
 _atom_site_symmetry_multiplicity
 _atom_site_fract_x
 _atom_site_fract_y
 _atom_site_fract_z
 _atom_site_occupancy
 _atom_site_pbe_bader_charge
 _atom_site_pbe_bader_spin_density
 _atom_site_pbe_cm5_charge
 _atom_site_pbe_ddec_charge
 _atom_site_pbe_ddec_spin_density
 _atom_site_pbe_ddec_sum_bond_order
 _atom_site_pbe_magmom
Zn  Zn0  1  0.52052402  0.50828799  0.50264781  1  1.264604  0  0.700329  0.78349  0  2.390879  0
Zn  Zn1  1  0.47947962  0.49171065  0.00265007  1  1.264846  0  0.70033  0.783514  0  2.390971  0
Zn  Zn2  1  0.47947993  0.00829089  0.50265130  1  1.264864  0  0.70034  0.783568  0  2.390839  0
Zn  Zn3  1  0.52052371  0.99170829  0.00264915  1  1.264633  0  0.700357  0.783522  0  2.390855  0
H  H4  1  0.60484464  0.72563722  0.48547333  1  0.087374  0  0.101708  0.106026  0  1.033134  0
H  H5  1  0.84750170  0.64083740  0.45697520  1  0.130823  0  0.106076  0.122731  0  1.020098  0
H  H6  1  0.21323878  0.81815586  0.47486445  1  0.16646  0  0.10981  0.138786  0  1.038839  0
H  H7  1  0.96483003  0.90280448  0.49460170  1  0.059462  0  0.102884  0.104979  0  1.032362  0
H  H8  1  0.01712955  0.55994423  0.53173354  1  0.074682  0  0.10493  0.159448  0  1.002785  0
H  H9  1  0.08487789  0.63562675  0.58157312  1  0.029138  0  0.104629  0.152782  0  0.981354  0
H  H10  1  0.21500561  0.55505382  0.58004889  1  0.109348  0  0.106556  0.159039  0  1.012449  0
H  H11  1  0.37243881  0.79403448  0.37248208  1  0.098249  0  0.108738  0.16305  0  0.989478  0
H  H12  1  0.19269614  0.75439258  0.32914508  1  0.071429  0  0.102109  0.146313  0  0.985083  0
H  H13  1  0.41020215  0.72595073  0.30923782  1  0.067566  0  0.106861  0.155434  0  0.987334  0
H  H14  1  0.30345612  0.55933163  0.76590118  1  0.127106  0  0.103977  0.106785  0  1.028459  0
H  H15  1  0.06576002  0.56923541  0.67838124  1  0.059038  0  0.105284  0.112057  0  1.038179  0
H  H16  1  0.69117895  0.49959451  0.83003567  1  0.145341  0  0.111279  0.137147  0  1.017142  0
H  H17  1  0.93016884  0.48961880  0.91621966  1  0.100309  0  0.105337  0.106767  0  1.027429  0
H  H18  1  0.73946588  0.40382220  0.58350976  1  0.151513  0  0.108793  0.171379  0  1.012353  0
H  H19  1  0.82285569  0.40037836  0.66955138  1  0.069661  0  0.106169  0.155039  0  0.971249  0
H  H20  1  0.94281348  0.44538118  0.60455126  1  0.074243  0  0.105735  0.157242  0  0.990385  0
H  H21  1  0.50703413  0.69630960  0.72626345  1  0.089943  0  0.10911  0.159357  0  0.979834  0
H  H22  1  0.72540390  0.68287788  0.75531279  1  0.069222  0  0.106029  0.153238  0  0.973586  0
H  H23  1  0.55319898  0.63354961  0.79423043  1  0.115707  0  0.107481  0.16309  0  1.005779  0
H  H24  1  0.39515765  0.27436384  0.98547561  1  0.087358  0  0.101725  0.106059  0  1.033085  0
H  H25  1  0.15249654  0.35916237  0.95697629  1  0.130851  0  0.106059  0.12272  0  1.020147  0
H  H26  1  0.78676085  0.18184350  0.97486748  1  0.166407  0  0.109829  0.138788  0  1.0388  0
H  H27  1  0.03517231  0.09719502  0.99460407  1  0.059442  0  0.102851  0.10497  0  1.03236  0
H  H28  1  0.98287685  0.44005462  0.03173896  1  0.074881  0  0.10491  0.159421  0  1.00276  0
H  H29  1  0.91511965  0.36437030  0.08157542  1  0.02904  0  0.104643  0.152814  0  0.981453  0
H  H30  1  0.78498801  0.44494430  0.08005418  1  0.10955  0  0.106571  0.159009  0  1.012472  0
H  H31  1  0.62755897  0.20596522  0.87248153  1  0.098249  0  0.108739  0.163062  0  0.989464  0
H  H32  1  0.80729881  0.24560734  0.82914442  1  0.071458  0  0.102129  0.146378  0  0.985057  0
H  H33  1  0.58979660  0.27405013  0.80923974  1  0.067527  0  0.106851  0.155428  0  0.987401  0
H  H34  1  0.69654892  0.44067054  0.26589558  1  0.12706  0  0.103965  0.106725  0  1.028501  0
H  H35  1  0.93425237  0.43076721  0.17837577  1  0.058932  0  0.105295  0.112082  0  1.038175  0
H  H36  1  0.30882643  0.50041190  0.33003784  1  0.145524  0  0.111285  0.137088  0  1.017187  0
H  H37  1  0.06982526  0.51038608  0.41621810  1  0.100339  0  0.105312  0.106682  0  1.027425  0
H  H38  1  0.26053428  0.59617918  0.08351355  1  0.151665  0  0.108757  0.171351  0  1.012368  0
H  H39  1  0.17714884  0.59962148  0.16955204  1  0.069636  0  0.10616  0.155016  0  0.971257  0
H  H40  1  0.05718939  0.55461820  0.10455358  1  0.074013  0  0.105698  0.157198  0  0.990401  0
H  H41  1  0.49297069  0.30369282  0.22626398  1  0.0903  0  0.109089  0.159334  0  0.979817  0
H  H42  1  0.27460108  0.31712421  0.25531271  1  0.069274  0  0.106  0.153179  0  0.973618  0
H  H43  1  0.44680881  0.36645276  0.29423185  1  0.11559  0  0.107486  0.163068  0  1.005705  0
H  H44  1  0.39515180  0.22563513  0.48547983  1  0.087301  0  0.101759  0.106119  0  1.033169  0
H  H45  1  0.15249828  0.14083650  0.45698151  1  0.130858  0  0.106083  0.122736  0  1.020053  0
H  H46  1  0.78676151  0.31815563  0.47486512  1  0.166449  0  0.109805  0.138796  0  1.038914  0
H  H47  1  0.03516799  0.40280362  0.49459763  1  0.059518  0  0.102873  0.105001  0  1.032335  0
H  H48  1  0.98287179  0.05994466  0.53173951  1  0.074929  0  0.104941  0.159473  0  1.002708  0
H  H49  1  0.91511247  0.13563022  0.58157645  1  0.029031  0  0.104612  0.152768  0  0.981525  0
H  H50  1  0.78498179  0.05505630  0.58005366  1  0.109519  0  0.106568  0.158998  0  1.012439  0
H  H51  1  0.62755380  0.29403395  0.37247953  1  0.098252  0  0.108734  0.163067  0  0.989497  0
H  H52  1  0.80730126  0.25439171  0.32914319  1  0.071439  0  0.102135  0.146352  0  0.985058  0
H  H53  1  0.58979464  0.22594823  0.30923832  1  0.06763  0  0.106855  0.155432  0  0.98732  0
H  H54  1  0.69654779  0.05932265  0.76589766  1  0.12712  0  0.103981  0.106753  0  1.028408  0
H  H55  1  0.93425096  0.06922256  0.67837689  1  0.058994  0  0.105306  0.112062  0  1.038234  0
H  H56  1  0.30882986  0.99958940  0.83004382  1  0.145398  0  0.111293  0.137133  0  1.017037  0
H  H57  1  0.06983288  0.98961810  0.91622555  1  0.100117  0  0.105301  0.106735  0  1.027432  0
H  H58  1  0.26053910  0.90381949  0.58351120  1  0.151593  0  0.108773  0.171351  0  1.012439  0
H  H59  1  0.17715375  0.90037552  0.66954966  1  0.069624  0  0.10614  0.155012  0  0.971239  0
H  H60  1  0.05719435  0.94538054  0.60455252  1  0.074007  0  0.105715  0.157234  0  0.990431  0
H  H61  1  0.49295268  0.19630379  0.72626798  1  0.090097  0  0.109016  0.159202  0  0.9798  0
H  H62  1  0.27458866  0.18287314  0.75531508  1  0.069208  0  0.106019  0.153174  0  0.973657  0
H  H63  1  0.44680039  0.13354619  0.79423595  1  0.11549  0  0.107445  0.163027  0  1.005794  0
H  H64  1  0.60484398  0.77436485  0.98548041  1  0.087308  0  0.101756  0.106103  0  1.033156  0
H  H65  1  0.84749605  0.85916219  0.95697975  1  0.130923  0  0.106088  0.122692  0  1.020107  0
H  H66  1  0.21323421  0.68184751  0.97486630  1  0.166896  0  0.109826  0.138813  0  1.038935  0
H  H67  1  0.96483826  0.59719750  0.99460094  1  0.05952  0  0.102861  0.104949  0  1.032436  0
H  H68  1  0.01712418  0.94005581  0.03173814  1  0.074968  0  0.104901  0.159402  0  1.002809  0
H  H69  1  0.08488507  0.86437224  0.08157516  1  0.02911  0  0.104619  0.152778  0  0.981448  0
H  H70  1  0.21501444  0.94494506  0.08005301  1  0.109538  0  0.106579  0.15902  0  1.012412  0
H  H71  1  0.37244529  0.70596358  0.87248203  1  0.0982  0  0.108687  0.162994  0  0.989495  0
H  H72  1  0.19270150  0.74560388  0.82914374  1  0.071424  0  0.102143  0.146357  0  0.985038  0
H  H73  1  0.41020541  0.77404668  0.80923976  1  0.067456  0  0.106826  0.155403  0  0.987401  0
H  H74  1  0.30344682  0.94067573  0.26589551  1  0.127076  0  0.104011  0.106767  0  1.028454  0
H  H75  1  0.06574319  0.93077356  0.17837653  1  0.058984  0  0.105256  0.112015  0  1.038247  0
H  H76  1  0.69117161  0.00040836  0.33004305  1  0.145442  0  0.11126  0.13709  0  1.017185  0
H  H77  1  0.93017165  0.01038137  0.41622351  1  0.100192  0  0.105303  0.106746  0  1.027399  0
H  H78  1  0.73946627  0.09617865  0.08351161  1  0.151633  0  0.108757  0.171335  0  1.012389  0
H  H79  1  0.82285207  0.09962162  0.16955016  1  0.069676  0  0.106172  0.155065  0  0.971257  0
H  H80  1  0.94280853  0.05461559  0.10455283  1  0.073968  0  0.105703  0.157189  0  0.990406  0
H  H81  1  0.50703520  0.80369539  0.22626562  1  0.090388  0  0.109024  0.159252  0  0.979818  0
H  H82  1  0.72540329  0.81712625  0.25531453  1  0.069242  0  0.10603  0.153203  0  0.973626  0
H  H83  1  0.55319307  0.86645456  0.29423403  1  0.115502  0  0.107455  0.163005  0  1.005799  0
C  C84  1  0.62131940  0.86998131  0.50573200  1  1.563947  0  0.197921  0.572184  0  4.233994  0
C  C85  1  0.77000417  0.81907503  0.49191865  1  -0.044201  0  -0.018468  -0.035036  0  3.962103  0
C  C86  1  0.73799242  0.74531573  0.48194396  1  -0.008941  0  -0.083288  -0.075565  0  3.971778  0
C  C87  1  0.87378083  0.69793509  0.46674739  1  -0.082175  0  -0.091685  -0.171917  0  3.973552  0
C  C88  1  0.04348253  0.72533295  0.46407728  1  0.275235  0  0.087235  0.174737  0  4.024028  0
C  C89  1  0.07906168  0.79860064  0.47478058  1  -0.112963  0  -0.09233  -0.174469  0  3.954024  0
C  C90  1  0.94087662  0.84531956  0.48754459  1  0.096356  0  -0.083263  -0.075833  0  3.973387  0
C  C91  1  0.13138619  0.59066536  0.54955069  1  -0.024058  0  -0.227897  -0.482076  0  3.952218  0
C  C92  1  0.23238804  0.61908396  0.49072415  1  0.992802  0  0.240286  0.350828  0  3.943958  0
C  C93  1  0.31664415  0.68536430  0.40285821  1  0.955068  0  0.229969  0.332094  0  3.980469  0
C  C94  1  0.32252458  0.74331145  0.35039395  1  -0.048325  0  -0.223087  -0.462037  0  3.94651  0
C  C95  1  0.27989110  0.51908804  0.89613188  1  1.547803  0  0.199024  0.561939  0  4.218425  0
C  C96  1  0.13188694  0.52323794  0.84593439  1  0.041086  0  -0.012471  -0.028529  0  3.959796  0
C  C97  1  0.16946659  0.54584446  0.77887217  1  -0.077982  0  -0.082386  -0.077049  0  3.98279  0
C  C98  1  0.03771244  0.55106083  0.73035851  1  0.013062  0  -0.092329  -0.173884  0  4.003684  0
C  C99  1  0.86711163  0.53358115  0.74909863  1  0.257021  0  0.089633  0.174652  0  4.031496  0
C  C100  1  0.82572615  0.51125964  0.81565627  1  -0.089002  0  -0.081551  -0.155119  0  3.926986  0
C  C101  1  0.95999884  0.50603624  0.86384365  1  -0.01142  0  -0.076016  -0.069465  0  3.941377  0
C  C102  1  0.81047865  0.43399891  0.62326942  1  -0.061149  0  -0.225034  -0.470141  0  3.923948  0
C  C103  1  0.71490330  0.50150070  0.63935602  1  0.948756  0  0.238377  0.350084  0  3.945866  0
C  C104  1  0.61872438  0.59889111  0.69266497  1  0.957568  0  0.22803  0.336223  0  3.990576  0
C  C105  1  0.59998771  0.65612752  0.74528169  1  -0.085982  0  -0.224998  -0.470069  0  3.947457  0
C  C106  1  0.37868426  0.13002059  0.00573131  1  1.563938  0  0.197864  0.572142  0  4.233902  0
C  C107  1  0.22999685  0.18092445  0.99191813  1  -0.044193  0  -0.01843  -0.034943  0  3.962014  0
C  C108  1  0.26200855  0.25468313  0.98194394  1  -0.009043  0  -0.083316  -0.075651  0  3.971851  0
C  C109  1  0.12622267  0.30206366  0.96674705  1  -0.082131  0  -0.091662  -0.171858  0  3.9737  0
C  C110  1  0.95651574  0.27466578  0.96407951  1  0.275171  0  0.08726  0.17475  0  4.024195  0
C  C111  1  0.92093795  0.20139980  0.97478179  1  -0.112855  0  -0.09235  -0.174487  0  3.95408  0
C  C112  1  0.05912308  0.15467988  0.98754735  1  0.096406  0  -0.083277  -0.075861  0  3.97338  0
C  C113  1  0.86861640  0.40933308  0.04955479  1  -0.024434  0  -0.227923  -0.482066  0  3.952245  0
C  C114  1  0.76761167  0.38091497  0.99072641  1  0.992999  0  0.240305  0.350831  0  3.943993  0
C  C115  1  0.68335510  0.31463507  0.90285739  1  0.955029  0  0.230082  0.332305  0  3.980304  0
C  C116  1  0.67747569  0.25668862  0.85039481  1  -0.048311  0  -0.223109  -0.462159  0  3.946629  0
C  C117  1  0.72011332  0.48091075  0.39613170  1  1.547848  0  0.199089  0.562034  0  4.218097  0
C  C118  1  0.86810549  0.47676751  0.34593122  1  0.040907  0  -0.012536  -0.028595  0  3.959794  0
C  C119  1  0.83053200  0.45415671  0.27887088  1  -0.077881  0  -0.082343  -0.076871  0  3.982855  0
C  C120  1  0.96228850  0.44894216  0.23035729  1  0.013112  0  -0.092368  -0.173995  0  4.00371  0
C  C121  1  0.13288810  0.46642576  0.24909582  1  0.25716  0  0.089666  0.174588  0  4.031537  0
C  C122  1  0.17426872  0.48875046  0.31565415  1  -0.089218  0  -0.081545  -0.155035  0  3.926921  0
C  C123  1  0.03999108  0.49396988  0.36384145  1  -0.011373  0  -0.075979  -0.069374  0  3.941098  0
C  C124  1  0.18952563  0.56600060  0.12327089  1  -0.061031  0  -0.224905  -0.469967  0  3.923965  0
C  C125  1  0.28510497  0.49850109  0.13935508  1  0.94878  0  0.238388  0.350017  0  3.945827  0
C  C126  1  0.38127636  0.40111107  0.19266553  1  0.957577  0  0.228052  0.336191  0  3.990547  0
C  C127  1  0.40001461  0.34387504  0.24528292  1  -0.086242  0  -0.224923  -0.469939  0  3.947278  0
C  C128  1  0.37869915  0.36997552  0.50573336  1  1.563969  0  0.197897  0.572071  0  4.234125  0
C  C129  1  0.22999358  0.31907592  0.49191885  1  -0.044237  0  -0.018472  -0.034984  0  3.961869  0
C  C130  1  0.26201257  0.24531376  0.48194676  1  -0.008872  0  -0.083363  -0.075825  0  3.97199  0
C  C131  1  0.12622541  0.19793541  0.46675213  1  -0.082153  0  -0.091689  -0.171755  0  3.973493  0
C  C132  1  0.95651772  0.22533081  0.46408220  1  0.275061  0  0.087198  0.17465  0  4.024009  0
C  C133  1  0.92093395  0.29860192  0.47477981  1  -0.112909  0  -0.092287  -0.17447  0  3.954008  0
C  C134  1  0.05912428  0.34531858  0.48754413  1  0.096306  0  -0.083267  -0.075815  0  3.973409  0
C  C135  1  0.86860917  0.09066797  0.54955604  1  -0.024495  0  -0.227967  -0.482158  0  3.952404  0
C  C136  1  0.76761012  0.11908599  0.49072737  1  0.992799  0  0.240288  0.350919  0  3.943724  0
C  C137  1  0.68335038  0.18536567  0.40285879  1  0.955056  0  0.230062  0.332207  0  3.98033  0
C  C138  1  0.67747586  0.24331122  0.35039350  1  -0.048421  0  -0.223109  -0.462112  0  3.946538  0
C  C139  1  0.72010811  0.01909030  0.89613248  1  1.547939  0  0.199076  0.561978  0  4.218337  0
C  C140  1  0.86811840  0.02322974  0.84593461  1  0.037722  0  -0.012573  -0.028504  0  3.959533  0
C  C141  1  0.83053386  0.04583916  0.77887338  1  -0.074525  0  -0.082373  -0.077051  0  3.982739  0
C  C142  1  0.96228630  0.05105325  0.73035932  1  0.013197  0  -0.092255  -0.173675  0  4.003715  0
C  C143  1  0.13288770  0.03356791  0.74910184  1  0.256563  0  0.089536  0.174302  0  4.031723  0
C  C144  1  0.17427676  0.01124890  0.81566054  1  -0.088607  0  -0.081561  -0.155032  0  3.926779  0
C  C145  1  0.04000448  0.00603535  0.86384884  1  -0.011526  0  -0.075966  -0.069485  0  3.941158  0
C  C146  1  0.18952830  0.93399871  0.62327028  1  -0.060986  0  -0.224956  -0.470082  0  3.924008  0
C  C147  1  0.28510547  0.00149861  0.63935730  1  0.948663  0  0.238426  0.350152  0  3.945827  0
C  C148  1  0.38127542  0.09888530  0.69266889  1  0.958166  0  0.228026  0.336241  0  3.990379  0
C  C149  1  0.40000554  0.15612162  0.74528666  1  -0.085998  0  -0.224841  -0.4698  0  3.947286  0
C  C150  1  0.62130841  0.63002476  0.00573458  1  1.563809  0  0.197834  0.572008  0  4.233863  0
C  C151  1  0.77000614  0.68092464  0.99191998  1  -0.044247  0  -0.018448  -0.034915  0  3.961692  0
C  C152  1  0.73798971  0.75468781  0.98194680  1  -0.008894  0  -0.083288  -0.07572  0  3.971806  0
C  C153  1  0.87377809  0.80206389  0.96675156  1  -0.082295  0  -0.091723  -0.171779  0  3.973649  0
C  C154  1  0.04348055  0.77466684  0.96408076  1  0.27519  0  0.087231  0.174674  0  4.024111  0
C  C155  1  0.07906307  0.70139798  0.97477947  1  -0.1134  0  -0.092329  -0.1745  0  3.954183  0
C  C156  1  0.94087542  0.65468303  0.98754831  1  0.096371  0  -0.08328  -0.075849  0  3.973496  0
C  C157  1  0.13138559  0.90933479  0.04955354  1  -0.024628  0  -0.22785  -0.481942  0  3.952229  0
C  C158  1  0.23238829  0.88091456  0.99072627  1  0.992936  0  0.240241  0.350676  0  3.94392  0
C  C159  1  0.31664626  0.81463263  0.90286041  1  0.955073  0  0.230028  0.332076  0  3.980369  0
C  C160  1  0.32252441  0.75668561  0.85039372  1  -0.04822  0  -0.223047  -0.462001  0  3.946455  0
C  C161  1  0.27988849  0.98091281  0.39613006  1  1.547826  0  0.199073  0.56201  0  4.218047  0
C  C162  1  0.13188575  0.97676597  0.34593358  1  0.041108  0  -0.012511  -0.028484  0  3.959454  0
C  C163  1  0.16946473  0.95416094  0.27887121  1  -0.077871  0  -0.08238  -0.076997  0  3.982687  0
C  C164  1  0.03770552  0.94894271  0.23035854  1  0.01317  0  -0.092298  -0.173805  0  4.003717  0
C  C165  1  0.86710943  0.96642765  0.24910135  1  0.256726  0  0.089628  0.174513  0  4.03156  0
C  C166  1  0.82572463  0.98874768  0.31566016  1  -0.088799  0  -0.081565  -0.155106  0  3.926884  0
C  C167  1  0.96000108  0.99396698  0.36384655  1  -0.011516  0  -0.075958  -0.069409  0  3.940986  0
C  C168  1  0.81047077  0.06599918  0.12327055  1  -0.060966  0  -0.224971  -0.470072  0  3.924015  0
C  C169  1  0.71489238  0.99850048  0.13935689  1  0.948647  0  0.238365  0.350023  0  3.945842  0
C  C170  1  0.61872532  0.90111309  0.19266726  1  0.95807  0  0.228023  0.336193  0  3.990498  0
C  C171  1  0.59998766  0.84387715  0.24528566  1  -0.086172  0  -0.224857  -0.469823  0  3.947299  0
N  N172  1  0.38103074  0.59317926  0.46625819  1  -0.791371  0  -0.244971  -0.238427  0  3.510895  0
N  N173  1  0.43394163  0.63389356  0.41071761  1  -0.685057  0  -0.233582  -0.267297  0  3.151167  0
N  N174  1  0.18714971  0.67781277  0.45179617  1  -1.259637  0  -0.213297  -0.130741  0  3.686741  0
N  N175  1  0.59300932  0.53291337  0.60137183  1  -0.78629  0  -0.245813  -0.245991  0  3.505948  0
N  N176  1  0.53171395  0.59390853  0.63442607  1  -0.707897  0  -0.239636  -0.278415  0  3.152428  0
N  N177  1  0.73451445  0.54191642  0.69790280  1  -1.246546  0  -0.217856  -0.138976  0  3.689058  0
N  N178  1  0.61897015  0.40681895  0.96626100  1  -0.791641  0  -0.244951  -0.238452  0  3.511004  0
N  N179  1  0.56606027  0.36610641  0.91071806  1  -0.684902  0  -0.233618  -0.267333  0  3.15109  0
N  N180  1  0.81284719  0.32218588  0.95179705  1  -1.25957  0  -0.213371  -0.130861  0  3.686976  0
N  N181  1  0.40700136  0.46708706  0.10137181  1  -0.786331  0  -0.245845  -0.246051  0  3.505935  0
N  N182  1  0.46828909  0.40609215  0.13442827  1  -0.707959  0  -0.239714  -0.278398  0  3.152424  0
N  N183  1  0.26549283  0.45808850  0.19790363  1  -1.246619  0  -0.217888  -0.138902  0  3.689067  0
N  N184  1  0.61896541  0.09318094  0.46625923  1  -0.791411  0  -0.244975  -0.238553  0  3.510978  0
N  N185  1  0.56605569  0.13389496  0.41071706  1  -0.684899  0  -0.233577  -0.267223  0  3.151181  0
N  N186  1  0.81284529  0.17781458  0.45179686  1  -1.259426  0  -0.213308  -0.130811  0  3.686784  0
N  N187  1  0.40699576  0.03291231  0.60137218  1  -0.786307  0  -0.245905  -0.246177  0  3.505917  0
N  N188  1  0.46828047  0.09390878  0.63442852  1  -0.708336  0  -0.239595  -0.278316  0  3.152188  0
N  N189  1  0.26549480  0.04190848  0.69790817  1  -1.246488  0  -0.217893  -0.138872  0  3.688995  0
N  N190  1  0.38103417  0.90681836  0.96625945  1  -0.791511  0  -0.245009  -0.238502  0  3.511028  0
N  N191  1  0.43393969  0.86610393  0.91071655  1  -0.684808  0  -0.23353  -0.267131  0  3.151106  0
N  N192  1  0.18714770  0.82218569  0.95179585  1  -1.259614  0  -0.21332  -0.13072  0  3.686815  0
N  N193  1  0.59300319  0.96708542  0.10137146  1  -0.786363  0  -0.245864  -0.246025  0  3.505869  0
N  N194  1  0.53171605  0.90609135  0.13442787  1  -0.708393  0  -0.239596  -0.278303  0  3.152268  0
N  N195  1  0.73450336  0.95808941  0.19790751  1  -1.246525  0  -0.217895  -0.138956  0  3.68904  0
O  O196  1  0.66712525  0.93724314  0.51187455  1  -1.167503  0  -0.343956  -0.571361  0  2.3588  0
O  O197  1  0.46850538  0.84681077  0.50981423  1  -1.187656  0  -0.328809  -0.565259  0  2.149261  0
O  O198  1  0.24547627  0.49374655  0.95699013  1  -1.159741  0  -0.334493  -0.558573  0  2.269384  0
O  O199  1  0.42874293  0.53962204  0.87813517  1  -1.172266  0  -0.317096  -0.550728  0  2.158416  0
O  O200  1  0.33288235  0.06275827  0.01187235  1  -1.167432  0  -0.343909  -0.571286  0  2.358758  0
O  O201  1  0.53150090  0.15319171  0.00981536  1  -1.187716  0  -0.328833  -0.565325  0  2.149186  0
O  O202  1  0.75453108  0.50625700  0.45698808  1  -1.159517  0  -0.334476  -0.558532  0  2.269182  0
O  O203  1  0.57125879  0.46037283  0.37813164  1  -1.172233  0  -0.317136  -0.550815  0  2.158205  0
O  O204  1  0.33287841  0.43723919  0.51186815  1  -1.167321  0  -0.343911  -0.571289  0  2.358883  0
O  O205  1  0.53150211  0.34680801  0.50981520  1  -1.187889  0  -0.328774  -0.565167  0  2.14937  0
O  O206  1  0.75452816  0.99374520  0.95698683  1  -1.15955  0  -0.334459  -0.558531  0  2.269357  0
O  O207  1  0.57125561  0.03962125  0.87813154  1  -1.172312  0  -0.317118  -0.550767  0  2.158451  0
O  O208  1  0.66712658  0.56276005  0.01186949  1  -1.167282  0  -0.343886  -0.571274  0  2.358613  0
O  O209  1  0.46850287  0.65319014  0.00981593  1  -1.187755  0  -0.328794  -0.565178  0  2.149302  0
O  O210  1  0.24547398  0.00625781  0.45698830  1  -1.159714  0  -0.334474  -0.558588  0  2.269215  0
O  O211  1  0.42874351  0.96037848  0.37813167  1  -1.172242  0  -0.317143  -0.550809  0  2.15827  0
