# generated using pymatgen
data_NaH5C5SO4
_symmetry_space_group_name_H-M   'P 1'
_cell_length_a   5.46354912
_cell_length_b   10.67808304
_cell_length_c   11.65493614
_cell_angle_alpha   96.63771581
_cell_angle_beta   90.00002369
_cell_angle_gamma   89.99995547
_symmetry_Int_Tables_number   1
_chemical_formula_structural   NaH5C5SO4
_chemical_formula_sum   'Na4 H20 C20 S4 O16'
_cell_volume   675.39387922
_cell_formula_units_Z   4
loop_
 _symmetry_equiv_pos_site_id
 _symmetry_equiv_pos_as_xyz
  1  'x, y, z'
loop_
 _atom_site_type_symbol
 _atom_site_label
 _atom_site_symmetry_multiplicity
 _atom_site_fract_x
 _atom_site_fract_y
 _atom_site_fract_z
 _atom_site_occupancy
 _atom_site_hle17_bader_spin_density
 _atom_site_hle17_ddec_charge
 _atom_site_hle17_ddec_spin_density
 _atom_site_hle17_ddec_sum_bond_order
 _atom_site_hle17_magmom
 _atom_site_hse06_10hf_bader_spin_density
 _atom_site_hse06_10hf_ddec_charge
 _atom_site_hse06_10hf_ddec_spin_density
 _atom_site_hse06_10hf_ddec_sum_bond_order
 _atom_site_hse06_10hf_magmom
 _atom_site_hse06_bader_spin_density
 _atom_site_hse06_ddec_charge
 _atom_site_hse06_ddec_spin_density
 _atom_site_hse06_ddec_sum_bond_order
 _atom_site_hse06_magmom
 _atom_site_pbe_bader_spin_density
 _atom_site_pbe_cm5_charge
 _atom_site_pbe_ddec_charge
 _atom_site_pbe_ddec_spin_density
 _atom_site_pbe_ddec_sum_bond_order
 _atom_site_pbe_magmom
Na  Na0  1  0.90343695  0.67401732  0.59574578  1  0  0.916196  0  0.36932  0  0  0.887781  0  0.501022  0  0  0.895619  0  0.481373  0  0  0.69471  0.881674  0  0.515607  0
Na  Na1  1  0.40344114  0.82598370  0.40425521  1  0  0.916211  0  0.369319  0  0  0.887773  0  0.501084  0  0  0.895604  0  0.481415  0  0  0.694693  0.881654  0  0.515664  0
Na  Na2  1  0.09656394  0.32598580  0.40425431  1  0  0.916192  0  0.369325  0  0  0.887785  0  0.501024  0  0  0.895604  0  0.481381  0  0  0.694701  0.881673  0  0.515605  0
Na  Na3  1  0.59655976  0.17401187  0.59574326  1  0  0.916201  0  0.369315  0  0  0.887764  0  0.501062  0  0  0.895596  0  0.481403  0  0  0.694694  0.881649  0  0.515651  0
H  H4  1  0.72692366  0.87614779  0.81833858  1  0  0.099305  0  0.975049  0  0  0.107301  0  1.039579  0  0  0.11119  0  1.036536  0  0  0.108652  0.104488  0  1.041781  0
H  H5  1  0.22692017  0.62386087  0.18166408  1  0  0.099401  0  0.975013  0  0  0.107355  0  1.039574  0  0  0.111284  0  1.036488  0  0  0.108667  0.104542  0  1.041781  0
H  H6  1  0.27307906  0.12385912  0.18166877  1  0  0.099433  0  0.975036  0  0  0.107386  0  1.039605  0  0  0.1113  0  1.036538  0  0  0.108715  0.104577  0  1.041806  0
H  H7  1  0.77308621  0.37614035  0.81833411  1  0  0.099386  0  0.975065  0  0  0.107336  0  1.03963  0  0  0.111263  0  1.036548  0  0  0.108676  0.104524  0  1.041831  0
H  H8  1  0.43129751  0.14976497  0.82472281  1  0  0.106182  0  0.956564  0  0  0.112936  0  1.023917  0  0  0.1168  0  1.021012  0  0  0.111592  0.110057  0  1.026182  0
H  H9  1  0.93130310  0.35022404  0.17527725  1  0  0.106098  0  0.956584  0  0  0.112918  0  1.023876  0  0  0.116783  0  1.020971  0  0  0.11157  0.110026  0  1.026158  0
H  H10  1  0.56867409  0.85023159  0.17528776  1  0  0.105937  0  0.956551  0  0  0.112853  0  1.023775  0  0  0.116718  0  1.020873  0  0  0.111536  0.109949  0  1.026067  0
H  H11  1  0.06871061  0.64977435  0.82472151  1  0  0.106048  0  0.956749  0  0  0.112906  0  1.023985  0  0  0.116789  0  1.02106  0  0  0.111606  0.109991  0  1.026282  0
H  H12  1  0.47640358  0.79331565  0.96691846  1  0  0.088929  0  0.984564  0  0  0.099627  0  1.045072  0  0  0.101033  0  1.047199  0  0  0.098209  0.09832  0  1.044395  0
H  H13  1  0.97640529  0.70669664  0.03308453  1  0  0.089003  0  0.984317  0  0  0.099683  0  1.04486  0  0  0.101091  0  1.046986  0  0  0.098166  0.098375  0  1.044185  0
H  H14  1  0.52359732  0.20669690  0.03308603  1  0  0.088934  0  0.984454  0  0  0.099577  0  1.045047  0  0  0.100984  0  1.047174  0  0  0.098144  0.098271  0  1.04437  0
H  H15  1  0.02359377  0.29330175  0.96691079  1  0  0.088888  0  0.984456  0  0  0.099562  0  1.045012  0  0  0.100968  0  1.047142  0  0  0.098124  0.098256  0  1.044338  0
H  H16  1  0.14687539  0.60691148  0.38206723  1  0  0.416879  0  0.892402  0  0  0.388588  0  0.953981  0  0  0.398401  0  0.939283  0  0  0.293769  0.381648  0  0.964365  0
H  H17  1  0.64687287  0.89309628  0.61793535  1  0  0.416905  0  0.892367  0  0  0.388625  0  0.953923  0  0  0.398438  0  0.939224  0  0  0.293797  0.381686  0  0.964305  0
H  H18  1  0.85312184  0.39308879  0.61792914  1  0  0.416888  0  0.892393  0  0  0.388597  0  0.953975  0  0  0.39841  0  0.939275  0  0  0.293777  0.381654  0  0.964364  0
H  H19  1  0.35312985  0.10690777  0.38206485  1  0  0.41691  0  0.89236  0  0  0.388618  0  0.953938  0  0  0.398431  0  0.93924  0  0  0.293792  0.381678  0  0.964324  0
H  H20  1  0.91426845  0.68897306  0.36828792  1  0  0.427196  0  0.873188  0  0  0.400715  0  0.930639  0  0  0.410323  0  0.916398  0  0  0.29742  0.393913  0  0.940717  0
H  H21  1  0.41426589  0.81103170  0.63170916  1  0  0.427179  0  0.87323  0  0  0.400691  0  0.930688  0  0  0.4103  0  0.916448  0  0  0.297414  0.393887  0  0.940771  0
H  H22  1  0.08572878  0.31102628  0.63171093  1  0  0.427235  0  0.873125  0  0  0.400759  0  0.930568  0  0  0.410368  0  0.916327  0  0  0.297452  0.393958  0  0.940647  0
H  H23  1  0.58573500  0.18897330  0.36829284  1  0  0.427207  0  0.873188  0  0  0.400728  0  0.930631  0  0  0.410334  0  0.916393  0  0  0.297445  0.393923  0  0.940714  0
C  C24  1  0.12444762  0.03379556  0.85633979  1  0  -0.16672  0  3.689648  0  0  -0.144491  0  3.933779  0  0  -0.152455  0  3.956063  0  0  -0.013041  -0.139434  0  3.918889  0
C  C25  1  0.62445118  0.46620869  0.14365845  1  0  -0.166703  0  3.690186  0  0  -0.144439  0  3.934291  0  0  -0.152411  0  3.956587  0  0  -0.013067  -0.139387  0  3.919402  0
C  C26  1  0.87556425  0.96620849  0.14365868  1  0  -0.166779  0  3.690071  0  0  -0.144606  0  3.934274  0  0  -0.152565  0  3.95656  0  0  -0.013102  -0.139552  0  3.919386  0
C  C27  1  0.37554056  0.53379628  0.85633412  1  0  -0.166625  0  3.690322  0  0  -0.144347  0  3.934359  0  0  -0.152327  0  3.956663  0  0  -0.012964  -0.139295  0  3.919462  0
C  C28  1  0.97271820  0.98284389  0.93970999  1  0  0.059463  0  3.734786  0  0  0.068652  0  3.962469  0  0  0.069038  0  3.987248  0  0  0.002269  0.068484  0  3.946108  0
C  C29  1  0.47273099  0.51714768  0.06029346  1  0  0.059453  0  3.735476  0  0  0.06861  0  3.963122  0  0  0.068999  0  3.987906  0  0  0.002356  0.068446  0  3.946761  0
C  C30  1  0.02728087  0.01715174  0.06030307  1  0  0.059624  0  3.735267  0  0  0.068853  0  3.962867  0  0  0.069236  0  3.987656  0  0  0.002353  0.068687  0  3.946512  0
C  C31  1  0.52728455  0.48285069  0.93969929  1  0  0.059518  0  3.735323  0  0  0.06876  0  3.962902  0  0  0.069152  0  3.987682  0  0  0.002281  0.068592  0  3.946542  0
C  C32  1  0.77222215  0.90103576  0.90891058  1  0  -0.09143  0  3.709028  0  0  -0.114878  0  3.96189  0  0  -0.115529  0  3.979629  0  0  -0.080481  -0.114336  0  3.949846  0
C  C33  1  0.27222945  0.59895591  0.09109205  1  0  -0.091553  0  3.708824  0  0  -0.114945  0  3.961729  0  0  -0.11563  0  3.979444  0  0  -0.080445  -0.114412  0  3.949698  0
C  C34  1  0.22776410  0.09896362  0.09109771  1  0  -0.091748  0  3.708785  0  0  -0.115174  0  3.961657  0  0  -0.115847  0  3.97938  0  0  -0.080546  -0.114636  0  3.949625  0
C  C35  1  0.72776778  0.40103871  0.90890632  1  0  -0.091602  0  3.708968  0  0  -0.115022  0  3.961858  0  0  -0.115708  0  3.979572  0  0  -0.080478  -0.114483  0  3.949821  0
C  C36  1  0.31769014  0.11298351  0.88971614  1  0  -0.053733  0  3.752753  0  0  -0.082654  0  4.008751  0  0  -0.080513  0  4.026446  0  0  -0.078186  -0.083676  0  3.996773  0
C  C37  1  0.81768455  0.38702345  0.11028148  1  0  -0.053676  0  3.752946  0  0  -0.082663  0  4.00896  0  0  -0.080523  0  4.026658  0  0  -0.078178  -0.083674  0  3.996987  0
C  C38  1  0.68232722  0.88702053  0.11028147  1  0  -0.053528  0  3.752537  0  0  -0.082566  0  4.008555  0  0  -0.08043  0  4.026255  0  0  -0.078151  -0.083566  0  3.996583  0
C  C39  1  0.18232184  0.61297021  0.88971335  1  0  -0.053687  0  3.753686  0  0  -0.082725  0  4.009721  0  0  -0.080595  0  4.027415  0  0  -0.078267  -0.083714  0  3.99775  0
C  C40  1  0.63107593  0.85456196  0.99206000  1  0  -0.056649  0  3.758936  0  0  -0.069226  0  4.012023  0  0  -0.072152  0  4.033329  0  0  -0.087098  -0.067409  0  3.998061  0
C  C41  1  0.13109579  0.64544010  0.00792999  1  0  -0.056756  0  3.758805  0  0  -0.06932  0  4.011884  0  0  -0.072251  0  4.033207  0  0  -0.087155  -0.067502  0  3.997922  0
C  C42  1  0.36892313  0.14544775  0.00793991  1  0  -0.056522  0  3.75838  0  0  -0.069042  0  4.011395  0  0  -0.071967  0  4.032706  0  0  -0.087028  -0.067226  0  3.99745  0
C  C43  1  0.86891243  0.35455262  0.99206389  1  0  -0.056509  0  3.758616  0  0  -0.069062  0  4.01164  0  0  -0.07199  0  4.032955  0  0  -0.087015  -0.067249  0  3.997689  0
S  S44  1  0.07643970  0.99126705  0.70515783  1  0  1.347295  0  5.627841  0  0  1.256161  0  6.138141  0  0  1.302886  0  6.114571  0  0  0.534092  1.224023  0  6.153158  0
S  S45  1  0.57645873  0.50873506  0.29483732  1  0  1.347472  0  5.628014  0  0  1.256316  0  6.138307  0  0  1.303038  0  6.114746  0  0  0.53408  1.224177  0  6.153326  0
S  S46  1  0.92355571  0.00873230  0.29484274  1  0  1.347402  0  5.627683  0  0  1.256286  0  6.137958  0  0  1.303003  0  6.114401  0  0  0.534071  1.224143  0  6.152982  0
S  S47  1  0.42354765  0.49126427  0.70516153  1  0  1.347401  0  5.627729  0  0  1.256244  0  6.138039  0  0  1.302977  0  6.114463  0  0  0.534073  1.22411  0  6.153054  0
O  O48  1  0.11252984  0.85296815  0.68638197  1  0  -0.737249  0  1.976538  0  0  -0.684368  0  2.223337  0  0  -0.705398  0  2.208004  0  0  -0.389479  -0.669442  0  2.233636  0
O  O49  1  0.61253414  0.64702645  0.31362270  1  0  -0.737321  0  1.976785  0  0  -0.684443  0  2.223665  0  0  -0.705469  0  2.208331  0  0  -0.389494  -0.669511  0  2.233957  0
O  O50  1  0.88747655  0.14703120  0.31361946  1  0  -0.737281  0  1.976516  0  0  -0.684406  0  2.223327  0  0  -0.705429  0  2.207996  0  0  -0.389498  -0.669475  0  2.233626  0
O  O51  1  0.38745761  0.35297008  0.68638015  1  0  -0.737341  0  1.97662  0  0  -0.684436  0  2.223411  0  0  -0.705462  0  2.208066  0  0  -0.389477  -0.669509  0  2.233709  0
O  O52  1  0.25522314  0.06030065  0.64418621  1  0  -0.697657  0  1.960601  0  0  -0.653935  0  2.213652  0  0  -0.672409  0  2.197283  0  0  -0.38687  -0.640868  0  2.224704  0
O  O53  1  0.75522725  0.43970067  0.35580570  1  0  -0.69768  0  1.96077  0  0  -0.65397  0  2.21387  0  0  -0.672424  0  2.197462  0  0  -0.386847  -0.640904  0  2.224922  0
O  O54  1  0.74477958  0.93969493  0.35581569  1  0  -0.697633  0  1.960647  0  0  -0.653919  0  2.213736  0  0  -0.67238  0  2.197349  0  0  -0.386779  -0.640843  0  2.224781  0
O  O55  1  0.24476815  0.56030055  0.64419248  1  0  -0.697667  0  1.960615  0  0  -0.653973  0  2.213718  0  0  -0.672433  0  2.197312  0  0  -0.386895  -0.64091  0  2.224769  0
O  O56  1  0.82063956  0.02501679  0.68098922  1  0  -0.73746  0  1.995694  0  0  -0.686378  0  2.246725  0  0  -0.706664  0  2.229791  0  0  -0.397042  -0.671892  0  2.257834  0
O  O57  1  0.32064521  0.47499210  0.31901804  1  0  -0.737474  0  1.995354  0  0  -0.686405  0  2.246397  0  0  -0.706696  0  2.229472  0  0  -0.396998  -0.671913  0  2.257502  0
O  O58  1  0.17936134  0.97498352  0.31901659  1  0  -0.737544  0  1.995525  0  0  -0.686466  0  2.246574  0  0  -0.706755  0  2.229643  0  0  -0.39706  -0.671976  0  2.25768  0
O  O59  1  0.67936118  0.52500440  0.68097880  1  0  -0.737457  0  1.995335  0  0  -0.686395  0  2.246383  0  0  -0.706692  0  2.229458  0  0  -0.39702  -0.671909  0  2.257493  0
O  O60  1  0.07037566  0.68846804  0.41109399  1  0  -0.920595  0  1.77292  0  0  -0.885866  0  1.938986  0  0  -0.900211  0  1.906625  0  0  -0.708543  -0.875576  0  1.961666  0
O  O61  1  0.57037681  0.81153413  0.58891403  1  0  -0.920585  0  1.772928  0  0  -0.885859  0  1.938999  0  0  -0.900202  0  1.906635  0  0  -0.708545  -0.875571  0  1.961681  0
O  O62  1  0.92961974  0.31152753  0.58890361  1  0  -0.92062  0  1.772844  0  0  -0.885899  0  1.938896  0  0  -0.90024  0  1.906537  0  0  -0.708575  -0.875607  0  1.961576  0
O  O63  1  0.42961859  0.18847086  0.41108540  1  0  -0.920593  0  1.772869  0  0  -0.885868  0  1.938939  0  0  -0.900205  0  1.90658  0  0  -0.708567  -0.875576  0  1.961621  0
