# generated using pymatgen
data_Zn4H29C48O13F
_symmetry_space_group_name_H-M   'P 1'
_cell_length_a   19.59158222
_cell_length_b   19.61964428
_cell_length_c   19.54739198
_cell_angle_alpha   84.63415009
_cell_angle_beta   89.56774437
_cell_angle_gamma   84.42432071
_symmetry_Int_Tables_number   1
_chemical_formula_structural   Zn4H29C48O13F
_chemical_formula_sum   'Zn4 H29 C48 O13 F1'
_cell_volume   7445.29625947
_cell_formula_units_Z   1
loop_
 _symmetry_equiv_pos_site_id
 _symmetry_equiv_pos_as_xyz
  1  'x, y, z'
loop_
 _atom_site_type_symbol
 _atom_site_label
 _atom_site_symmetry_multiplicity
 _atom_site_fract_x
 _atom_site_fract_y
 _atom_site_fract_z
 _atom_site_occupancy
 _atom_site_pbe_bader_charge
 _atom_site_pbe_bader_spin_density
 _atom_site_pbe_cm5_charge
 _atom_site_pbe_ddec_charge
 _atom_site_pbe_ddec_spin_density
 _atom_site_pbe_ddec_sum_bond_order
 _atom_site_pbe_magmom
Zn  Zn0  1  0.44254013  0.44127772  0.55791584  1  1.313109  0  0.66798  0.961689  0  2.37421  0
Zn  Zn1  1  0.56367893  0.44054997  0.44875642  1  1.313421  0  0.671668  0.965327  0  2.37813  0
Zn  Zn2  1  0.55343063  0.55302970  0.55592780  1  1.307761  0  0.667739  0.958039  0  2.3935  0
Zn  Zn3  1  0.44095605  0.56523254  0.43760507  1  1.310466  0  0.669129  0.965987  0  2.360146  0
H  H4  1  0.23399341  0.42985391  0.56935501  1  0.093575  0  0.107798  0.113468  0  0.994136  0
H  H5  1  0.56758470  0.55510041  0.89254050  1  0.033683  0  0.102124  0.101311  0  1.00199  0
H  H6  1  0.76391186  0.58250218  0.55638215  1  0.092352  0  0.107427  0.112575  0  0.992795  0
H  H7  1  0.46249774  0.62243372  0.09969540  1  0.052798  0  0.103935  0.108223  0  0.99421  0
H  H8  1  0.56372234  0.76045491  0.56908247  1  0.109887  0  0.107513  0.113318  0  0.994452  0
H  H9  1  0.41158045  0.23094155  0.55623123  1  0.079601  0  0.107429  0.112402  0  0.993866  0
H  H10  1  0.61151217  0.22776523  0.46462885  1  0.101195  0  0.108984  0.114565  0  0.991531  0
H  H11  1  0.57195438  0.99098938  0.51279491  1  0.037494  0  0.10199  0.100186  0  0.998762  0
H  H12  1  0.38958700  0.90863124  0.42496767  1  0.024986  0  0.10205  0.102495  0  0.994738  0
H  H13  1  0.41585090  0.10346213  0.55612128  1  0.04883  0  0.101587  0.100962  0  1.000937  0
H  H14  1  0.40072509  0.78115656  0.42097740  1  0.098789  0  0.107351  0.111613  0  0.99434  0
H  H15  1  0.90335921  0.38417157  0.46805366  1  0.056244  0  0.10256  0.102705  0  0.994064  0
H  H16  1  0.41639227  0.00960927  0.48748000  1  0.053149  0  0.102609  0.102247  0  0.996225  0
H  H17  1  0.55389803  0.88756102  0.57306462  1  0.046308  0  0.101492  0.10154  0  1.001668  0
H  H18  1  0.77549074  0.39144763  0.46444180  1  0.089983  0  0.10871  0.113878  0  0.992443  0
H  H19  1  0.61821326  0.09973735  0.46770667  1  0.048049  0  0.10247  0.102141  0  0.993806  0
H  H20  1  0.00816566  0.42609112  0.51330875  1  0.054152  0  0.102394  0.100803  0  0.999043  0
H  H21  1  0.09834845  0.61651159  0.42514772  1  0.071175  0  0.101843  0.101946  0  0.994516  0
H  H22  1  0.89160556  0.57781583  0.55699524  1  0.047579  0  0.101661  0.100993  0  1.000361  0
H  H23  1  0.22638351  0.60621174  0.42119731  1  0.106709  0  0.107467  0.112559  0  0.993302  0
H  H24  1  0.99166575  0.58376207  0.48771472  1  0.051833  0  0.102633  0.102163  0  0.99648  0
H  H25  1  0.10634837  0.43870300  0.57316628  1  0.074043  0  0.10184  0.101141  0  1.001947  0
H  H26  1  0.56410669  0.56318861  0.76463535  1  0.113091  0  0.108163  0.113946  0  0.994054  0
H  H27  1  0.46061346  0.61250138  0.22777820  1  0.100954  0  0.111042  0.117473  0  0.986125  0
H  H28  1  0.50803806  0.57492602  0.99244342  1  0.072717  0  0.103988  0.10334  0  0.996161  0
H  H29  1  0.43144786  0.39459229  0.90090496  1  0.056537  0  0.102899  0.102765  0  0.993961  0
H  H30  1  0.55710529  0.41338911  0.10716779  1  0.096761  0  0.111413  0.134817  0  0.988657  0
H  H31  1  0.42789099  0.40413290  0.77260558  1  0.102769  0  0.108186  0.113281  0  0.992573  0
H  H32  1  0.49039891  0.42026756  0.00706507  1  0.064448  0  0.103301  0.102676  0  0.994279  0
C  C33  1  0.50757869  0.50732566  0.31614475  1  1.610901  0  0.226179  0.62418  0  4.165899  0
C  C34  1  0.01839635  0.53235358  0.49906010  1  -0.077601  0  -0.088405  -0.133179  0  4.000634  0
C  C35  1  0.98114334  0.47780755  0.50919998  1  0.049458  0  -0.088363  -0.132224  0  4.004564  0
C  C36  1  0.49520438  0.48912049  0.68450962  1  1.503141  0  0.225098  0.603502  0  4.169969  0
C  C37  1  0.76217734  0.48772794  0.50951575  1  -0.017486  0  -0.020901  -0.045585  0  3.982201  0
C  C38  1  0.49531761  0.48462419  0.76110813  1  0.070187  0  -0.021285  -0.048083  0  3.980216  0
C  C39  1  0.53438408  0.52736648  0.79521143  1  -0.097934  0  -0.081737  -0.0833  0  3.988165  0
C  C40  1  0.53572294  0.52296223  0.86642633  1  0.041932  0  -0.089514  -0.134842  0  3.973667  0
C  C41  1  0.49847884  0.47535617  0.90578332  1  0.026033  0  -0.007441  0.116921  0  4.045579  0
C  C42  1  0.46034992  0.43188707  0.87106063  1  -0.050837  0  -0.089075  -0.137455  0  3.975769  0
C  C43  1  0.45806981  0.43697816  0.79967294  1  -0.061733  0  -0.080604  -0.082357  0  3.984805  0
C  C44  1  0.09321978  0.52733437  0.49826194  1  -0.027027  0  -0.006718  0.120144  0  4.041145  0
C  C45  1  0.53490821  0.45771069  0.13216116  1  0.010718  0  -0.101517  -0.269611  0  3.959056  0
C  C46  1  0.53521161  0.45421032  0.20334958  1  0.452469  0  0.108245  0.292248  0  4.043431  0
C  C47  1  0.48197144  0.56967410  0.20017298  1  0.032524  0  -0.078822  -0.060637  0  3.997746  0
C  C48  1  0.50782511  0.31325104  0.50856702  1  1.560534  0  0.225256  0.601519  0  4.174421  0
C  C49  1  0.48302624  0.57489107  0.12894802  1  -0.049179  0  -0.097214  -0.162186  0  3.992468  0
C  C50  1  0.50842158  0.51837308  0.09354294  1  -0.029072  0  -0.003211  0.150901  0  4.056312  0
C  C51  1  0.49920891  0.47033077  0.98068592  1  -0.070636  0  -0.085164  -0.125202  0  3.990125  0
C  C52  1  0.50650135  0.52334294  0.01865647  1  -0.076104  0  -0.088028  -0.13402  0  3.986825  0
C  C53  1  0.50854312  0.50939624  0.23961721  1  -0.043882  0  -0.027484  -0.157945  0  3.960339  0
C  C54  1  0.48326508  0.76328005  0.49433038  1  0.011478  0  -0.021552  -0.045442  0  3.980607  0
C  C55  1  0.12805563  0.57528807  0.45663139  1  -0.114305  0  -0.090679  -0.139509  0  3.974187  0
C  C56  1  0.52656146  0.79362726  0.53696614  1  -0.024978  0  -0.082906  -0.085629  0  3.989187  0
C  C57  1  0.52115116  0.86450390  0.53862566  1  -0.029492  0  -0.091207  -0.138456  0  3.973467  0
C  C58  1  0.47211635  0.90730368  0.49808076  1  -0.044651  0  -0.006235  0.122234  0  4.038542  0
C  C59  1  0.42802603  0.87618644  0.45645495  1  0.013728  0  -0.090712  -0.1397  0  3.975362  0
C  C60  1  0.48898522  0.68702356  0.49358701  1  1.52788  0  0.224943  0.603209  0  4.173541  0
C  C61  1  0.43402811  0.80526508  0.45391585  1  -0.061775  0  -0.082441  -0.08541  0  3.989412  0
C  C62  1  0.45848352  0.13069576  0.53529298  1  -0.019097  0  -0.090356  -0.135683  0  3.973452  0
C  C63  1  0.45595163  0.20165510  0.53575310  1  -0.024324  0  -0.082262  -0.085846  0  3.99122  0
C  C64  1  0.56924364  0.19976204  0.48485377  1  -0.009853  0  -0.081566  -0.085145  0  3.985983  0
C  C65  1  0.57252379  0.12858167  0.48649285  1  -0.053177  0  -0.089934  -0.136553  0  3.977612  0
C  C66  1  0.19933274  0.56979371  0.45410689  1  0.014402  0  -0.081342  -0.084114  0  3.986907  0
C  C67  1  0.51670036  0.09280817  0.51033306  1  -0.010571  0  -0.007144  0.11853  0  4.04367  0
C  C68  1  0.46686450  0.98196461  0.49879447  1  -0.07787  0  -0.089196  -0.134715  0  3.997767  0
C  C69  1  0.52052568  0.01834822  0.50872622  1  0.014831  0  -0.08756  -0.131065  0  3.999432  0
C  C70  1  0.51095907  0.23693223  0.50975770  1  -0.064562  0  -0.019781  -0.043168  0  3.979761  0
C  C71  1  0.68590404  0.49127242  0.50771261  1  1.54868  0  0.22455  0.601898  0  4.176347  0
C  C72  1  0.31423619  0.51184775  0.49425494  1  1.5423  0  0.224667  0.603235  0  4.174655  0
C  C73  1  0.23778342  0.51710122  0.49462475  1  0.00128  0  -0.021361  -0.046105  0  3.981717  0
C  C74  1  0.20360468  0.46977432  0.53718630  1  -0.038041  0  -0.083334  -0.086401  0  3.990962  0
C  C75  1  0.13249301  0.47471632  0.53877613  1  -0.082032  0  -0.091043  -0.136068  0  3.974708  0
C  C76  1  0.86622579  0.53736422  0.53582424  1  0.029472  0  -0.090205  -0.135028  0  3.971361  0
C  C77  1  0.79510411  0.54007978  0.53588382  1  -0.070061  0  -0.081784  -0.085619  0  3.987445  0
C  C78  1  0.80167533  0.43171394  0.48482652  1  -0.06626  0  -0.082165  -0.083945  0  3.989242  0
C  C79  1  0.87278434  0.42808576  0.48681190  1  0.020787  0  -0.090069  -0.138466  0  3.978286  0
C  C80  1  0.90643999  0.48152961  0.51084061  1  -0.097172  0  -0.006929  0.119129  0  4.043903  0
O  O81  1  0.49940876  0.50021036  0.49969303  1  -1.224234  0  -0.571644  -1.026987  0  2.533278  0
O  O82  1  0.65965833  0.44929962  0.47176650  1  -1.16765  0  -0.316377  -0.548349  0  2.339595  0
O  O83  1  0.34294189  0.55349604  0.45153445  1  -1.175799  0  -0.317888  -0.550662  0  2.32899  0
O  O84  1  0.65282729  0.53608526  0.54200047  1  -1.172883  0  -0.317023  -0.54863  0  2.33611  0
O  O85  1  0.34490479  0.46600400  0.53710220  1  -1.174983  0  -0.317676  -0.551119  0  2.347706  0
O  O86  1  0.46011403  0.34315774  0.54323110  1  -1.174973  0  -0.31793  -0.549772  0  2.329731  0
O  O87  1  0.45065460  0.66206533  0.45153227  1  -1.179805  0  -0.317758  -0.551381  0  2.328141  0
O  O88  1  0.54924601  0.46266116  0.34958522  1  -1.169284  0  -0.313848  -0.543368  0  2.349486  0
O  O89  1  0.53359194  0.53126318  0.65369891  1  -1.168071  0  -0.317168  -0.550286  0  2.345661  0
O  O90  1  0.46487986  0.55174448  0.34138995  1  -1.172725  0  -0.318132  -0.55201  0  2.323892  0
O  O91  1  0.45714783  0.45051198  0.65602705  1  -1.17453  0  -0.316733  -0.54831  0  2.330306  0
O  O92  1  0.55318601  0.34270443  0.47261573  1  -1.159958  0  -0.316042  -0.54762  0  2.340187  0
O  O93  1  0.53195570  0.65257899  0.53550679  1  -1.178382  0  -0.318391  -0.550505  0  2.347141  0
F  F94  1  0.56177177  0.39405466  0.23724598  1  -0.624192  0  -0.104455  -0.142532  0  1.337591  0
