# generated using pymatgen
data_Co3H42C42(N4O3)4
_symmetry_space_group_name_H-M   'P 1'
_cell_length_a   10.27239684
_cell_length_b   14.58455156
_cell_length_c   17.56383286
_cell_angle_alpha   90.00005765
_cell_angle_beta   89.99982407
_cell_angle_gamma   103.73275763
_symmetry_Int_Tables_number   1
_chemical_formula_structural   Co3H42C42(N4O3)4
_chemical_formula_sum   'Co6 H84 C84 N32 O24'
_cell_volume   2556.16169868
_cell_formula_units_Z   2
loop_
 _symmetry_equiv_pos_site_id
 _symmetry_equiv_pos_as_xyz
  1  'x, y, z'
loop_
 _atom_site_type_symbol
 _atom_site_label
 _atom_site_symmetry_multiplicity
 _atom_site_fract_x
 _atom_site_fract_y
 _atom_site_fract_z
 _atom_site_occupancy
 _atom_site_pbe_bader_charge
 _atom_site_pbe_bader_spin_density
 _atom_site_pbe_cm5_charge
 _atom_site_pbe_ddec_charge
 _atom_site_pbe_ddec_spin_density
 _atom_site_pbe_ddec_sum_bond_order
 _atom_site_pbe_magmom
Co  Co0  1  0.00000039  0.50000134  0.50000352  1  1.307047  2.615202  0.672563  0.933878  2.852923  2.442665  2.601
Co  Co1  1  0.49999523  0.99999597  0.99999983  1  1.306996  2.615207  0.672604  0.933968  2.852895  2.44262  2.601
Co  Co2  1  0.32413957  0.67822926  0.59219706  1  1.25131  2.585251  0.663269  0.88522  2.791911  2.458653  2.55
Co  Co3  1  0.17586139  0.82176997  0.09219477  1  1.251305  2.585264  0.663311  0.885288  2.791934  2.458588  2.55
Co  Co4  1  0.67585901  0.32177128  0.40780404  1  1.251229  2.585249  0.663272  0.885312  2.791909  2.458555  2.55
Co  Co5  1  0.82413616  0.17822775  0.90780291  1  1.251311  2.585261  0.663264  0.885301  2.791936  2.458516  2.55
H  H6  1  0.21241985  0.60404089  0.34445963  1  0.11186  0.000473  0.119663  0.121388  0.000185  0.976743  0.0
H  H7  1  0.28757502  0.89596132  0.84446103  1  0.111893  0.000473  0.119603  0.12137  0.000185  0.976743  0.0
H  H8  1  0.78757899  0.39596036  0.65554261  1  0.11205  0.000473  0.119688  0.121406  0.000185  0.976768  0.0
H  H9  1  0.71241995  0.10403999  0.15554120  1  0.112043  0.000473  0.119693  0.121415  0.000185  0.976746  0.0
H  H10  1  0.23240003  0.49669145  0.38142416  1  0.110507  -8.7e-05  0.116427  0.10584  -0.000344  1.025754  0.0
H  H11  1  0.26758998  0.00330762  0.88142525  1  0.110564  -8.8e-05  0.116451  0.105855  -0.000345  1.025772  0.0
H  H12  1  0.76759681  0.50330700  0.61857978  1  0.110561  -8.7e-05  0.116432  0.105846  -0.000344  1.025829  0.0
H  H13  1  0.73240009  0.99669092  0.11857926  1  0.110507  -8.8e-05  0.116416  0.105798  -0.000345  1.025824  0.0
H  H14  1  0.56975704  0.00437124  0.25094928  1  0.112426  0.000381  0.113893  0.108149  0.000118  1.015708  0.0
H  H15  1  0.93024283  0.49562769  0.75095222  1  0.112759  0.000381  0.113914  0.108181  0.000118  1.015703  0.0
H  H16  1  0.43023826  0.99562297  0.74904670  1  0.112703  0.000381  0.113878  0.108152  0.000118  1.0157  0.0
H  H17  1  0.06976453  0.50437556  0.24904944  1  0.112632  0.000381  0.11388  0.108148  0.000118  1.015669  0.0
H  H18  1  0.41975450  0.03928839  0.27217315  1  0.060974  -0.000447  0.116208  0.116018  -0.000516  0.949147  0.0
H  H19  1  0.08024944  0.46071258  0.77217612  1  0.06096  -0.000447  0.116205  0.116022  -0.000516  0.949215  0.0
H  H20  1  0.58024673  0.96071141  0.72782510  1  0.060947  -0.000447  0.116193  0.116022  -0.000516  0.949155  0.0
H  H21  1  0.91975650  0.53929211  0.22782953  1  0.060957  -0.000447  0.116176  0.115975  -0.000516  0.949176  0.0
H  H22  1  0.87312161  0.92619538  0.24202938  1  0.074414  0.000504  0.111412  0.098714  0.000182  0.994178  0.0
H  H23  1  0.62686948  0.57379910  0.74202964  1  0.074303  0.000504  0.111451  0.098828  0.000182  0.994149  0.0
H  H24  1  0.12687065  0.07380384  0.75796716  1  0.074319  0.000504  0.111431  0.098727  0.000182  0.994216  0.0
H  H25  1  0.37312581  0.42619511  0.25796633  1  0.07435  0.000504  0.111429  0.098766  0.000182  0.994134  0.0
H  H26  1  0.78369663  0.88731419  0.15809275  1  0.073303  0.000125  0.111514  0.097653  -2.1e-05  1.015489  0.0
H  H27  1  0.71630006  0.61268375  0.65809517  1  0.073504  0.000125  0.1115  0.097719  -2.1e-05  1.015489  0.0
H  H28  1  0.21629079  0.11268511  0.84190550  1  0.07349  0.000124  0.111492  0.097651  -2.1e-05  1.015458  0.0
H  H29  1  0.28370221  0.38730823  0.34190422  1  0.073485  0.000124  0.111482  0.097653  -2.1e-05  1.015527  0.0
H  H30  1  0.23674960  0.81512609  0.69033124  1  0.123369  0.002133  0.119745  0.09402  0.000784  0.997953  0.002
H  H31  1  0.26326421  0.68487510  0.19033096  1  0.123419  0.002133  0.119742  0.094024  0.000784  0.997923  0.002
H  H32  1  0.76326067  0.18487712  0.30967213  1  0.123478  0.002133  0.11976  0.094062  0.000784  0.997886  0.002
H  H33  1  0.73674431  0.31512601  0.80966729  1  0.123379  0.002132  0.119728  0.094052  0.000784  0.997857  0.002
H  H34  1  0.19428571  0.97534457  0.67967764  1  0.094286  0.000847  0.107138  0.114821  0.000395  1.027056  0.0
H  H35  1  0.30573035  0.52465730  0.17967600  1  0.094757  0.000847  0.107144  0.114795  0.000395  1.027116  0.0
H  H36  1  0.80572307  0.02465725  0.32032573  1  0.094026  0.000847  0.107124  0.114795  0.000395  1.026894  0.0
H  H37  1  0.69428404  0.47534656  0.82032282  1  0.094297  0.000847  0.107141  0.114812  0.000395  1.027072  0.0
H  H38  1  0.29983578  0.97278488  0.44141463  1  0.070232  0.00092  0.105344  0.111639  0.000428  1.019805  0.0
H  H39  1  0.20015600  0.52721031  0.94141473  1  0.069884  0.00092  0.105344  0.111642  0.000428  1.019796  0.0
H  H40  1  0.70015912  0.02721359  0.55858760  1  0.06984  0.00092  0.105385  0.111701  0.000428  1.019799  0.0
H  H41  1  0.79983639  0.47278395  0.05858295  1  0.069942  0.000919  0.105325  0.111617  0.000428  1.019892  0.0
H  H42  1  0.33665587  0.81289356  0.46127352  1  0.12816  0.001896  0.116477  0.087628  0.000442  1.024754  0.001
H  H43  1  0.16334265  0.68710437  0.96127268  1  0.128142  0.001896  0.1165  0.087655  0.000442  1.024691  0.001
H  H44  1  0.66334510  0.18710553  0.53872871  1  0.128126  0.001896  0.116479  0.087635  0.000442  1.024726  0.001
H  H45  1  0.83665251  0.31289481  0.03872386  1  0.128231  0.001896  0.116443  0.087564  0.000442  1.024834  0.001
H  H46  1  0.09380501  0.06830572  0.54237700  1  0.02711  -0.000912  0.098146  0.099823  -0.000744  0.972042  -0.001
H  H47  1  0.40620161  0.43169658  0.04237782  1  0.027045  -0.000912  0.098132  0.099812  -0.000744  0.972044  -0.001
H  H48  1  0.90619506  0.93169622  0.45762011  1  0.027141  -0.000911  0.098134  0.099808  -0.000744  0.972076  -0.001
H  H49  1  0.59380652  0.56830879  0.95762157  1  0.027098  -0.000912  0.09815  0.099844  -0.000744  0.972057  -0.001
H  H50  1  0.22295254  0.11975723  0.60558635  1  0.044501  -0.000199  0.099526  0.109028  -0.000138  0.991511  0.0
H  H51  1  0.27705272  0.38024226  0.10558564  1  0.044511  -0.000199  0.09952  0.109033  -0.000138  0.991479  0.0
H  H52  1  0.77704410  0.88024334  0.39441418  1  0.044437  -0.000199  0.099546  0.109067  -0.000138  0.991467  0.0
H  H53  1  0.72295258  0.61975535  0.89441317  1  0.044285  -0.000199  0.099532  0.109038  -0.000138  0.991521  0.0
H  H54  1  0.25509841  0.11095808  0.43126844  1  0.054691  8.1e-05  0.094793  0.0925  4.5e-05  0.988147  0.0
H  H55  1  0.24490645  0.38904504  0.93126878  1  0.054683  8.2e-05  0.094789  0.092505  4.5e-05  0.98817  0.0
H  H56  1  0.74490243  0.88904598  0.56873208  1  0.054639  8.1e-05  0.094779  0.092456  4.5e-05  0.988166  0.0
H  H57  1  0.75510105  0.61095325  0.06872947  1  0.05469  8.2e-05  0.094781  0.092476  4.5e-05  0.988106  0.0
H  H58  1  0.38175682  0.16692570  0.49605205  1  0.030641  -9.3e-05  0.102269  0.113689  -0.000113  0.971123  0.0
H  H59  1  0.11824931  0.33307386  0.99605484  1  0.030721  -9.3e-05  0.102286  0.113731  -0.000113  0.971169  0.0
H  H60  1  0.61824557  0.83307195  0.50394677  1  0.030691  -9.3e-05  0.102281  0.113704  -0.000113  0.971088  0.0
H  H61  1  0.88175896  0.66692654  0.00394455  1  0.030576  -9.3e-05  0.102275  0.113683  -0.000113  0.971174  0.0
H  H62  1  0.05719265  0.17698055  0.40411683  1  0.075017  0.00076  0.101277  0.110255  0.000315  1.011982  0.0
H  H63  1  0.44281861  0.32302104  0.90411676  1  0.075071  0.00076  0.101302  0.110206  0.000315  1.011968  0.0
H  H64  1  0.94281452  0.82302483  0.59588256  1  0.075444  0.000759  0.101267  0.110191  0.000315  1.012032  0.0
H  H65  1  0.55719172  0.67697436  0.09588149  1  0.075444  0.00076  0.101268  0.110215  0.000315  1.012063  0.0
H  H66  1  0.96187284  0.31812025  0.41045981  1  0.096059  0.000952  0.113164  0.076741  -0.000317  1.058312  0.001
H  H67  1  0.53813394  0.18187861  0.91045862  1  0.09602  0.000952  0.113188  0.076834  -0.000317  1.058223  0.001
H  H68  1  0.03813187  0.68188375  0.58954300  1  0.096157  0.000952  0.113184  0.076839  -0.000317  1.058133  0.001
H  H69  1  0.46186756  0.81811125  0.08954020  1  0.09605  0.000952  0.113164  0.076775  -0.000317  1.058271  0.001
H  H70  1  0.25502972  0.45254871  0.56224912  1  0.136845  0.001248  0.120576  0.097751  0.000147  1.007921  0.001
H  H71  1  0.24497176  0.04745580  0.06224874  1  0.136974  0.001249  0.120528  0.097819  0.000147  1.007851  0.001
H  H72  1  0.74497228  0.54745321  0.43775540  1  0.136515  0.001249  0.120545  0.097792  0.000147  1.00788  0.001
H  H73  1  0.75502618  0.95254830  0.93775178  1  0.136871  0.001248  0.120539  0.097728  0.000147  1.007906  0.001
H  H74  1  0.36463467  0.31856810  0.56039287  1  0.130931  0.000956  0.108401  0.130328  0.000421  1.021876  0.0
H  H75  1  0.13536973  0.18143637  0.06038997  1  0.131084  0.000955  0.108354  0.130219  0.000421  1.022083  0.0
H  H76  1  0.63536566  0.68143455  0.43961392  1  0.130901  0.000955  0.108332  0.130202  0.000421  1.022141  0.0
H  H77  1  0.86463769  0.81856972  0.93961113  1  0.13087  0.000956  0.108389  0.130294  0.000421  1.021896  0.0
H  H78  1  0.46649419  0.53755062  0.34995305  1  0.521786  0.000571  0.300868  0.274474  0.000415  0.99324  0.0
H  H79  1  0.03349645  0.96244812  0.84995325  1  0.521794  0.000571  0.300885  0.274436  0.000416  0.993279  0.0
H  H80  1  0.53350116  0.46244643  0.65004748  1  0.521841  0.000571  0.300884  0.274516  0.000415  0.993209  0.0
H  H81  1  0.96649658  0.03755322  0.15004613  1  0.5219  0.000571  0.30088  0.274498  0.000415  0.993208  0.0
H  H82  1  0.32140638  0.87715212  0.31096582  1  0.43589  8e-05  0.317977  0.271175  2e-05  0.923999  0.0
H  H83  1  0.17859279  0.62285073  0.81096889  1  0.435884  8e-05  0.317979  0.27117  2e-05  0.924007  0.0
H  H84  1  0.67858684  0.12284709  0.68903356  1  0.435956  8e-05  0.317945  0.27111  2e-05  0.924094  0.0
H  H85  1  0.82141050  0.37715471  0.18903847  1  0.435934  8e-05  0.317935  0.271064  2e-05  0.924179  0.0
H  H86  1  0.82411114  0.72360625  0.22922802  1  0.480289  0.000813  0.318686  0.28022  0.000474  0.940609  0.0
H  H87  1  0.67588389  0.77638818  0.72923294  1  0.480286  0.000813  0.318711  0.280257  0.000474  0.940633  0.0
H  H88  1  0.17588596  0.27639290  0.77076681  1  0.480241  0.000813  0.318699  0.280201  0.000474  0.940605  0.0
H  H89  1  0.32411211  0.22360531  0.27076303  1  0.480298  0.000813  0.318734  0.280297  0.000474  0.940514  0.0
C  C90  1  0.47460135  0.67226549  0.31666936  1  1.579324  0.000245  0.33659  0.541935  0.000226  4.162285  0.0
C  C91  1  0.02539114  0.82773250  0.81667060  1  1.579523  0.000245  0.336728  0.541941  0.000226  4.16206  0.0
C  C92  1  0.52539594  0.32773153  0.68333116  1  1.579315  0.000245  0.336671  0.541917  0.000226  4.162204  0.0
C  C93  1  0.97460117  0.17226956  0.18332708  1  1.579094  0.000245  0.336636  0.541895  0.000226  4.162273  0.0
C  C94  1  0.48257606  0.82692888  0.29737409  1  1.576982  0.000561  0.336097  0.542428  0.000337  4.14795  0.0
C  C95  1  0.01742164  0.67306974  0.79737863  1  1.576979  0.000561  0.336006  0.542313  0.000337  4.147933  0.0
C  C96  1  0.51741955  0.17306888  0.70262416  1  1.576913  0.00056  0.33603  0.542397  0.000337  4.147926  0.0
C  C97  1  0.98258011  0.32693147  0.20262361  1  1.576926  0.000561  0.336043  0.542422  0.000337  4.147984  0.0
C  C98  1  0.65895888  0.76720004  0.26527101  1  1.576967  7.9e-05  0.334269  0.531797  2e-05  4.189512  0.0
C  C99  1  0.84103744  0.73279579  0.76527445  1  1.576971  7.9e-05  0.334419  0.531914  2e-05  4.189218  0.0
C  C100  1  0.34103989  0.23279838  0.73472895  1  1.576961  7.9e-05  0.334405  0.531944  2e-05  4.189292  0.0
C  C101  1  0.15896082  0.26720121  0.23472437  1  1.576949  7.9e-05  0.334378  0.531946  2e-05  4.189357  0.0
C  C102  1  0.28075909  0.57213905  0.37768579  1  0.311397  0.00221  -0.057638  -0.157348  0.000851  3.96556  0.001
C  C103  1  0.21923141  0.92785969  0.87768506  1  0.311162  0.002209  -0.057647  -0.157368  0.00085  3.965676  0.001
C  C104  1  0.71923678  0.42785941  0.62231759  1  0.311113  0.002211  -0.05774  -0.157542  0.000851  3.965954  0.001
C  C105  1  0.78075988  0.07213954  0.12231603  1  0.311222  0.002209  -0.057694  -0.157453  0.00085  3.965803  0.001
C  C106  1  0.28536384  0.61263712  0.45703579  1  1.538071  0.001075  0.21539  0.599548  -0.000177  4.110261  0.0
C  C107  1  0.21462625  0.88736164  0.95703561  1  1.538196  0.001069  0.215337  0.599382  -0.000182  4.110522  0.0
C  C108  1  0.71463358  0.38736557  0.54296644  1  1.538456  0.001076  0.215409  0.599635  -0.000177  4.110493  0.0
C  C109  1  0.78536278  0.11263408  0.04296492  1  1.537965  0.001072  0.215355  0.599515  -0.000181  4.110332  0.0
C  C110  1  0.46047243  0.98026078  0.25208907  1  0.307438  0.010701  -0.06138  -0.158496  0.005673  3.937915  0.008
C  C111  1  0.03952699  0.51973922  0.75209287  1  0.307139  0.010701  -0.061413  -0.158609  0.005674  3.938091  0.008
C  C112  1  0.53952196  0.01973628  0.74790860  1  0.307368  0.0107  -0.061374  -0.158587  0.005673  3.937969  0.008
C  C113  1  0.96047843  0.48026406  0.24791165  1  0.307109  0.010701  -0.061351  -0.158479  0.005674  3.937879  0.008
C  C114  1  0.41018050  0.95498887  0.17067294  1  1.583807  -0.002928  0.224033  0.623466  -0.004225  4.112191  0.0
C  C115  1  0.08982205  0.54501320  0.67067666  1  1.584109  -0.002917  0.223931  0.623506  -0.004213  4.11217  0.0
C  C116  1  0.58981563  0.04501030  0.82932474  1  1.583765  -0.002929  0.224153  0.623719  -0.004224  4.111983  0.0
C  C117  1  0.91018757  0.45499357  0.32932842  1  1.583657  -0.002918  0.224184  0.623707  -0.004213  4.111924  0.0
C  C118  1  0.85022100  0.86750811  0.20106565  1  0.325696  0.002994  -0.059156  -0.14705  0.001736  3.986608  0.002
C  C119  1  0.64977301  0.63248845  0.70106763  1  0.325408  0.002993  -0.059214  -0.147347  0.001736  3.986713  0.002
C  C120  1  0.14977029  0.13249113  0.79893032  1  0.325479  0.002993  -0.059208  -0.14708  0.001736  3.986656  0.002
C  C121  1  0.35022687  0.36750498  0.29892948  1  0.325034  0.002993  -0.059207  -0.147137  0.001736  3.986717  0.002
C  C122  1  0.97823370  0.86214655  0.16103725  1  1.573302  0.000659  0.202943  0.589103  -0.00012  4.170507  -0.002
C  C123  1  0.52176562  0.63785063  0.66103719  1  1.573452  0.000659  0.202951  0.589181  -0.000119  4.170566  -0.002
C  C124  1  0.02175836  0.13785480  0.83895758  1  1.573598  0.000659  0.202936  0.589146  -0.00012  4.170441  -0.002
C  C125  1  0.47824059  0.36214413  0.33895536  1  1.573638  0.000658  0.202918  0.589095  -0.000121  4.170496  -0.002
C  C126  1  0.24854796  0.85254875  0.63595758  1  0.400576  -0.006656  0.047138  0.098585  -0.007243  3.937257  -0.004
C  C127  1  0.25145761  0.64745043  0.13595729  1  0.40052  -0.006658  0.047081  0.098546  -0.007245  3.937375  -0.004
C  C128  1  0.75145256  0.14745177  0.36404522  1  0.400556  -0.006655  0.047095  0.098545  -0.007242  3.937273  -0.004
C  C129  1  0.74854433  0.35254865  0.86404039  1  0.400526  -0.006657  0.047127  0.098527  -0.007244  3.937204  -0.004
C  C130  1  0.22419575  0.94176267  0.62930192  1  -0.015308  0.006575  -0.083108  -0.179226  0.003051  3.937096  0.005
C  C131  1  0.27581354  0.55823858  0.12930207  1  -0.015896  0.006577  -0.083109  -0.17925  0.003052  3.937217  0.005
C  C132  1  0.77580600  0.05823854  0.37070088  1  -0.014971  0.006575  -0.083047  -0.179187  0.003051  3.936938  0.005
C  C133  1  0.72419453  0.44176396  0.87069675  1  -0.015432  0.006577  -0.083113  -0.17924  0.003052  3.937055  0.005
C  C134  1  0.23920021  0.98819751  0.55864423  1  -0.002208  -0.012459  0.012743  0.165173  -0.013308  3.930798  -0.008
C  C135  1  0.26080506  0.51180237  0.05864494  1  -0.002197  -0.012463  0.012767  0.165273  -0.013312  3.930717  -0.008
C  C136  1  0.76080005  0.01180230  0.44135743  1  -0.00223  -0.012458  0.012713  0.165233  -0.013306  3.930764  -0.008
C  C137  1  0.73920127  0.48819806  0.94135445  1  -0.002252  -0.01246  0.012769  0.165242  -0.013309  3.930831  -0.008
C  C138  1  0.28247812  0.94094987  0.49775541  1  0.025577  0.006037  -0.088541  -0.190461  0.002707  3.951628  0.005
C  C139  1  0.21752118  0.55904805  0.99775607  1  0.025886  0.006038  -0.088548  -0.190499  0.002707  3.951569  0.005
C  C140  1  0.71751898  0.05904928  0.50224568  1  0.025872  0.006036  -0.088588  -0.190593  0.002706  3.951743  0.005
C  C141  1  0.78247811  0.44095177  0.00224331  1  0.025926  0.006038  -0.088501  -0.19046  0.002707  3.951653  0.005
C  C142  1  0.30432480  0.85120199  0.50829064  1  0.40671  -0.008738  0.04633  0.099461  -0.009604  3.94492  -0.005
C  C143  1  0.19567512  0.64879582  0.00829101  1  0.406776  -0.008741  0.046301  0.099443  -0.009607  3.944766  -0.005
C  C144  1  0.69567424  0.14879713  0.49171103  1  0.406681  -0.008736  0.046301  0.099456  -0.009602  3.944896  -0.005
C  C145  1  0.80432366  0.35120259  0.99170610  1  0.406511  -0.00874  0.046325  0.099525  -0.009606  3.944946  -0.005
C  C146  1  0.20340689  0.08216933  0.55089897  1  0.015304  -0.000305  -0.149902  -0.188844  -0.00068  3.922655  0.0
C  C147  1  0.29660085  0.41783083  0.05089940  1  0.015073  -0.000303  -0.149909  -0.18889  -0.000679  3.922735  0.0
C  C148  1  0.79659363  0.91783119  0.44910042  1  0.015375  -0.000305  -0.149922  -0.188936  -0.00068  3.922728  0.0
C  C149  1  0.70340767  0.58217028  0.94909942  1  0.015576  -0.000303  -0.149942  -0.188973  -0.000679  3.922692  0.0
C  C150  1  0.27286862  0.14741158  0.48646767  1  -0.013147  -4.5e-05  -0.153358  -0.192863  -0.000264  3.93777  0.0
C  C151  1  0.22713788  0.35259152  0.98646914  1  -0.013024  -4.5e-05  -0.153329  -0.192898  -0.000263  3.937955  0.0
C  C152  1  0.72713461  0.85259103  0.51353342  1  -0.013188  -4.5e-05  -0.153363  -0.192819  -0.000264  3.937773  0.0
C  C153  1  0.77287187  0.64741028  0.01353138  1  -0.013174  -4.6e-05  -0.153328  -0.19273  -0.000263  3.937661  0.0
C  C154  1  0.21841310  0.23444723  0.48353560  1  -0.018214  -0.00628  0.0102  0.162077  -0.006718  3.949457  -0.004
C  C155  1  0.28159490  0.26555727  0.98353519  1  -0.017775  -0.006258  0.010085  0.162005  -0.006694  3.949464  -0.004
C  C156  1  0.78159284  0.76555746  0.51646664  1  -0.017856  -0.00628  0.010103  0.162052  -0.006718  3.949475  -0.004
C  C157  1  0.71841169  0.73444387  0.01646420  1  -0.017925  -0.006258  0.010216  0.162093  -0.006695  3.949427  -0.004
C  C158  1  0.10447633  0.23642260  0.44031848  1  -0.078373  0.004034  -0.092795  -0.193588  0.00197  3.953082  0.003
C  C159  1  0.39553280  0.26357904  0.94031787  1  -0.079074  0.004025  -0.092738  -0.193336  0.001966  3.952817  0.003
C  C160  1  0.89553180  0.76358277  0.55968205  1  -0.079556  0.004034  -0.092692  -0.193398  0.00197  3.952889  0.003
C  C161  1  0.60447243  0.73641574  0.05967981  1  -0.079514  0.004026  -0.092872  -0.193643  0.001966  3.953154  0.003
C  C162  1  0.05083041  0.31531592  0.44310554  1  0.483391  -0.004669  0.038444  0.098658  -0.005362  3.954515  -0.003
C  C163  1  0.44917651  0.18468504  0.94310419  1  0.483508  -0.00465  0.03845  0.098516  -0.005341  3.954363  -0.003
C  C164  1  0.94917527  0.68468807  0.55689556  1  0.483439  -0.004668  0.038439  0.098577  -0.005363  3.954427  -0.003
C  C165  1  0.55082459  0.81530908  0.05689178  1  0.483665  -0.00465  0.038517  0.098701  -0.005342  3.954526  -0.003
C  C166  1  0.21393398  0.39040591  0.52758072  1  0.424416  -0.004479  0.048464  0.106064  -0.005074  3.91755  -0.003
C  C167  1  0.28606885  0.10959644  0.02757749  1  0.424423  -0.004462  0.048529  0.10599  -0.005057  3.91765  -0.003
C  C168  1  0.78606583  0.60959532  0.47242493  1  0.424786  -0.004479  0.048545  0.106054  -0.005074  3.917557  -0.003
C  C169  1  0.71393193  0.89040478  0.97242076  1  0.424481  -0.004462  0.048544  0.106119  -0.005057  3.917396  -0.003
C  C170  1  0.27413729  0.31446615  0.52712914  1  0.010201  0.004569  -0.082315  -0.16657  0.002235  3.892502  0.004
C  C171  1  0.22586702  0.18553760  0.02712608  1  0.010203  0.004558  -0.082261  -0.166485  0.00223  3.892677  0.004
C  C172  1  0.72586497  0.68553647  0.47287651  1  0.01045  0.004569  -0.082258  -0.16647  0.002235  3.892823  0.004
C  C173  1  0.77413744  0.81446570  0.97287331  1  0.01049  0.004558  -0.082328  -0.166548  0.00223  3.892373  0.004
N  N174  1  0.41042170  0.74302736  0.32218249  1  -1.285836  0.00132  -0.368077  -0.574606  0.00059  3.239963  0.001
N  N175  1  0.08957277  0.75697343  0.82218469  1  -1.285924  0.001321  -0.368086  -0.574529  0.00059  3.239998  0.001
N  N176  1  0.58957488  0.25697037  0.67781633  1  -1.285801  0.00132  -0.368079  -0.574522  0.00059  3.23987  0.001
N  N177  1  0.91042420  0.24303068  0.17781356  1  -1.285675  0.001321  -0.368066  -0.574533  0.00059  3.239889  0.001
N  N178  1  0.60716323  0.84449147  0.26846287  1  -1.257008  0.000623  -0.361159  -0.552871  0.000237  3.212917  0.0
N  N179  1  0.89283430  0.65550505  0.76846673  1  -1.257099  0.000623  -0.361152  -0.552808  0.000237  3.212868  0.0
N  N180  1  0.39283335  0.15550626  0.73153594  1  -1.257087  0.000623  -0.361154  -0.55286  0.000237  3.212774  0.0
N  N181  1  0.10716738  0.34449333  0.23153209  1  -1.257015  0.000623  -0.361172  -0.552876  0.000237  3.212928  0.0
N  N182  1  0.59826176  0.67950636  0.28778889  1  -1.233885  0.000608  -0.377474  -0.580854  0.000229  3.220898  0.0
N  N183  1  0.90172864  0.82048956  0.78779287  1  -1.233908  0.000608  -0.37759  -0.580914  0.00023  3.220592  0.0
N  N184  1  0.40173676  0.32049135  0.71221221  1  -1.233873  0.000608  -0.377597  -0.580996  0.000229  3.220876  0.0
N  N185  1  0.09826143  0.17950898  0.21220766  1  -1.233808  0.000608  -0.377546  -0.581002  0.00023  3.220998  0.0
N  N186  1  0.40874035  0.58558929  0.34092206  1  -1.278698  0.003347  -0.427819  -0.35335  0.001629  3.556945  0.002
N  N187  1  0.09125279  0.91441082  0.84091985  1  -1.278583  0.003347  -0.42785  -0.353281  0.001629  3.556985  0.002
N  N188  1  0.59125771  0.41440985  0.65908131  1  -1.278775  0.003347  -0.427814  -0.353308  0.001629  3.557016  0.002
N  N189  1  0.90874050  0.08559122  0.15907783  1  -1.278803  0.003347  -0.42781  -0.353219  0.001629  3.556927  0.002
N  N190  1  0.42211936  0.90130012  0.30416313  1  -1.175639  0.003086  -0.436273  -0.367742  0.001369  3.490657  0.002
N  N191  1  0.07788024  0.59869847  0.80416749  1  -1.17575  0.003087  -0.436184  -0.367663  0.00137  3.490603  0.002
N  N192  1  0.57787503  0.09869694  0.69583455  1  -1.175978  0.003086  -0.436208  -0.36767  0.001369  3.490743  0.002
N  N193  1  0.92212150  0.40130274  0.19584044  1  -1.175589  0.003086  -0.436185  -0.36763  0.00137  3.490854  0.002
N  N194  1  0.78452657  0.78038954  0.23697355  1  -1.261311  0.001999  -0.427029  -0.351046  0.000931  3.577232  0.001
N  N195  1  0.71546577  0.71960563  0.73697891  1  -1.261317  0.001999  -0.427137  -0.351138  0.000931  3.577043  0.001
N  N196  1  0.21546833  0.21960893  0.76302299  1  -1.261265  0.001999  -0.427087  -0.351086  0.000931  3.577119  0.001
N  N197  1  0.28452953  0.28038858  0.26301991  1  -1.260861  0.002  -0.427088  -0.351149  0.000931  3.577099  0.001
N  N198  1  0.28668383  0.80663968  0.57617274  1  -1.223141  0.062812  -0.340347  -0.273293  0.033127  3.649456  0.05
N  N199  1  0.21332083  0.69335879  0.07617369  1  -1.223071  0.062813  -0.340303  -0.273269  0.033127  3.64949  0.05
N  N200  1  0.71331863  0.19336081  0.42382949  1  -1.223159  0.062808  -0.340292  -0.273267  0.033125  3.649472  0.05
N  N201  1  0.78667672  0.30663894  0.92382512  1  -1.222877  0.06281  -0.340317  -0.273297  0.033125  3.649619  0.05
N  N202  1  0.10328634  0.39143208  0.48651462  1  -1.229976  0.05092  -0.332661  -0.272676  0.027117  3.58345  0.046
N  N203  1  0.39671481  0.10856969  0.98651443  1  -1.229992  0.050927  -0.332667  -0.272661  0.027124  3.58355  0.046
N  N204  1  0.89671495  0.60857056  0.51348876  1  -1.229952  0.050918  -0.332684  -0.272722  0.027118  3.58354  0.046
N  N205  1  0.60327932  0.89142667  0.01348495  1  -1.229962  0.050925  -0.332662  -0.272657  0.027123  3.583379  0.046
O  O206  1  0.17592149  0.60570381  0.49403692  1  -1.169876  0.098432  -0.307095  -0.590429  0.052257  2.457063  0.083
O  O207  1  0.32406873  0.89429850  0.99403883  1  -1.169701  0.098414  -0.307045  -0.59033  0.052246  2.457389  0.083
O  O208  1  0.82407909  0.39429954  0.50596873  1  -1.169944  0.09843  -0.307087  -0.590436  0.052256  2.457273  0.083
O  O209  1  0.67591695  0.10569869  0.00596511  1  -1.16961  0.098408  -0.307136  -0.590482  0.052248  2.457044  0.083
O  O210  1  0.39566005  0.65373999  0.48789857  1  -1.134627  0.098528  -0.297628  -0.513297  0.050995  2.295077  0.08
O  O211  1  0.10433201  0.84625662  0.98789854  1  -1.134873  0.098521  -0.297645  -0.513297  0.050992  2.294998  0.08
O  O212  1  0.60433937  0.34626551  0.51209968  1  -1.134789  0.098528  -0.297636  -0.51334  0.050995  2.295098  0.08
O  O213  1  0.89565722  0.15373697  0.01209914  1  -1.134734  0.098522  -0.297615  -0.513306  0.050993  2.295157  0.08
O  O214  1  0.31058051  0.88349624  0.16517078  1  -1.164082  0.08991  -0.323086  -0.570006  0.046801  2.444034  0.072
O  O215  1  0.18942471  0.61650507  0.66517724  1  -1.163883  0.089898  -0.323051  -0.570019  0.046794  2.443922  0.072
O  O216  1  0.68941923  0.11650216  0.83482405  1  -1.164001  0.089912  -0.323103  -0.57011  0.046798  2.443813  0.072
O  O217  1  0.81058393  0.38350171  0.33483069  1  -1.163982  0.089896  -0.323165  -0.570149  0.046792  2.443864  0.072
O  O218  1  0.47047368  0.00597650  0.11752291  1  -1.181936  0.061843  -0.304772  -0.558217  0.032596  2.377688  0.052
O  O219  1  0.02953022  0.49403011  0.61752543  1  -1.18235  0.061858  -0.304668  -0.558115  0.032598  2.377582  0.052
O  O220  1  0.52952664  0.99402615  0.88247591  1  -1.18192  0.061837  -0.304808  -0.558273  0.032592  2.377639  0.052
O  O221  1  0.97048288  0.50598086  0.38247738  1  -1.181816  0.061855  -0.304837  -0.558329  0.032603  2.377651  0.052
O  O222  1  0.05000543  0.93660440  0.13281022  1  -1.166875  0.041207  -0.303956  -0.534542  0.020292  2.162192  0.035
O  O223  1  0.44998996  0.56339350  0.63281161  1  -1.166951  0.041209  -0.303934  -0.534527  0.020293  2.162172  0.035
O  O224  1  0.94997817  0.06339778  0.86718063  1  -1.166887  0.041212  -0.303932  -0.534524  0.020295  2.162164  0.035
O  O225  1  0.55002206  0.43660117  0.36717753  1  -1.167018  0.041212  -0.303927  -0.534501  0.020295  2.162266  0.035
O  O226  1  0.00829672  0.78146981  0.15579606  1  -1.147152  0.088306  -0.330167  -0.555058  0.045217  2.228849  0.07
O  O227  1  0.49170875  0.71852937  0.65579125  1  -1.147072  0.088316  -0.330152  -0.555027  0.045221  2.228845  0.07
O  O228  1  0.99170315  0.21853426  0.84420447  1  -1.147298  0.088313  -0.33014  -0.555042  0.045221  2.228796  0.07
O  O229  1  0.50829500  0.28146401  0.34420245  1  -1.147161  0.088318  -0.330129  -0.555046  0.045223  2.228759  0.07
