# generated using pymatgen
data_CuH16C23(NO5)2
_symmetry_space_group_name_H-M   'P 1'
_cell_length_a   9.63809910
_cell_length_b   10.00441574
_cell_length_c   11.08969052
_cell_angle_alpha   90.00157008
_cell_angle_beta   90.82348594
_cell_angle_gamma   90.00018829
_symmetry_Int_Tables_number   1
_chemical_formula_structural   CuH16C23(NO5)2
_chemical_formula_sum   'Cu2 H32 C46 N4 O20'
_cell_volume   1069.19689068
_cell_formula_units_Z   2
loop_
 _symmetry_equiv_pos_site_id
 _symmetry_equiv_pos_as_xyz
  1  'x, y, z'
loop_
 _atom_site_type_symbol
 _atom_site_label
 _atom_site_symmetry_multiplicity
 _atom_site_fract_x
 _atom_site_fract_y
 _atom_site_fract_z
 _atom_site_occupancy
 _atom_site_pbe_cm5_charge
 _atom_site_pbe_ddec_charge
 _atom_site_pbe_ddec_spin_density
 _atom_site_pbe_ddec_sum_bond_order
 _atom_site_pbe_magmom
Cu  Cu0  1  0.70129500  0.57749066  0.03622976  1  0.728988  0.876714  -0.751675  2.157136  -0.57
Cu  Cu1  1  0.29869657  0.07749504  0.96377066  1  0.728985  0.876634  0.751683  2.157209  0.57
H  H2  1  0.15707393  0.45279869  0.35073962  1  0.112316  0.114524  2e-06  1.035878  0.0
H  H3  1  0.84292005  0.95280556  0.64926280  1  0.112256  0.114499  -2e-06  1.035854  0.0
H  H4  1  0.15284831  0.76114056  0.09244193  1  0.138445  0.128544  4e-06  0.97695  0.0
H  H5  1  0.84714180  0.26115195  0.90755306  1  0.138465  0.128548  -4e-06  0.976998  0.0
H  H6  1  0.96746668  0.77670237  0.24818238  1  0.11772  0.146148  -0.000262  0.999259  0.0
H  H7  1  0.03252876  0.27671639  0.75182294  1  0.117734  0.146089  0.000262  0.999412  0.0
H  H8  1  0.29363277  0.76473279  0.52206567  1  0.113082  0.142097  -2.1e-05  1.03581  0.0
H  H9  1  0.70637911  0.26472156  0.47792503  1  0.113035  0.142056  2.1e-05  1.035769  0.0
H  H10  1  0.46530413  0.73835511  0.35264168  1  0.134021  0.111307  9e-06  0.965923  0.0
H  H11  1  0.53470137  0.23834853  0.64734292  1  0.134014  0.111349  -9e-06  0.965802  0.0
H  H12  1  0.91757143  0.82166983  0.46974102  1  0.098678  0.109042  -2e-06  0.995828  0.0
H  H13  1  0.08243248  0.32168522  0.53026455  1  0.098662  0.109043  2e-06  0.995767  0.0
H  H14  1  0.05644020  0.81599863  0.57774404  1  0.100815  0.111082  -1.4e-05  1.008509  0.0
H  H15  1  0.94356675  0.31599944  0.42225600  1  0.100818  0.111109  1.4e-05  1.008467  0.0
H  H16  1  0.90809214  0.57941458  0.45581020  1  0.103905  0.119091  -4.4e-05  0.96477  0.0
H  H17  1  0.09193267  0.07943942  0.54419407  1  0.10391  0.119125  4.4e-05  0.964798  0.0
H  H18  1  0.07066269  0.56234295  0.53137159  1  0.096628  0.096669  2e-05  1.007396  0.0
H  H19  1  0.92935594  0.06233614  0.46864575  1  0.09661  0.096646  -2e-05  1.007256  0.0
H  H20  1  0.98135976  0.61244466  0.94824587  1  0.122124  0.097703  -0.001282  1.001495  -0.002
H  H21  1  0.01864028  0.11245217  0.05176086  1  0.122101  0.097692  0.001282  1.001432  0.002
H  H22  1  0.09893416  0.62523860  0.75182386  1  0.114784  0.142084  -0.000724  0.988868  -0.001
H  H23  1  0.90107014  0.12524793  0.24818953  1  0.114755  0.142094  0.000724  0.988855  0.001
H  H24  1  0.69394819  0.59341295  0.57955583  1  0.106821  0.13284  -0.000672  1.029956  -0.001
H  H25  1  0.30606522  0.09340669  0.42044511  1  0.106814  0.132762  0.000672  1.02987  0.001
H  H26  1  0.59304756  0.57976498  0.78527150  1  0.120526  0.094636  -0.001375  0.981031  -0.002
H  H27  1  0.40695644  0.07977071  0.21472544  1  0.120553  0.09468  0.001374  0.981065  0.002
H  H28  1  0.38579292  0.73286633  0.15239441  1  0.308478  0.274928  4.2e-05  0.999015  0.0
H  H29  1  0.61420324  0.23286715  0.84759271  1  0.308501  0.274892  -4.2e-05  0.999129  0.0
H  H30  1  0.35622691  0.47060288  0.59453178  1  0.351196  0.393516  -1.2e-05  0.841092  0.0
H  H31  1  0.64378062  0.97059465  0.40547026  1  0.351174  0.393523  1.2e-05  0.841169  0.0
H  H32  1  0.85356486  0.47041903  0.22187995  1  0.299507  0.357979  3.1e-05  0.98408  0.0
H  H33  1  0.14642707  0.97041966  0.77811837  1  0.299485  0.358026  -3.1e-05  0.984067  0.0
C  C34  1  0.23089657  0.43165906  0.28025439  1  -0.073524  -0.093261  -1.3e-05  3.960214  0.0
C  C35  1  0.76909421  0.93165986  0.71974659  1  -0.073374  -0.093024  1.4e-05  3.960014  0.0
C  C36  1  0.37245550  0.42943669  0.30816098  1  -0.02202  -0.09059  0.00015  4.007967  0.0
C  C37  1  0.62753836  0.92943619  0.69183815  1  -0.02205  -0.090877  -0.000151  4.007824  0.0
C  C38  1  0.46785706  0.40562393  0.21529036  1  0.010398  -0.028457  0.000245  3.880431  0.0
C  C39  1  0.53213670  0.90562598  0.78470639  1  0.010459  -0.028277  -0.000245  3.880666  0.0
C  C40  1  0.41640422  0.37669384  0.09908965  1  -0.011055  -0.105152  0.000203  3.948062  0.0
C  C41  1  0.58358631  0.87669562  0.90090547  1  -0.011111  -0.105281  -0.000203  3.948163  0.0
C  C42  1  0.27325361  0.37875127  0.07068909  1  0.015695  -0.020837  0.000153  3.865493  0.0
C  C43  1  0.72674007  0.87874738  0.92931060  1  0.015734  -0.020742  -0.000152  3.865478  0.0
C  C44  1  0.18003271  0.41104728  0.16315200  1  -0.017462  -0.07774  7.5e-05  3.965014  0.0
C  C45  1  0.81995797  0.91104484  0.83684756  1  -0.017599  -0.077945  -7.6e-05  3.965252  0.0
C  C46  1  0.42033326  0.45929449  0.43274793  1  0.230826  0.564637  3e-05  4.137791  0.0
C  C47  1  0.57964196  0.95929902  0.56724281  1  0.230879  0.564894  -3e-05  4.138377  0.0
C  C48  1  0.62235950  0.39611977  0.24096281  1  0.211209  0.589784  -0.000804  4.204042  0.0
C  C49  1  0.37763318  0.89612454  0.75903280  1  0.211259  0.589818  0.000804  4.204057  0.0
C  C50  1  0.51597839  0.33563367  0.00358767  1  0.221493  0.611598  -0.001503  4.142504  -0.001
C  C51  1  0.48401095  0.83564106  0.99640733  1  0.221529  0.611595  0.001503  4.142152  0.001
C  C52  1  0.22854894  0.35617450  0.93963515  1  0.202075  0.571789  -0.000111  4.241064  -0.003
C  C53  1  0.77144152  0.85617608  0.06036037  1  0.201971  0.571717  0.00011  4.241041  0.003
C  C54  1  0.02691809  0.42011570  0.14147200  1  0.225569  0.569294  0.000125  4.151844  0.0
C  C55  1  0.97307260  0.92011641  0.85852328  1  0.225603  0.56937  -0.000125  4.15162  0.0
C  C56  1  0.17629347  0.75776157  0.18873088  1  0.074507  0.116672  8e-05  3.828823  0.0
C  C57  1  0.82370288  0.25776793  0.81126767  1  0.074457  0.116577  -8e-05  3.82892  0.0
C  C58  1  0.07607888  0.76885585  0.27636340  1  -0.065919  -0.159344  -0.000195  3.870212  0.0
C  C59  1  0.92392169  0.26886484  0.72363906  1  -0.065872  -0.159205  0.000195  3.870177  0.0
C  C60  1  0.11654449  0.76839699  0.39829235  1  0.029811  0.187826  3.6e-05  3.905499  0.0
C  C61  1  0.88346231  0.26840211  0.60171014  1  0.029732  0.187769  -3.6e-05  3.905611  0.0
C  C62  1  0.25855405  0.76070507  0.42807639  1  -0.077459  -0.184923  -7e-06  3.913682  0.0
C  C63  1  0.74145371  0.26070083  0.57191960  1  -0.077375  -0.184901  7e-06  3.913698  0.0
C  C64  1  0.35394871  0.74818835  0.33696430  1  0.060311  0.086227  2e-05  3.910775  0.0
C  C65  1  0.64605377  0.24818360  0.66302775  1  0.060317  0.086167  -2e-05  3.9106  0.0
C  C66  1  0.01219256  0.76778361  0.49690189  1  -0.153723  -0.205788  0.000211  3.895395  0.0
C  C67  1  0.98781320  0.26778803  0.50310057  1  -0.153724  -0.205822  -0.00021  3.895472  0.0
C  C68  1  0.97429308  0.62122432  0.52785967  1  -0.150482  -0.187815  -0.000213  3.893937  0.0
C  C69  1  0.02572779  0.12123375  0.47215192  1  -0.15046  -0.187746  0.000213  3.894003  0.0
C  C70  1  0.92196523  0.60839007  0.86452811  1  0.049501  0.10917  -0.00032  3.945983  0.0
C  C71  1  0.07804208  0.10839434  0.13548038  1  0.049485  0.109087  0.000319  3.945892  0.0
C  C72  1  0.98631338  0.61645192  0.75376501  1  -0.079725  -0.172548  -0.004887  3.900529  -0.006
C  C73  1  0.01369813  0.11645638  0.24624640  1  -0.079637  -0.172443  0.004887  3.900564  0.006
C  C74  1  0.90571554  0.61158132  0.64803930  1  0.012102  0.167975  0.002748  3.943574  0.003
C  C75  1  0.09429799  0.11157928  0.35196749  1  0.012099  0.167907  -0.002748  3.943665  -0.003
C  C76  1  0.76172683  0.59912076  0.65879431  1  -0.089139  -0.192095  -0.004804  3.93699  -0.006
C  C77  1  0.23828144  0.09911684  0.34120854  1  -0.089065  -0.191935  0.004803  3.936727  0.006
C  C78  1  0.70453278  0.59038827  0.77274910  1  0.041656  0.091013  -0.000417  3.971098  0.0
C  C79  1  0.29547544  0.09038904  0.22725173  1  0.041645  0.090946  0.000417  3.970985  0.0
N  N80  1  0.78356520  0.59534376  0.87372469  1  -0.354755  -0.262555  -0.070212  3.684795  -0.089
N  N81  1  0.21643994  0.09534818  0.12627715  1  -0.35473  -0.262444  0.070207  3.684731  0.089
N  N82  1  0.31075299  0.74491995  0.22113801  1  -0.343007  -0.136749  -9.3e-05  3.709692  0.0
N  N83  1  0.68924743  0.24492089  0.77885664  1  -0.342982  -0.136576  9.3e-05  3.709736  0.0
O  O84  1  0.31993919  0.43892561  0.51646532  1  -0.326562  -0.482592  7e-06  2.267149  0.0
O  O85  1  0.68006303  0.93891789  0.48353680  1  -0.326677  -0.482865  -6e-06  2.266875  0.0
O  O86  1  0.53606756  0.50076179  0.46071573  1  -0.272975  -0.480498  -6.4e-05  2.177539  0.0
O  O87  1  0.46395692  0.00074568  0.53928301  1  -0.272789  -0.480253  6.3e-05  2.179145  0.0
O  O88  1  0.66735923  0.29458746  0.29250854  1  -0.305237  -0.505386  -0.010129  2.082595  -0.013
O  O89  1  0.33263095  0.79458851  0.70748096  1  -0.305254  -0.505348  0.010132  2.082452  0.013
O  O90  1  0.69826356  0.49608819  0.20504280  1  -0.330455  -0.568975  -0.034326  2.37928  -0.046
O  O91  1  0.30172948  0.99609282  0.79495345  1  -0.330489  -0.56907  0.034326  2.379256  0.046
O  O92  1  0.49794056  0.22348170  0.95154907  1  -0.302011  -0.543923  -0.008357  2.226554  -0.01
O  O93  1  0.50204939  0.72348707  0.04844319  1  -0.302087  -0.544003  0.008362  2.226362  0.01
O  O94  1  0.61655728  0.41171014  0.97519788  1  -0.322195  -0.561273  -0.04742  2.434616  -0.064
O  O95  1  0.38343443  0.91171440  0.02479901  1  -0.322219  -0.561241  0.047429  2.434333  0.064
O  O96  1  0.22452630  0.45688502  0.87412853  1  -0.310203  -0.501201  0.021737  2.053813  0.028
O  O97  1  0.77547073  0.95688862  0.12586589  1  -0.310146  -0.501196  -0.021743  2.053932  -0.028
O  O98  1  0.20321232  0.23595796  0.90126419  1  -0.333092  -0.55548  0.076385  2.341588  0.104
O  O99  1  0.79677048  0.73596379  0.09873645  1  -0.333092  -0.555478  -0.076396  2.341552  -0.104
O  O100  1  0.95967977  0.46388933  0.23783471  1  -0.330964  -0.493816  -0.000137  2.373359  0.0
O  O101  1  0.04031213  0.96388313  0.76216346  1  -0.330938  -0.493865  0.000137  2.373472  0.0
O  O102  1  0.97028026  0.39079965  0.04464260  1  -0.281289  -0.503967  0.000261  2.20157  0.0
O  O103  1  0.02971660  0.89080335  0.95535921  1  -0.281306  -0.503996  -0.000261  2.201163  0.0
