# generated using pymatgen
data_ZnH18C16N2O5
_symmetry_space_group_name_H-M   'P 1'
_cell_length_a   8.10986860
_cell_length_b   14.89166643
_cell_length_c   17.55655455
_cell_angle_alpha   79.09196581
_cell_angle_beta   76.66853159
_cell_angle_gamma   74.21571777
_symmetry_Int_Tables_number   1
_chemical_formula_structural   ZnH18C16N2O5
_chemical_formula_sum   'Zn4 H72 C64 N8 O20'
_cell_volume   1967.15820375
_cell_formula_units_Z   4
loop_
 _symmetry_equiv_pos_site_id
 _symmetry_equiv_pos_as_xyz
  1  'x, y, z'
loop_
 _atom_site_type_symbol
 _atom_site_label
 _atom_site_symmetry_multiplicity
 _atom_site_fract_x
 _atom_site_fract_y
 _atom_site_fract_z
 _atom_site_occupancy
 _atom_site_pbe_bader_charge
 _atom_site_pbe_bader_spin_density
 _atom_site_pbe_cm5_charge
 _atom_site_pbe_ddec_charge
 _atom_site_pbe_ddec_spin_density
 _atom_site_pbe_ddec_sum_bond_order
 _atom_site_pbe_magmom
Zn  Zn0  1  0.24441933  0.57935839  0.42361764  1  1.219459  0  0.682466  0.807678  0  2.299091  0
Zn  Zn1  1  0.24735271  0.92056522  0.07650414  1  1.219737  0  0.68254  0.80761  0  2.298367  0
Zn  Zn2  1  0.75557449  0.42064205  0.57638267  1  1.219423  0  0.682455  0.807668  0  2.29912  0
Zn  Zn3  1  0.75264937  0.07943382  0.92349661  1  1.219789  0  0.682568  0.807691  0  2.29842  0
H  H4  1  0.09575040  0.54755686  0.56121188  1  0.459923  0  0.28866  0.284832  0  0.989742  0
H  H5  1  0.20457736  0.95224086  0.93885446  1  0.449751  0  0.288251  0.28286  0  0.991806  0
H  H6  1  0.90424369  0.45244572  0.43878578  1  0.459952  0  0.288655  0.28487  0  0.989691  0
H  H7  1  0.79542819  0.04775889  0.06114523  1  0.449591  0  0.288265  0.282803  0  0.99182  0
H  H8  1  0.30583507  0.49241161  0.55810763  1  0.48369  0  0.289392  0.292297  0  0.978754  0
H  H9  1  0.35665162  0.00727275  0.94191971  1  0.49191  0  0.289969  0.293993  0  0.975998  0
H  H10  1  0.69416123  0.50759168  0.44188911  1  0.483576  0  0.289364  0.29226  0  0.978827  0
H  H11  1  0.64335297  0.99272630  0.05807962  1  0.491873  0  0.289965  0.293959  0  0.976009  0
H  H12  1  0.90626716  0.62710966  0.44134855  1  0.476472  0  0.29218  0.28916  0  0.979153  0
H  H13  1  0.97432826  0.87294596  0.05880543  1  0.469775  0  0.291716  0.287542  0  0.980136  0
H  H14  1  0.09372746  0.37289154  0.55864528  1  0.476395  0  0.292167  0.289098  0  0.979171  0
H  H15  1  0.02567166  0.12705517  0.94119751  1  0.469705  0  0.291662  0.287468  0  0.980241  0
H  H16  1  0.98939212  0.71573764  0.39487631  1  0.416026  0  0.301567  0.280076  0  0.925794  0
H  H17  1  0.09933529  0.78433458  0.10540858  1  0.420849  0  0.30162  0.279701  0  0.925911  0
H  H18  1  0.01060458  0.28426491  0.60512392  1  0.416083  0  0.301544  0.279973  0  0.925837  0
H  H19  1  0.90065148  0.21566790  0.89460130  1  0.421037  0  0.301605  0.27972  0  0.925947  0
H  H20  1  0.57400322  0.36646905  0.27211157  1  0.103294  0  0.102552  0.099261  0  1.030088  0
H  H21  1  0.21346222  0.13372662  0.22754065  1  0.095928  0  0.102703  0.099472  0  1.029051  0
H  H22  1  0.42599375  0.63352999  0.72788804  1  0.103248  0  0.102567  0.099319  0  1.030072  0
H  H23  1  0.78657634  0.86627031  0.77245924  1  0.096217  0  0.102616  0.099258  0  1.029096  0
H  H24  1  0.72269789  0.21180940  0.22374753  1  0.089858  0  0.100884  0.116204  0  1.044502  0
H  H25  1  0.15918496  0.28842916  0.27592071  1  0.093124  0  0.101542  0.117316  0  1.045244  0
H  H26  1  0.27729388  0.78818968  0.77624752  1  0.089868  0  0.100895  0.116252  0  1.044581  0
H  H27  1  0.84083838  0.71157059  0.72407928  1  0.09355  0  0.101572  0.117358  0  1.045194  0
H  H28  1  0.34944738  0.08172743  0.39235353  1  0.110302  0  0.104147  0.119748  0  1.009988  0
H  H29  1  0.82337026  0.41830075  0.10768455  1  0.070893  0  0.103782  0.118524  0  1.011316  0
H  H30  1  0.65054486  0.91827372  0.60764684  1  0.110325  0  0.10414  0.119714  0  1.010011  0
H  H31  1  0.17662279  0.58169329  0.89232483  1  0.070956  0  0.103788  0.118551  0  1.011184  0
H  H32  1  0.20038916  0.23752367  0.43919041  1  0.069684  0  0.102212  0.098974  0  1.009348  0
H  H33  1  0.87689928  0.26248145  0.06080583  1  0.071821  0  0.102397  0.099215  0  1.008982  0
H  H34  1  0.79961392  0.76247888  0.56081138  1  0.069581  0  0.102239  0.099004  0  1.009298  0
H  H35  1  0.12310523  0.73750694  0.93920658  1  0.07195  0  0.102393  0.099162  0  1.009059  0
H  H36  1  0.74327324  0.94335291  0.39669940  1  0.073253  0  0.109176  0.12486  0  0.980807  0
H  H37  1  0.08316651  0.55693061  0.10292858  1  0.062446  0  0.108725  0.123921  0  0.981198  0
H  H38  1  0.25671266  0.05665105  0.60330066  1  0.073084  0  0.109143  0.124778  0  0.980839  0
H  H39  1  0.91683010  0.44306351  0.89707070  1  0.062445  0  0.108725  0.12392  0  0.98117  0
H  H40  1  0.67674601  0.78392423  0.44723164  1  0.055283  0  0.100713  0.095561  0  1.04628  0
H  H41  1  0.90725461  0.71631047  0.05271774  1  0.104653  0  0.100291  0.095053  0  1.047276  0
H  H42  1  0.32323645  0.21608183  0.55276961  1  0.055458  0  0.100708  0.095589  0  1.046178  0
H  H43  1  0.09275340  0.28368366  0.94728028  1  0.104647  0  0.100285  0.095066  0  1.047213  0
H  H44  1  0.35257960  0.83101738  0.27493900  1  0.111526  0  0.10462  0.111533  0  1.01496  0
H  H45  1  0.45906657  0.66881946  0.22550327  1  0.117145  0  0.104563  0.111336  0  1.01555  0
H  H46  1  0.64742695  0.16897681  0.72505176  1  0.111474  0  0.104623  0.111542  0  1.015133  0
H  H47  1  0.54093692  0.33117611  0.77449161  1  0.117125  0  0.10453  0.11129  0  1.015537  0
H  H48  1  0.41906823  0.98726427  0.22339204  1  0.104796  0  0.10894  0.131962  0  1.020493  0
H  H49  1  0.63078638  0.51264643  0.27674782  1  0.118747  0  0.109141  0.131985  0  1.020584  0
H  H50  1  0.58094022  0.01272851  0.77659873  1  0.104979  0  0.108932  0.13203  0  1.0205  0
H  H51  1  0.36920738  0.48735121  0.72325066  1  0.118772  0  0.109161  0.132054  0  1.020508  0
H  H52  1  0.37289241  0.64307184  0.55863191  1  0.093886  0  0.097346  0.110245  0  1.033703  0
H  H53  1  0.57443371  0.85651551  0.94155453  1  0.081725  0  0.097359  0.111226  0  1.033234  0
H  H54  1  0.62710205  0.35693002  0.44136810  1  0.093819  0  0.097328  0.110227  0  1.033742  0
H  H55  1  0.42556964  0.14348353  0.05844608  1  0.081285  0  0.097354  0.111217  0  1.033286  0
H  H56  1  0.21419380  0.61772040  0.64370898  1  0.017071  0  0.090163  0.09216  0  1.037519  0
H  H57  1  0.47533158  0.88176717  0.85648958  1  0.01815  0  0.090286  0.092775  0  1.038288  0
H  H58  1  0.78579680  0.38228147  0.35628918  1  0.017041  0  0.090173  0.09218  0  1.037459  0
H  H59  1  0.52467110  0.11822764  0.14351120  1  0.018132  0  0.090305  0.092798  0  1.038287  0
H  H60  1  0.14741870  0.69796898  0.56155302  1  0.040902  0  0.095708  0.099058  0  0.990606  0
H  H61  1  0.40653291  0.80169608  0.93875483  1  0.041044  0  0.095704  0.099283  0  0.990116  0
H  H62  1  0.85257354  0.30203499  0.43844634  1  0.041011  0  0.095742  0.099111  0  0.990595  0
H  H63  1  0.59346924  0.19830293  0.06124877  1  0.041036  0  0.095682  0.099289  0  0.990106  0
H  H64  1  0.07802191  0.65298709  0.27207451  1  0.054773  0  0.099781  0.108361  0  0.985925  0
H  H65  1  0.00276675  0.84739588  0.22806002  1  0.05504  0  0.099776  0.10776  0  0.986301  0
H  H66  1  0.92198839  0.34702183  0.72792207  1  0.054958  0  0.099795  0.10842  0  0.985903  0
H  H67  1  0.99721301  0.15261649  0.77194567  1  0.055716  0  0.09979  0.107722  0  0.986247  0
H  H68  1  0.84845465  0.66461632  0.30716438  1  0.05614  0  0.091219  0.096369  0  1.036908  0
H  H69  1  0.81981386  0.83574889  0.19301357  1  0.028266  0  0.090529  0.094587  0  1.036235  0
H  H70  1  0.15155363  0.33539405  0.69282650  1  0.055974  0  0.091242  0.096357  0  1.037001  0
H  H71  1  0.18016964  0.16426632  0.80698841  1  0.028352  0  0.090564  0.094631  0  1.03614  0
H  H72  1  0.99867144  0.55282990  0.31965561  1  0.082183  0  0.100389  0.110605  0  1.016648  0
H  H73  1  0.87105320  0.94750475  0.18034715  1  0.080316  0  0.100549  0.110177  0  1.016518  0
H  H74  1  0.00133398  0.44717835  0.68033591  1  0.082052  0  0.100416  0.110603  0  1.016552  0
H  H75  1  0.12893782  0.05250767  0.81965158  1  0.080555  0  0.100522  0.110046  0  1.016594  0
C  C76  1  0.29113181  0.40290865  0.39054313  1  1.54218  0  0.20449  0.571401  0  4.220414  0
C  C77  1  0.08463405  0.09712470  0.10942193  1  1.53166  0  0.203534  0.569735  0  4.222095  0
C  C78  1  0.70886836  0.59709180  0.60945704  1  1.542175  0  0.204562  0.5715  0  4.220351  0
C  C79  1  0.91537787  0.90286940  0.89058022  1  1.531743  0  0.203596  0.569938  0  4.221739  0
C  C80  1  0.37908151  0.31154643  0.35993290  1  -0.003434  0  -0.031679  -0.074988  0  4.007426  0
C  C81  1  0.05073162  0.18852030  0.13997501  1  -0.026681  0  -0.03119  -0.075064  0  4.009682  0
C  C82  1  0.62091968  0.68845188  0.64007091  1  -0.003266  0  -0.031647  -0.074903  0  4.00721  0
C  C83  1  0.94928296  0.81147376  0.86003197  1  -0.027111  0  -0.031224  -0.075091  0  4.009949  0
C  C84  1  0.52584052  0.30396077  0.29851536  1  -0.133943  0  -0.080407  -0.063412  0  3.987425  0
C  C85  1  0.12887062  0.19617319  0.20126599  1  -0.100161  0  -0.079927  -0.062191  0  3.985819  0
C  C86  1  0.47415975  0.69603682  0.70148980  1  -0.134012  0  -0.080462  -0.06352  0  3.987497  0
C  C87  1  0.87115905  0.80382092  0.79873476  1  -0.100684  0  -0.079738  -0.061761  0  3.985586  0
C  C88  1  0.60868423  0.21837531  0.27121036  1  0.062963  0  -0.103342  -0.19903  0  3.978001  0
C  C89  1  0.09890698  0.28177120  0.22855809  1  0.060245  0  -0.10415  -0.201026  0  3.979008  0
C  C90  1  0.39131694  0.78162301  0.72879231  1  0.062804  0  -0.103398  -0.199196  0  3.978312  0
C  C91  1  0.90111665  0.71822503  0.77144185  1  0.060659  0  -0.104367  -0.201448  0  3.979197  0
C  C92  1  0.54554110  0.13839821  0.30558411  1  0.413528  0  0.091885  0.274722  0  4.044335  0
C  C93  1  0.98988703  0.36168394  0.19429322  1  0.383984  0  0.090894  0.273834  0  4.043457  0
C  C94  1  0.45445369  0.86160011  0.69441756  1  0.41338  0  0.091979  0.274838  0  4.044329  0
C  C95  1  0.01012150  0.63831224  0.80571239  1  0.38405  0  0.091064  0.274194  0  4.043281  0
C  C96  1  0.39858033  0.14412891  0.36647085  1  -0.095831  0  -0.110745  -0.228538  0  4.011761  0
C  C97  1  0.90915427  0.35592534  0.13351634  1  -0.031482  0  -0.110308  -0.226342  0  4.010734  0
C  C98  1  0.60141412  0.85587295  0.63352860  1  -0.09553  0  -0.110767  -0.228507  0  4.011827  0
C  C99  1  0.09084067  0.64407012  0.86649203  1  -0.031966  0  -0.110357  -0.226464  0  4.010578  0
C  C100  1  0.31657382  0.23092176  0.39273971  1  -0.00127  0  -0.083456  -0.067564  0  4.011332  0
C  C101  1  0.94016274  0.26911734  0.10725286  1  -0.001042  0  -0.083896  -0.068262  0  4.012164  0
C  C102  1  0.68342478  0.76907939  0.60726109  1  -0.001381  0  -0.083491  -0.067632  0  4.011313  0
C  C103  1  0.05983826  0.73087881  0.89275644  1  -0.000987  0  -0.083853  -0.068215  0  4.012435  0
C  C104  1  0.58549206  0.97285839  0.30761897  1  0.367303  0  0.08214  0.250008  0  4.059604  0
C  C105  1  0.86637980  0.52722397  0.19226951  1  0.351596  0  0.08144  0.249337  0  4.057563  0
C  C106  1  0.41450009  0.02713997  0.69237843  1  0.367186  0  0.082159  0.250013  0  4.059775  0
C  C107  1  0.13362039  0.47277365  0.80773225  1  0.351911  0  0.081366  0.249223  0  4.057599  0
C  C108  1  0.65856086  0.91727251  0.37063097  1  -0.018541  0  -0.100834  -0.202849  0  4.003608  0
C  C109  1  0.94643564  0.58291286  0.12917288  1  -0.011782  0  -0.100649  -0.201722  0  4.00521  0
C  C110  1  0.34142251  0.08273145  0.62936937  1  -0.017797  0  -0.100823  -0.202728  0  4.003495  0
C  C111  1  0.05356009  0.41708336  0.87082845  1  -0.011817  0  -0.100622  -0.201652  0  4.005097  0
C  C112  1  0.62264986  0.82916621  0.39800910  1  -0.022021  0  -0.087702  -0.083692  0  4.003801  0
C  C113  1  0.84955210  0.67098896  0.10194332  1  -0.051623  0  -0.086794  -0.082785  0  4.0056  0
C  C114  1  0.37733607  0.17083774  0.60199210  1  -0.022535  0  -0.087714  -0.083874  0  4.003779  0
C  C115  1  0.15045341  0.32900798  0.89805567  1  -0.051839  0  -0.086806  -0.082815  0  4.005813  0
C  C116  1  0.51324878  0.79744074  0.36346351  1  0.064636  0  -0.024194  -0.052958  0  3.98687  0
C  C117  1  0.67407361  0.70259499  0.13668171  1  -0.054184  0  -0.024228  -0.053726  0  3.98529  0
C  C118  1  0.48674938  0.20255833  0.63653312  1  0.064713  0  -0.024225  -0.052745  0  3.986652  0
C  C119  1  0.32592560  0.29740193  0.86331912  1  -0.054  0  -0.024242  -0.053792  0  3.98537  0
C  C120  1  0.43767222  0.85567568  0.30171237  1  -0.124165  0  -0.081854  -0.068168  0  3.962675  0
C  C121  1  0.59539911  0.64427325  0.19850412  1  -0.002306  0  -0.081237  -0.066649  0  3.95927  0
C  C122  1  0.56233503  0.14431990  0.69828038  1  -0.124028  0  -0.081829  -0.068195  0  3.962738  0
C  C123  1  0.40460158  0.35572300  0.80149267  1  -0.002263  0  -0.081154  -0.066494  0  3.959023  0
C  C124  1  0.47458507  0.94332708  0.27287586  1  0.0107  0  -0.095361  -0.195406  0  3.965328  0
C  C125  1  0.69139866  0.55664428  0.22719731  1  -0.012301  0  -0.095218  -0.195455  0  3.963844  0
C  C126  1  0.52541864  0.05666781  0.72711510  1  0.010316  0  -0.095288  -0.195497  0  3.965335  0
C  C127  1  0.30859602  0.44335126  0.77280082  1  -0.012321  0  -0.095246  -0.195554  0  3.963855  0
C  C128  1  0.47833236  0.70160055  0.39239729  1  1.552359  0  0.203817  0.570164  0  4.241592  0
C  C129  1  0.57202145  0.79840348  0.10778141  1  1.552922  0  0.20384  0.572436  0  4.235875  0
C  C130  1  0.52166710  0.29839852  0.60760033  1  1.552366  0  0.20387  0.570172  0  4.241439  0
C  C131  1  0.42798279  0.20159628  0.89221671  1  1.552712  0  0.203853  0.572472  0  4.235658  0
C  C132  1  0.24060295  0.63270065  0.57903445  1  0.252235  0  -0.155835  -0.178694  0  3.920167  0
C  C133  1  0.45212325  0.86691869  0.92117283  1  0.260678  0  -0.155607  -0.180231  0  3.921284  0
C  C134  1  0.75938770  0.36730121  0.42096541  1  0.252181  0  -0.155827  -0.178694  0  3.920177  0
C  C135  1  0.54788165  0.13307966  0.07882658  1  0.261198  0  -0.155569  -0.180255  0  3.921287  0
C  C136  1  0.97884973  0.62862310  0.31931527  1  0.206581  0  -0.154808  -0.190028  0  3.935071  0
C  C137  1  0.92648462  0.87167744  0.18080314  1  0.233449  0  -0.154377  -0.186957  0  3.931512  0
C  C138  1  0.02115258  0.37138372  0.68067968  1  0.206684  0  -0.154902  -0.190169  0  3.935081  0
C  C139  1  0.07350459  0.12833354  0.81920000  1  0.232617  0  -0.154421  -0.186753  0  3.931367  0
N  N140  1  0.22160061  0.55548429  0.54223532  1  -1.190231  0  -0.636997  -0.527363  0  3.426484  0
N  N141  1  0.31938468  0.94426233  0.95786886  1  -1.184399  0  -0.6375  -0.527491  0  3.427039  0
N  N142  1  0.77839351  0.44451828  0.45776348  1  -1.190173  0  -0.636991  -0.527408  0  3.426422  0
N  N143  1  0.68062120  0.05573671  0.04213147  1  -1.184228  0  -0.637527  -0.527429  0  3.427105  0
N  N144  1  0.00222065  0.64529906  0.39598918  1  -1.1548  0  -0.630432  -0.519965  0  3.426528  0
N  N145  1  0.04312432  0.85480233  0.10417715  1  -1.149828  0  -0.629747  -0.517941  0  3.424726  0
N  N146  1  0.99777596  0.35470353  0.60400763  1  -1.154714  0  -0.630384  -0.519715  0  3.426555  0
N  N147  1  0.95686967  0.14520089  0.89582896  1  -1.150078  0  -0.629665  -0.517989  0  3.424909  0
O  O148  1  0.36782404  0.47158389  0.36452624  1  -1.166216  0  -0.327754  -0.545345  0  2.293166  0
O  O149  1  0.20406026  0.02851993  0.13542877  1  -1.166974  0  -0.327388  -0.544591  0  2.291778  0
O  O150  1  0.63217615  0.52841656  0.63547450  1  -1.166209  0  -0.327783  -0.545414  0  2.293224  0
O  O151  1  0.79595302  0.97147696  0.86457620  1  -1.166756  0  -0.327514  -0.544841  0  2.291756  0
O  O152  1  0.14939882  0.41052544  0.44010178  1  -1.211992  0  -0.323541  -0.581123  0  2.223532  0
O  O153  1  0.99992496  0.08938979  0.05993455  1  -1.201109  0  -0.322879  -0.579337  0  2.224748  0
O  O154  1  0.85059910  0.58947713  0.55989659  1  -1.211986  0  -0.323575  -0.581163  0  2.223491  0
O  O155  1  0.00008545  0.91060499  0.94007050  1  -1.201356  0  -0.322873  -0.579397  0  2.224418  0
O  O156  1  0.63548584  0.05666684  0.27471425  1  -1.101953  0  -0.155876  -0.226001  0  2.574015  0
O  O157  1  0.96751063  0.44342877  0.22508582  1  -1.106537  0  -0.155825  -0.226553  0  2.572534  0
O  O158  1  0.36450465  0.94333225  0.72527980  1  -1.101908  0  -0.155926  -0.225991  0  2.574212  0
O  O159  1  0.03248836  0.55656883  0.77491892  1  -1.106767  0  -0.155793  -0.226536  0  2.572533  0
O  O160  1  0.58016676  0.64035848  0.43057037  1  -1.18913  0  -0.318425  -0.554707  0  2.16757  0
O  O161  1  0.65058671  0.85972123  0.06958898  1  -1.194078  0  -0.318805  -0.557317  0  2.163955  0
O  O162  1  0.41983966  0.35964200  0.56942569  1  -1.189206  0  -0.318469  -0.554751  0  2.167612  0
O  O163  1  0.34940282  0.14028058  0.93041671  1  -1.193867  0  -0.318872  -0.557386  0  2.163721  0
O  O164  1  0.33957750  0.69033964  0.37472074  1  -1.176925  0  -0.341138  -0.575574  0  2.346128  0
O  O165  1  0.40437424  0.80953490  0.12547091  1  -1.171956  0  -0.341511  -0.575843  0  2.341705  0
O  O166  1  0.66042075  0.30965940  0.62527929  1  -1.176863  0  -0.341115  -0.575569  0  2.346104  0
O  O167  1  0.59562896  0.19045854  0.87452547  1  -1.17205  0  -0.341453  -0.575831  0  2.341706  0
