# generated using pymatgen
data_HoH6C8NO8
_symmetry_space_group_name_H-M   'P 1'
_cell_length_a   6.31996509
_cell_length_b   9.33174341
_cell_length_c   9.75413095
_cell_angle_alpha   72.58139884
_cell_angle_beta   81.01854685
_cell_angle_gamma   83.27125991
_symmetry_Int_Tables_number   1
_chemical_formula_structural   HoH6C8NO8
_chemical_formula_sum   'Ho2 H12 C16 N2 O16'
_cell_volume   540.63662133
_cell_formula_units_Z   2
loop_
 _symmetry_equiv_pos_site_id
 _symmetry_equiv_pos_as_xyz
  1  'x, y, z'
loop_
 _atom_site_type_symbol
 _atom_site_label
 _atom_site_symmetry_multiplicity
 _atom_site_fract_x
 _atom_site_fract_y
 _atom_site_fract_z
 _atom_site_occupancy
 _atom_site_hle17_bader_spin_density
 _atom_site_hle17_ddec_charge
 _atom_site_hle17_ddec_spin_density
 _atom_site_hle17_ddec_sum_bond_order
 _atom_site_hle17_magmom
 _atom_site_hse06_10hf_bader_spin_density
 _atom_site_hse06_10hf_ddec_charge
 _atom_site_hse06_10hf_ddec_spin_density
 _atom_site_hse06_10hf_ddec_sum_bond_order
 _atom_site_hse06_10hf_magmom
 _atom_site_hse06_bader_spin_density
 _atom_site_hse06_ddec_charge
 _atom_site_hse06_ddec_spin_density
 _atom_site_hse06_ddec_sum_bond_order
 _atom_site_hse06_magmom
 _atom_site_pbe_bader_spin_density
 _atom_site_pbe_cm5_charge
 _atom_site_pbe_ddec_charge
 _atom_site_pbe_ddec_spin_density
 _atom_site_pbe_ddec_sum_bond_order
 _atom_site_pbe_magmom
Ho  Ho0  1  0.09196319  0.29032945  0.30316457  1  0  2.23613  0  1.645238  0  0  2.086844  0  2.12982  0  0  2.219474  0  1.928854  0  0  1.502251  2.052189  0  2.159703  0
Ho  Ho1  1  0.90801840  0.70968086  0.69682185  1  0  2.236069  0  1.645486  0  0  2.086839  0  2.130061  0  0  2.219437  0  1.929131  0  0  1.50229  2.052172  0  2.159962  0
H  H2  1  0.20728513  0.02195077  0.95748118  1  0  0.316025  0  0.832031  0  0  0.30662  0  0.875087  0  0  0.313571  0  0.870745  0  0  0.344379  0.301468  0  0.878514  0
H  H3  1  0.79273302  0.97802738  0.04251669  1  0  0.316105  0  0.832036  0  0  0.306673  0  0.87513  0  0  0.313627  0  0.870786  0  0  0.344388  0.301516  0  0.878562  0
H  H4  1  0.38868242  0.79584539  0.93268701  1  0  0.106796  0  0.94213  0  0  0.116926  0  1.002465  0  0  0.120543  0  0.998412  0  0  0.13733  0.114266  0  1.005466  0
H  H5  1  0.61135661  0.20412531  0.06732912  1  0  0.106914  0  0.941962  0  0  0.117023  0  1.002312  0  0  0.120642  0  0.998256  0  0  0.137367  0.114366  0  1.005308  0
H  H6  1  0.52833684  0.61069691  0.15198092  1  0  0.134019  0  0.954682  0  0  0.141673  0  1.014729  0  0  0.145921  0  1.01286  0  0  0.119068  0.138741  0  1.016044  0
H  H7  1  0.47169081  0.38928059  0.84805603  1  0  0.13409  0  0.954604  0  0  0.14176  0  1.014616  0  0  0.146004  0  1.012755  0  0  0.119191  0.138829  0  1.015936  0
H  H8  1  0.44805159  0.67441900  0.38928972  1  0  0.118353  0  0.910673  0  0  0.131268  0  0.963006  0  0  0.134511  0  0.959207  0  0  0.123962  0.128725  0  0.965747  0
H  H9  1  0.55193637  0.32558948  0.61073446  1  0  0.118234  0  0.910672  0  0  0.13113  0  0.963027  0  0  0.134374  0  0.959229  0  0  0.123899  0.12859  0  0.965765  0
H  H10  1  0.55020270  0.23399428  0.35839274  1  0  0.453569  0  0.836079  0  0  0.426026  0  0.892102  0  0  0.436691  0  0.876827  0  0  0.310262  0.418774  0  0.902642  0
H  H11  1  0.44978476  0.76602298  0.64160223  1  0  0.453592  0  0.836046  0  0  0.426134  0  0.891924  0  0  0.436799  0  0.876652  0  0  0.310358  0.418887  0  0.902453  0
H  H12  1  0.56488587  0.34768214  0.20578009  1  0  0.446767  0  0.847606  0  0  0.417475  0  0.908423  0  0  0.429492  0  0.890707  0  0  0.306547  0.409453  0  0.920358  0
H  H13  1  0.43510286  0.65232379  0.79421091  1  0  0.446712  0  0.847704  0  0  0.417396  0  0.908562  0  0  0.429416  0  0.890839  0  0  0.306541  0.409372  0  0.920499  0
C  C14  1  0.21313685  0.99370315  0.17294628  1  0  0.552775  0  3.840348  0  0  0.508731  0  4.121411  0  0  0.536941  0  4.128087  0  0  0.231624  0.4896  0  4.118819  0
C  C15  1  0.78686964  0.00629298  0.82705787  1  0  0.55295  0  3.839781  0  0  0.508849  0  4.120947  0  0  0.537063  0  4.127612  0  0  0.231616  0.489715  0  4.118353  0
C  C16  1  0.05931242  0.44087620  0.55858112  1  0  0.551414  0  3.974647  0  0  0.511836  0  4.273359  0  0  0.540323  0  4.274495  0  0  0.205267  0.492207  0  4.278224  0
C  C17  1  0.94066600  0.55914416  0.44139654  1  0  0.551304  0  3.97455  0  0  0.511691  0  4.273317  0  0  0.540195  0  4.27444  0  0  0.205265  0.492013  0  4.278239  0
C  C18  1  0.36534497  0.81475748  0.03890076  1  0  0.175894  0  3.628141  0  0  0.128226  0  3.896864  0  0  0.140872  0  3.909149  0  0  0.063338  0.120173  0  3.888239  0
C  C19  1  0.63468797  0.18522331  0.96111513  1  0  0.175897  0  3.628123  0  0  0.128207  0  3.896869  0  0  0.140853  0  3.909158  0  0  0.0634  0.120156  0  3.888242  0
C  C20  1  0.43978107  0.71532830  0.15956676  1  0  -0.147026  0  3.714008  0  0  -0.16668  0  3.9863  0  0  -0.177721  0  4.004962  0  0  -0.089327  -0.159636  0  3.973789  0
C  C21  1  0.56025023  0.28465596  0.84046060  1  0  -0.147221  0  3.714105  0  0  -0.166892  0  3.986418  0  0  -0.177928  0  4.005075  0  0  -0.089548  -0.15986  0  3.97392  0
C  C22  1  0.39408465  0.75206954  0.29106485  1  0  0.064247  0  3.653633  0  0  0.030149  0  3.908375  0  0  0.043203  0  3.919222  0  0  -0.038058  0.022213  0  3.899921  0
C  C23  1  0.60591381  0.24792998  0.70895153  1  0  0.064502  0  3.653328  0  0  0.030469  0  3.90803  0  0  0.043521  0  3.918872  0  0  -0.037901  0.022532  0  3.899578  0
C  C24  1  0.28320923  0.88699979  0.30033187  1  0  -0.251007  0  3.685489  0  0  -0.230668  0  3.927723  0  0  -0.249712  0  3.947238  0  0  -0.017314  -0.218166  0  3.913841  0
C  C25  1  0.71679538  0.11299975  0.69967663  1  0  -0.251015  0  3.685131  0  0  -0.230773  0  3.927437  0  0  -0.249799  0  3.94696  0  0  -0.01737  -0.218268  0  3.913548  0
C  C26  1  0.23484098  0.92133543  0.44228214  1  0  0.753845  0  3.846351  0  0  0.70279  0  4.135954  0  0  0.740391  0  4.128865  0  0  0.24161  0.677689  0  4.143603  0
C  C27  1  0.76513707  0.07867708  0.55770302  1  0  0.753738  0  3.846186  0  0  0.702799  0  4.135628  0  0  0.74036  0  4.128597  0  0  0.241585  0.677697  0  4.143276  0
C  C28  1  0.88085511  0.48291936  0.01597818  1  0  0.575781  0  3.907074  0  0  0.530154  0  4.201225  0  0  0.560977  0  4.1974  0  0  0.226167  0.509474  0  4.208271  0
C  C29  1  0.11912950  0.51708086  0.98401293  1  0  0.575566  0  3.907003  0  0  0.529926  0  4.201173  0  0  0.56079  0  4.197302  0  0  0.225949  0.509245  0  4.208217  0
N  N30  1  0.25615219  0.94647812  0.04848168  1  0  -0.354411  0  3.370852  0  0  -0.29075  0  3.608421  0  0  -0.309338  0  3.616685  0  0  -0.367275  -0.277879  0  3.602022  0
N  N31  1  0.74386426  0.05350349  0.95152562  1  0  -0.354629  0  3.370967  0  0  -0.290887  0  3.60851  0  0  -0.309489  0  3.616784  0  0  -0.367365  -0.278009  0  3.602107  0
O  O32  1  0.82518353  0.38717398  0.13618825  1  0  -0.662275  0  2.108957  0  0  -0.605992  0  2.352089  0  0  -0.639762  0  2.339143  0  0  -0.344799  -0.588644  0  2.358704  0
O  O33  1  0.17481635  0.61282859  0.86378810  1  0  -0.662187  0  2.108719  0  0  -0.60587  0  2.351819  0  0  -0.639649  0  2.338858  0  0  -0.344697  -0.588516  0  2.358431  0
O  O34  1  0.11475976  0.12220420  0.16230901  1  0  -0.700243  0  2.038267  0  0  -0.660678  0  2.297177  0  0  -0.695853  0  2.285206  0  0  -0.38778  -0.644904  0  2.303383  0
O  O35  1  0.88525470  0.87778736  0.83767711  1  0  -0.700307  0  2.037764  0  0  -0.660728  0  2.296721  0  0  -0.695898  0  2.284743  0  0  -0.387802  -0.644947  0  2.302919  0
O  O36  1  0.14800239  0.32473131  0.52583437  1  0  -0.660106  0  2.040186  0  0  -0.619498  0  2.285293  0  0  -0.65197  0  2.273327  0  0  -0.378679  -0.60385  0  2.291373  0
O  O37  1  0.85198834  0.67528835  0.47417080  1  0  -0.659999  0  2.03996  0  0  -0.619369  0  2.285078  0  0  -0.651837  0  2.2731  0  0  -0.378588  -0.603707  0  2.291179  0
O  O38  1  0.21062613  0.05568111  0.44638638  1  0  -0.680458  0  2.047429  0  0  -0.62901  0  2.295113  0  0  -0.664358  0  2.279826  0  0  -0.373233  -0.611788  0  2.302625  0
O  O39  1  0.78937925  0.94432056  0.55360601  1  0  -0.680457  0  2.047428  0  0  -0.629037  0  2.29502  0  0  -0.664364  0  2.279746  0  0  -0.373267  -0.611816  0  2.302536  0
O  O40  1  0.76056105  0.55178558  0.92178690  1  0  -0.644837  0  2.067635  0  0  -0.599208  0  2.324319  0  0  -0.634057  0  2.31511  0  0  -0.364775  -0.583324  0  2.330467  0
O  O41  1  0.23941805  0.44823264  0.07820260  1  0  -0.644893  0  2.067873  0  0  -0.599231  0  2.324536  0  0  -0.634102  0  2.31532  0  0  -0.364703  -0.583348  0  2.330679  0
O  O42  1  0.22180500  0.80748945  0.55685622  1  0  -0.77166  0  2.043336  0  0  -0.713674  0  2.294521  0  0  -0.751691  0  2.277174  0  0  -0.399282  -0.695142  0  2.303226  0
O  O43  1  0.77816158  0.19252867  0.44314296  1  0  -0.77165  0  2.04335  0  0  -0.713628  0  2.294442  0  0  -0.75164  0  2.277116  0  0  -0.399181  -0.695096  0  2.30315  0
O  O44  1  0.05698917  0.47102342  0.67721469  1  0  -0.678894  0  2.035147  0  0  -0.635778  0  2.278064  0  0  -0.669792  0  2.26737  0  0  -0.387587  -0.619565  0  2.282556  0
O  O45  1  0.94298469  0.52897443  0.32278247  1  0  -0.678824  0  2.035281  0  0  -0.635698  0  2.278208  0  0  -0.669711  0  2.267496  0  0  -0.387649  -0.619477  0  2.282723  0
O  O46  1  0.46022886  0.28620299  0.28082233  1  0  -0.934588  0  1.90204  0  0  -0.886734  0  2.107518  0  0  -0.918614  0  2.067361  0  0  -0.663675  -0.872012  0  2.130138  0
O  O47  1  0.53976263  0.71379160  0.71916145  1  0  -0.934599  0  1.902145  0  0  -0.88683  0  2.107656  0  0  -0.918706  0  2.067497  0  0  -0.663796  -0.872107  0  2.130283  0
