# generated using pymatgen
data_CuH2C12(BrN2)2
_symmetry_space_group_name_H-M   'P 1'
_cell_length_a   3.86434399
_cell_length_b   11.25198350
_cell_length_c   13.51717985
_cell_angle_alpha   90.54022502
_cell_angle_beta   89.93185933
_cell_angle_gamma   99.96514222
_symmetry_Int_Tables_number   1
_chemical_formula_structural   CuH2C12(BrN2)2
_chemical_formula_sum   'Cu2 H4 C24 Br4 N8'
_cell_volume   578.85471318
_cell_formula_units_Z   2
loop_
 _symmetry_equiv_pos_site_id
 _symmetry_equiv_pos_as_xyz
  1  'x, y, z'
loop_
 _atom_site_type_symbol
 _atom_site_label
 _atom_site_symmetry_multiplicity
 _atom_site_fract_x
 _atom_site_fract_y
 _atom_site_fract_z
 _atom_site_occupancy
 _atom_site_pbe_bader_spin_density
 _atom_site_pbe_cm5_charge
 _atom_site_pbe_ddec_charge
 _atom_site_pbe_ddec_spin_density
 _atom_site_pbe_ddec_sum_bond_order
 _atom_site_pbe_magmom
Cu  Cu0  1  0.91866726  0.99994845  0.75002469  1  0  0.750646  0.752902  0  2.605335  0
Cu  Cu1  1  0.08134410  0.00005256  0.24997428  1  0  0.750627  0.752864  0  2.605419  0
H  H2  1  0.18130528  0.38836597  0.85996775  1  0  0.09107  0.108066  0  1.050732  0
H  H3  1  0.79118666  0.61150891  0.63985079  1  0  0.090243  0.107248  0  1.052362  0
H  H4  1  0.81869224  0.61163323  0.14003343  1  0  0.091057  0.108059  0  1.050726  0
H  H5  1  0.20881649  0.38849120  0.36014892  1  0  0.09025  0.107266  0  1.052361  0
C  C6  1  0.66716917  0.83894002  0.92246780  1  0  0.18236  0.287553  0  4.086957  0
C  C7  1  0.82779707  0.16090972  0.57753914  1  0  0.182014  0.289959  0  4.088297  0
C  C8  1  0.33284510  0.16105648  0.07753189  1  0  0.182392  0.287544  0  4.08706  0
C  C9  1  0.17220607  0.83909037  0.42245909  1  0  0.182058  0.290037  0  4.088333  0
C  C10  1  0.65680010  0.76104720  0.00270257  1  0  -0.024849  -0.133092  0  4.127409  0
C  C11  1  0.89401267  0.23869254  0.49721305  1  0  -0.027658  -0.138717  0  4.12945  0
C  C12  1  0.34320168  0.23895019  0.99729638  1  0  -0.024906  -0.133171  0  4.127567  0
C  C13  1  0.10599475  0.76130576  0.50278739  1  0  -0.027645  -0.138747  0  4.129361  0
C  C14  1  0.57618669  0.63034109  0.99806340  1  0  -0.01013  0.061184  0  4.041013  0
C  C15  1  0.94499818  0.36961540  0.50185832  1  0  -0.011046  0.060968  0  4.042794  0
C  C16  1  0.42381600  0.36965811  0.00193704  1  0  -0.010133  0.06119  0  4.040995  0
C  C17  1  0.05500360  0.63038201  0.49814285  1  0  -0.011027  0.060972  0  4.042874  0
C  C18  1  0.40240443  0.56105287  0.91869716  1  0  -0.022159  0.050173  0  3.959226  0
C  C19  1  0.83976908  0.43882282  0.58106925  1  0  -0.023638  0.050844  0  3.957165  0
C  C20  1  0.59758927  0.43894905  0.08130551  1  0  -0.022169  0.050145  0  3.959334  0
C  C21  1  0.16022888  0.56117728  0.41892897  1  0  -0.023667  0.050831  0  3.957239  0
C  C22  1  0.32863366  0.43647617  0.92118027  1  0  -0.104863  -0.17812  0  3.980598  0
C  C23  1  0.89122293  0.56348227  0.57867446  1  0  -0.104522  -0.180165  0  3.985088  0
C  C24  1  0.67136689  0.56352394  0.07882017  1  0  -0.104875  -0.178148  0  3.980632  0
C  C25  1  0.10878235  0.43651693  0.42132524  1  0  -0.104512  -0.180184  0  3.984976  0
C  C26  1  0.74227819  0.82126227  0.09274332  1  0  0.191843  0.305796  0  4.019334  0
C  C27  1  0.91916509  0.17856212  0.40717531  1  0  0.193826  0.309744  0  4.021204  0
C  C28  1  0.25772935  0.17874145  0.90725787  1  0  0.191831  0.305749  0  4.019435  0
C  C29  1  0.08084110  0.82143889  0.59282439  1  0  0.193841  0.309788  0  4.021351  0
Br  Br30  1  0.24743036  0.63632466  0.80618707  1  0  0.079011  -0.015634  0  1.81417  0
Br  Br31  1  0.60926996  0.36342274  0.69377411  1  0  0.075923  -0.019546  0  1.814641  0
Br  Br32  1  0.75252194  0.36367728  0.19382078  1  0  0.079027  -0.015603  0  1.814246  0
Br  Br33  1  0.39069740  0.63657823  0.30622190  1  0  0.075917  -0.019558  0  1.814756  0
N  N34  1  0.68338628  0.91127561  0.85963710  1  0  -0.381763  -0.431379  0  3.341099  0
N  N35  1  0.77260514  0.08874918  0.64056261  1  0  -0.383434  -0.434601  0  3.340934  0
N  N36  1  0.31663453  0.08872358  0.14035890  1  0  -0.38175  -0.431294  0  3.341364  0
N  N37  1  0.22739587  0.91125184  0.35944006  1  0  -0.383476  -0.434644  0  3.341065  0
N  N38  1  0.79758215  0.87665434  0.16695644  1  0  -0.369272  -0.422956  0  3.298335  0
N  N39  1  0.91984591  0.12324422  0.33290233  1  0  -0.373596  -0.430201  0  3.300386  0
N  N40  1  0.20242190  0.12334756  0.83304179  1  0  -0.369227  -0.422889  0  3.29818  0
N  N41  1  0.08016590  0.87675767  0.66709442  1  0  -0.37362  -0.430234  0  3.300445  0
