# generated using pymatgen
data_Na2ZnH18C4(N9O4)2
_symmetry_space_group_name_H-M   'P 1'
_cell_length_a   6.96244272
_cell_length_b   11.87866071
_cell_length_c   13.59805761
_cell_angle_alpha   63.23835138
_cell_angle_beta   80.17871645
_cell_angle_gamma   81.18978434
_symmetry_Int_Tables_number   1
_chemical_formula_structural   Na2ZnH18C4(N9O4)2
_chemical_formula_sum   'Na4 Zn2 H36 C8 N36 O16'
_cell_volume   985.70985304
_cell_formula_units_Z   2
loop_
 _symmetry_equiv_pos_site_id
 _symmetry_equiv_pos_as_xyz
  1  'x, y, z'
loop_
 _atom_site_type_symbol
 _atom_site_label
 _atom_site_symmetry_multiplicity
 _atom_site_fract_x
 _atom_site_fract_y
 _atom_site_fract_z
 _atom_site_occupancy
 _atom_site_hle17_bader_spin_density
 _atom_site_hle17_ddec_charge
 _atom_site_hle17_ddec_spin_density
 _atom_site_hle17_ddec_sum_bond_order
 _atom_site_hle17_magmom
 _atom_site_hse06_10hf_bader_spin_density
 _atom_site_hse06_10hf_ddec_charge
 _atom_site_hse06_10hf_ddec_spin_density
 _atom_site_hse06_10hf_ddec_sum_bond_order
 _atom_site_hse06_10hf_magmom
 _atom_site_hse06_bader_spin_density
 _atom_site_hse06_ddec_charge
 _atom_site_hse06_ddec_spin_density
 _atom_site_hse06_ddec_sum_bond_order
 _atom_site_hse06_magmom
 _atom_site_pbe_bader_spin_density
 _atom_site_pbe_cm5_charge
 _atom_site_pbe_ddec_charge
 _atom_site_pbe_ddec_spin_density
 _atom_site_pbe_ddec_sum_bond_order
 _atom_site_pbe_magmom
Na  Na0  1  0.17997227  0.88801332  0.07553578  1  0  0.885903  0  0.397886  0  0  0.837179  0  0.558209  0  0  0.847043  0  0.536016  0  0  0.671722  0.829956  0  0.573992  0
Na  Na1  1  0.82002879  0.11198768  0.92446379  1  0  0.8859  0  0.397883  0  0  0.837164  0  0.558232  0  0  0.847042  0  0.536009  0  0  0.671727  0.82994  0  0.574015  0
Na  Na2  1  0.36183301  0.62757993  0.01921837  1  0  0.901086  0  0.379256  0  0  0.865854  0  0.524121  0  0  0.874593  0  0.503088  0  0  0.646463  0.859382  0  0.539201  0
Na  Na3  1  0.63816380  0.37242011  0.98078121  1  0  0.901097  0  0.379242  0  0  0.865856  0  0.524121  0  0  0.874595  0  0.503089  0  0  0.646465  0.859388  0  0.539192  0
Zn  Zn4  1  0.24586061  0.71218885  0.57688103  1  0  0.945404  0  1.935187  0  0  0.747517  0  2.408127  0  0  0.789035  0  2.360436  0  0  0.730217  0.718689  0  2.441093  0
Zn  Zn5  1  0.75414071  0.28781025  0.42311926  1  0  0.945348  0  1.935232  0  0  0.747489  0  2.408141  0  0  0.789004  0  2.360451  0  0  0.730229  0.718663  0  2.441108  0
H  H6  1  0.07882496  0.06758407  0.62322927  1  0  0.315713  0  0.894645  0  0  0.282926  0  0.982397  0  0  0.292211  0  0.973651  0  0  0.317194  0.276346  0  0.988546  0
H  H7  1  0.92117490  0.93241503  0.37677115  1  0  0.315726  0  0.894645  0  0  0.282956  0  0.982391  0  0  0.292246  0  0.97364  0  0  0.317197  0.276376  0  0.988539  0
H  H8  1  0.31945058  0.40038883  0.47821286  1  0  0.329165  0  0.913142  0  0  0.308252  0  0.974343  0  0  0.317083  0  0.966969  0  0  0.310047  0.302023  0  0.979543  0
H  H9  1  0.68055366  0.59961027  0.52178716  1  0  0.329146  0  0.913158  0  0  0.308265  0  0.974329  0  0  0.317088  0  0.966961  0  0  0.31007  0.302047  0  0.979525  0
H  H10  1  0.59702792  0.62851381  0.66686183  1  0  0.409531  0  0.884244  0  0  0.381254  0  0.955758  0  0  0.391783  0  0.9416  0  0  0.293668  0.373746  0  0.964241  0
H  H11  1  0.40296903  0.37148529  0.33313885  1  0  0.409558  0  0.884205  0  0  0.381258  0  0.955743  0  0  0.391786  0  0.941591  0  0  0.293663  0.373752  0  0.964224  0
H  H12  1  0.61772636  0.76795910  0.57131333  1  0  0.390922  0  0.927864  0  0  0.346831  0  1.015705  0  0  0.358336  0  0.999579  0  0  0.285966  0.338791  0  1.026945  0
H  H13  1  0.38227192  0.23204094  0.42868685  1  0  0.390914  0  0.927887  0  0  0.346827  0  1.015713  0  0  0.358332  0  0.999587  0  0  0.285956  0.338787  0  1.026953  0
H  H14  1  0.56213094  0.77187049  0.08885182  1  0  0.383533  0  0.939297  0  0  0.34268  0  1.019823  0  0  0.353121  0  1.004602  0  0  0.284655  0.335333  0  1.030513  0
H  H15  1  0.43787170  0.22812956  0.91114798  1  0  0.383499  0  0.939347  0  0  0.342639  0  1.019871  0  0  0.353081  0  1.00465  0  0  0.284648  0.335291  0  1.030565  0
H  H16  1  0.54193481  0.87223309  0.96277291  1  0  0.430447  0  0.867176  0  0  0.405759  0  0.92002  0  0  0.415955  0  0.904908  0  0  0.289067  0.398518  0  0.930759  0
H  H17  1  0.45806480  0.12776790  0.03722825  1  0  0.430434  0  0.867193  0  0  0.405761  0  0.920004  0  0  0.415956  0  0.904894  0  0  0.289082  0.398523  0  0.930739  0
H  H18  1  0.98751764  0.72739737  0.98720529  1  0  0.394743  0  0.920636  0  0  0.361091  0  0.990871  0  0  0.37063  0  0.976698  0  0  0.299784  0.354352  0  1.000861  0
H  H19  1  0.01247930  0.27260173  0.01279465  1  0  0.394751  0  0.920631  0  0  0.361099  0  0.990866  0  0  0.370638  0  0.976692  0  0  0.299788  0.354359  0  1.000856  0
H  H20  1  0.93497835  0.70270934  0.11038209  1  0  0.401679  0  0.904449  0  0  0.367504  0  0.976143  0  0  0.375868  0  0.963898  0  0  0.302283  0.361554  0  0.984857  0
H  H21  1  0.06502138  0.29729071  0.88961796  1  0  0.401701  0  0.904417  0  0  0.367528  0  0.976105  0  0  0.375892  0  0.963861  0  0  0.302306  0.361579  0  0.984818  0
H  H22  1  0.22114318  0.04483953  0.17085435  1  0  0.382034  0  0.944101  0  0  0.340095  0  1.028274  0  0  0.3501  0  1.013878  0  0  0.287753  0.333066  0  1.038387  0
H  H23  1  0.77885484  0.95516240  0.82914585  1  0  0.382035  0  0.944095  0  0  0.340099  0  1.028257  0  0  0.350103  0  1.013862  0  0  0.287765  0.333071  0  1.038369  0
H  H24  1  0.40031483  0.95221154  0.21509909  1  0  0.419426  0  0.851413  0  0  0.384443  0  0.937748  0  0  0.394146  0  0.92324  0  0  0.30574  0.377539  0  0.948069  0
H  H25  1  0.59968318  0.04779039  0.78490037  1  0  0.419411  0  0.85143  0  0  0.384427  0  0.937768  0  0  0.39413  0  0.92326  0  0  0.305719  0.377522  0  0.94809  0
H  H26  1  0.19212936  0.09075200  0.81527632  1  0  0.432992  0  0.830886  0  0  0.404014  0  0.902743  0  0  0.413  0  0.88924  0  0  0.315782  0.397595  0  0.912399  0
H  H27  1  0.80787024  0.90924899  0.18472337  1  0  0.432908  0  0.830946  0  0  0.403925  0  0.902857  0  0  0.412911  0  0.889353  0  0  0.315745  0.397506  0  0.912514  0
H  H28  1  0.10195444  0.96309583  0.84900705  1  0  0.408006  0  0.894419  0  0  0.373709  0  0.964069  0  0  0.383581  0  0.949687  0  0  0.298593  0.366738  0  0.97423  0
H  H29  1  0.89804649  0.03690611  0.15099141  1  0  0.407995  0  0.894433  0  0  0.373692  0  0.964092  0  0  0.383564  0  0.94971  0  0  0.298595  0.36672  0  0.974254  0
H  H30  1  0.72695796  0.52606687  0.10007415  1  0  0.392203  0  0.923109  0  0  0.350477  0  1.007414  0  0  0.36069  0  0.992316  0  0  0.287709  0.343247  0  1.018084  0
H  H31  1  0.27303886  0.47393317  0.89992617  1  0  0.392207  0  0.923107  0  0  0.350479  0  1.007414  0  0  0.360693  0  0.992315  0  0  0.287703  0.343249  0  1.018084  0
H  H32  1  0.76859444  0.61135561  0.97257129  1  0  0.390948  0  0.921818  0  0  0.354831  0  0.997689  0  0  0.364413  0  0.983206  0  0  0.293725  0.348012  0  1.008004  0
H  H33  1  0.23140251  0.38864348  0.02742939  1  0  0.390931  0  0.921831  0  0  0.354814  0  0.99771  0  0  0.364397  0  0.983226  0  0  0.293709  0.347995  0  1.008025  0
H  H34  1  0.16758016  0.43145768  0.21465684  1  0  0.389553  0  0.916268  0  0  0.348683  0  1.003473  0  0  0.358707  0  0.988814  0  0  0.291382  0.341594  0  1.01381  0
H  H35  1  0.83241958  0.56854237  0.78534395  1  0  0.389545  0  0.91627  0  0  0.348677  0  1.00348  0  0  0.358701  0  0.98882  0  0  0.291376  0.341587  0  1.013817  0
H  H36  1  0.23333824  0.52843459  0.25368728  1  0  0.388438  0  0.932535  0  0  0.344109  0  1.017823  0  0  0.355671  0  1.001486  0  0  0.283013  0.336027  0  1.029213  0
H  H37  1  0.76666162  0.47156451  0.74631387  1  0  0.388424  0  0.932545  0  0  0.344098  0  1.017838  0  0  0.35566  0  1.001502  0  0  0.283016  0.336015  0  1.02923  0
H  H38  1  0.49279784  0.79583872  0.76938377  1  0  0.380732  0  0.940905  0  0  0.339779  0  1.022471  0  0  0.350444  0  1.006921  0  0  0.277398  0.332264  0  1.033411  0
H  H39  1  0.50719898  0.20416132  0.23061728  1  0  0.38072  0  0.94092  0  0  0.339768  0  1.022483  0  0  0.350434  0  1.006932  0  0  0.277399  0.332253  0  1.033423  0
H  H40  1  0.51026803  0.64909595  0.81523545  1  0  0.405053  0  0.891402  0  0  0.384571  0  0.945473  0  0  0.392742  0  0.933381  0  0  0.291887  0.378745  0  0.954117  0
H  H41  1  0.48972879  0.35090409  0.18476487  1  0  0.40507  0  0.891373  0  0  0.38459  0  0.945442  0  0  0.392761  0  0.93335  0  0  0.291907  0.378765  0  0.954084  0
C  C42  1  0.23622639  0.99782234  0.51512664  1  0  0.498189  0  3.821888  0  0  0.442885  0  4.111697  0  0  0.462814  0  4.123998  0  0  0.326971  0.429503  0  4.103171  0
C  C43  1  0.76377189  0.00217770  0.48487355  1  0  0.498157  0  3.821919  0  0  0.442837  0  4.111747  0  0  0.462767  0  4.12405  0  0  0.326944  0.429457  0  4.10322  0
C  C44  1  0.06905416  0.87524080  0.69566709  1  0  0.519036  0  3.808079  0  0  0.461651  0  4.096969  0  0  0.482682  0  4.108028  0  0  0.340742  0.44751  0  4.089332  0
C  C45  1  0.93094569  0.12475830  0.30433259  1  0  0.519043  0  3.808044  0  0  0.461639  0  4.096956  0  0  0.482662  0  4.108027  0  0  0.340765  0.447513  0  4.0893  0
C  C46  1  0.28216035  0.43393355  0.61707598  1  0  0.484304  0  3.829088  0  0  0.433823  0  4.12499  0  0  0.452892  0  4.137131  0  0  0.31911  0.42102  0  4.116597  0
C  C47  1  0.71784389  0.56606555  0.38292478  1  0  0.484219  0  3.829089  0  0  0.4338  0  4.124952  0  0  0.452861  0  4.137095  0  0  0.319083  0.421017  0  4.11656  0
C  C48  1  0.20332416  0.58540785  0.43362610  1  0  0.502405  0  3.822554  0  0  0.446892  0  4.112997  0  0  0.467666  0  4.124676  0  0  0.325317  0.432995  0  4.104836  0
C  C49  1  0.79668007  0.41459125  0.56637319  1  0  0.502274  0  3.822574  0  0  0.446874  0  4.112914  0  0  0.467639  0  4.12459  0  0  0.32529  0.432997  0  4.104756  0
N  N50  1  0.28203125  0.90498312  0.48168896  1  0  -0.398367  0  3.163013  0  0  -0.330947  0  3.467529  0  0  -0.350251  0  3.478467  0  0  -0.252417  -0.317982  0  3.460042  0
N  N51  1  0.71796703  0.09501693  0.51831196  1  0  -0.398325  0  3.163069  0  0  -0.330917  0  3.467609  0  0  -0.350223  0  3.478549  0  0  -0.252409  -0.317952  0  3.460123  0
N  N52  1  0.38254658  0.95871912  0.37924583  1  0  -0.080903  0  2.981299  0  0  -0.080644  0  3.279504  0  0  -0.07863  0  3.289373  0  0  -0.097286  -0.08166  0  3.272727  0
N  N53  1  0.61745169  0.04128092  0.62075436  1  0  -0.080914  0  2.981421  0  0  -0.08065  0  3.279637  0  0  -0.078636  0  3.289508  0  0  -0.0973  -0.081667  0  3.272862  0
N  N54  1  0.39443518  0.07751224  0.35339387  1  0  -0.088686  0  3.080278  0  0  -0.061173  0  3.367022  0  0  -0.062483  0  3.378596  0  0  -0.089562  -0.059993  0  3.359125  0
N  N55  1  0.60556589  0.92248875  0.64660643  1  0  -0.088712  0  3.080396  0  0  -0.061209  0  3.367133  0  0  -0.06252  0  3.378709  0  0  -0.089557  -0.060029  0  3.359236  0
N  N56  1  0.30445580  0.10612721  0.43689258  1  0  -0.373939  0  3.018539  0  0  -0.329892  0  3.289123  0  0  -0.34578  0  3.301508  0  0  -0.232621  -0.319253  0  3.280785  0
N  N57  1  0.69554249  0.89387284  0.56310834  1  0  -0.37392  0  3.018585  0  0  -0.329836  0  3.289134  0  0  -0.345722  0  3.30152  0  0  -0.232603  -0.319195  0  3.280793  0
N  N58  1  0.13310284  0.98631940  0.61414112  1  0  -0.479926  0  3.333112  0  0  -0.421412  0  3.585562  0  0  -0.442461  0  3.58998  0  0  -0.385094  -0.406791  0  3.582228  0
N  N59  1  0.86689556  0.01367970  0.38585943  1  0  -0.479965  0  3.333176  0  0  -0.421451  0  3.585588  0  0  -0.442501  0  3.590011  0  0  -0.385092  -0.406835  0  3.58225  0
N  N60  1  0.98249050  0.86346727  0.79559576  1  0  -0.405516  0  3.03264  0  0  -0.348444  0  3.28384  0  0  -0.365687  0  3.295691  0  0  -0.222704  -0.336865  0  3.275935  0
N  N61  1  0.01750777  0.13653277  0.20440369  1  0  -0.405519  0  3.032643  0  0  -0.348434  0  3.283844  0  0  -0.365675  0  3.295698  0  0  -0.222721  -0.336858  0  3.275932  0
N  N62  1  0.93695871  0.74143450  0.85051544  1  0  -0.101753  0  3.092003  0  0  -0.067125  0  3.357476  0  0  -0.069413  0  3.368895  0  0  -0.078928  -0.065283  0  3.349765  0
N  N63  1  0.06303970  0.25856460  0.14948511  1  0  -0.10181  0  3.092075  0  0  -0.067185  0  3.357544  0  0  -0.069474  0  3.368962  0  0  -0.07895  -0.065343  0  3.349833  0
N  N64  1  0.99449741  0.68257982  0.78828470  1  0  -0.054811  0  3.028868  0  0  -0.038769  0  3.310567  0  0  -0.038  0  3.321217  0  0  -0.07326  -0.038956  0  3.303354  0
N  N65  1  0.00550245  0.31741927  0.21171571  1  0  -0.054854  0  3.028811  0  0  -0.038809  0  3.310513  0  0  -0.03804  0  3.321163  0  0  -0.073269  -0.038997  0  3.303303  0
N  N66  1  0.07903531  0.76432744  0.68941769  1  0  -0.385627  0  3.181564  0  0  -0.325591  0  3.502373  0  0  -0.343752  0  3.50908  0  0  -0.251148  -0.313469  0  3.49783  0
N  N67  1  0.92096309  0.23567166  0.31058286  1  0  -0.385495  0  3.181411  0  0  -0.325466  0  3.502237  0  0  -0.34362  0  3.508938  0  0  -0.25113  -0.313349  0  3.49769  0
N  N68  1  0.25609304  0.51537797  0.66363946  1  0  -0.382446  0  3.164055  0  0  -0.320752  0  3.465103  0  0  -0.338725  0  3.475965  0  0  -0.251862  -0.308637  0  3.457687  0
N  N69  1  0.74390828  0.48462113  0.33636156  1  0  -0.38242  0  3.163938  0  0  -0.32076  0  3.464987  0  0  -0.338734  0  3.475852  0  0  -0.251841  -0.308642  0  3.457569  0
N  N70  1  0.28295195  0.44371648  0.77100444  1  0  -0.103416  0  3.040777  0  0  -0.07829  0  3.306998  0  0  -0.079877  0  3.320048  0  0  -0.093623  -0.076902  0  3.298088  0
N  N71  1  0.71704791  0.55628262  0.22899598  1  0  -0.103423  0  3.040623  0  0  -0.078285  0  3.306844  0  0  -0.079873  0  3.319893  0  0  -0.093642  -0.076898  0  3.297938  0
N  N72  1  0.32269188  0.32500821  0.78681121  1  0  -0.127616  0  3.139259  0  0  -0.080173  0  3.408527  0  0  -0.082971  0  3.420152  0  0  -0.092059  -0.077888  0  3.40054  0
N  N73  1  0.67731235  0.67499089  0.21318882  1  0  -0.127645  0  3.139258  0  0  -0.080205  0  3.408543  0  0  -0.083003  0  3.420169  0  0  -0.092076  -0.07792  0  3.400555  0
N  N74  1  0.32411176  0.31431339  0.69208829  1  0  -0.357001  0  2.868857  0  0  -0.349997  0  3.157367  0  0  -0.360984  0  3.166995  0  0  -0.240467  -0.342658  0  3.15087  0
N  N75  1  0.67589247  0.68568572  0.30791173  1  0  -0.356959  0  2.868896  0  0  -0.349951  0  3.157369  0  0  -0.360941  0  3.167001  0  0  -0.240434  -0.34261  0  3.150865  0
N  N76  1  0.26707295  0.46740122  0.50803486  1  0  -0.492154  0  3.325142  0  0  -0.431605  0  3.571332  0  0  -0.453282  0  3.577099  0  0  -0.395386  -0.41661  0  3.566927  0
N  N77  1  0.73293274  0.53259789  0.49196503  1  0  -0.492028  0  3.325075  0  0  -0.431597  0  3.571298  0  0  -0.45322  0  3.576994  0  0  -0.395391  -0.41666  0  3.566937  0
N  N78  1  0.18156907  0.61495133  0.32796086  1  0  -0.364931  0  2.991124  0  0  -0.317675  0  3.265103  0  0  -0.334282  0  3.277383  0  0  -0.223634  -0.306568  0  3.256792  0
N  N79  1  0.81843516  0.38504777  0.67203842  1  0  -0.364931  0  2.991283  0  0  -0.317697  0  3.265236  0  0  -0.334308  0  3.277523  0  0  -0.223659  -0.306587  0  3.256915  0
N  N80  1  0.11224142  0.73838154  0.28410682  1  0  -0.133958  0  3.071216  0  0  -0.122853  0  3.378214  0  0  -0.121656  0  3.388905  0  0  -0.13997  -0.123293  0  3.370884  0
N  N81  1  0.88776280  0.26161756  0.71589247  1  0  -0.133964  0  3.071337  0  0  -0.122858  0  3.378337  0  0  -0.121661  0  3.389029  0  0  -0.139956  -0.123296  0  3.371004  0
N  N82  1  0.09211975  0.78196794  0.35825627  1  0  -0.092413  0  3.033352  0  0  -0.078245  0  3.330514  0  0  -0.07821  0  3.341027  0  0  -0.097053  -0.077983  0  3.323321  0
N  N83  1  0.90788302  0.21803116  0.64174315  1  0  -0.092458  0  3.033323  0  0  -0.078281  0  3.330482  0  0  -0.078248  0  3.340997  0  0  -0.09708  -0.07802  0  3.323293  0
N  N84  1  0.15070277  0.68745900  0.45441937  1  0  -0.407275  0  3.161248  0  0  -0.342099  0  3.47373  0  0  -0.360682  0  3.481039  0  0  -0.264307  -0.329681  0  3.468782  0
N  N85  1  0.84930000  0.31254010  0.54558078  1  0  -0.40716  0  3.161224  0  0  -0.342032  0  3.473681  0  0  -0.360615  0  3.480991  0  0  -0.264264  -0.329615  0  3.468732  0
O  O86  1  0.55678218  0.68589689  0.59155985  1  0  -0.801681  0  1.989966  0  0  -0.73051  0  2.215604  0  0  -0.752181  0  2.182661  0  0  -0.561837  -0.715217  0  2.237065  0
O  O87  1  0.44321609  0.31410315  0.40844034  1  0  -0.801714  0  1.989949  0  0  -0.730518  0  2.215616  0  0  -0.752186  0  2.18268  0  0  -0.561827  -0.715223  0  2.237076  0
O  O88  1  0.47916638  0.80181975  0.02768671  1  0  -0.932029  0  1.814605  0  0  -0.884567  0  1.997254  0  0  -0.900548  0  1.963349  0  0  -0.72342  -0.873212  0  2.020981  0
O  O89  1  0.52083481  0.19818030  0.97231321  1  0  -0.932003  0  1.814637  0  0  -0.884528  0  1.997325  0  0  -0.900511  0  1.96342  0  0  -0.723442  -0.873176  0  2.021049  0
O  O90  1  0.03917529  0.73156954  0.04850996  1  0  -0.878595  0  1.822056  0  0  -0.832718  0  1.997711  0  0  -0.84756  0  1.967796  0  0  -0.670931  -0.822129  0  2.018707  0
O  O91  1  0.96082298  0.26843051  0.95148949  1  0  -0.878625  0  1.822048  0  0  -0.832745  0  1.997703  0  0  -0.847589  0  1.967785  0  0  -0.670966  -0.822158  0  2.018699  0
O  O92  1  0.33854699  0.00016202  0.14654424  1  0  -0.849949  0  1.858546  0  0  -0.794118  0  2.038894  0  0  -0.812021  0  2.008196  0  0  -0.616497  -0.781481  0  2.060414  0
O  O93  1  0.66145249  0.99983992  0.85345582  1  0  -0.849941  0  1.858559  0  0  -0.794094  0  2.03892  0  0  -0.811998  0  2.008222  0  0  -0.616497  -0.781454  0  2.060439  0
O  O94  1  0.13803165  0.01785318  0.87893196  1  0  -0.877402  0  1.775472  0  0  -0.827079  0  1.947194  0  0  -0.842573  0  1.916043  0  0  -0.660599  -0.816171  0  1.969103  0
O  O95  1  0.86197111  0.98214592  0.12106746  1  0  -0.877306  0  1.775523  0  0  -0.826971  0  1.947289  0  0  -0.842465  0  1.916139  0  0  -0.660572  -0.816063  0  1.969197  0
O  O96  1  0.70208096  0.53676724  0.02664930  1  0  -0.891151  0  1.857693  0  0  -0.848761  0  2.046527  0  0  -0.863445  0  2.014496  0  0  -0.683563  -0.838355  0  2.069114  0
O  O97  1  0.29791573  0.46323375  0.97335066  1  0  -0.891127  0  1.857694  0  0  -0.848738  0  2.046542  0  0  -0.863424  0  2.01451  0  0  -0.683548  -0.838333  0  2.069128  0
O  O98  1  0.28248347  0.47048159  0.21631339  1  0  -0.865256  0  1.918269  0  0  -0.801544  0  2.10802  0  0  -0.821182  0  2.075769  0  0  -0.608586  -0.787564  0  2.130312  0
O  O99  1  0.71751639  0.52951751  0.78368703  1  0  -0.865224  0  1.918294  0  0  -0.801528  0  2.108041  0  0  -0.821167  0  2.075788  0  0  -0.608589  -0.787549  0  2.130335  0
O  O100  1  0.43265539  0.71885626  0.82695759  1  0  -0.854607  0  1.80482  0  0  -0.811818  0  1.978128  0  0  -0.828576  0  1.951076  0  0  -0.669343  -0.799938  0  1.997137  0
O  O101  1  0.56733996  0.28114378  0.17304212  1  0  -0.854611  0  1.804813  0  0  -0.811822  0  1.978124  0  0  -0.82858  0  1.951068  0  0  -0.669365  -0.799943  0  1.997131  0
