# generated using pymatgen
data_MnH18C14N2(O2F)4
_symmetry_space_group_name_H-M   'P 1'
_cell_length_a   5.16577809
_cell_length_b   10.36734082
_cell_length_c   16.96673095
_cell_angle_alpha   90.00017006
_cell_angle_beta   91.52561096
_cell_angle_gamma   89.99937848
_symmetry_Int_Tables_number   1
_chemical_formula_structural   MnH18C14N2(O2F)4
_chemical_formula_sum   'Mn2 H36 C28 N4 O16 F8'
_cell_volume   908.33766165
_cell_formula_units_Z   2
loop_
 _symmetry_equiv_pos_site_id
 _symmetry_equiv_pos_as_xyz
  1  'x, y, z'
loop_
 _atom_site_type_symbol
 _atom_site_label
 _atom_site_symmetry_multiplicity
 _atom_site_fract_x
 _atom_site_fract_y
 _atom_site_fract_z
 _atom_site_occupancy
 _atom_site_pbe_cm5_charge
 _atom_site_pbe_ddec_charge
 _atom_site_pbe_ddec_spin_density
 _atom_site_pbe_ddec_sum_bond_order
 _atom_site_pbe_magmom
Mn  Mn0  1  0.99999190  0.99999695  0.99999732  1  0.58144  1.047543  4.702637  2.201529  4.513
Mn  Mn1  1  0.49999129  0.50000085  0.50000054  1  0.58148  1.047467  4.702644  2.201681  4.513
H  H2  1  0.08438344  0.77821506  0.12028314  1  0.120972  0.042846  0.000354  1.049686  0.0
H  H3  1  0.41563079  0.27821101  0.37971768  1  0.120968  0.04277  0.000354  1.049622  0.0
H  H4  1  0.91560710  0.22180303  0.87971511  1  0.12106  0.042885  0.000353  1.049543  0.0
H  H5  1  0.58437111  0.72178586  0.62028428  1  0.120969  0.042787  0.000354  1.049645  0.0
H  H6  1  0.23891307  0.70969127  0.30209206  1  0.101801  0.123467  0.000284  1.008494  0.0
H  H7  1  0.26111038  0.20969099  0.19790935  1  0.101841  0.122992  0.000284  1.009225  0.0
H  H8  1  0.76106379  0.29032200  0.69790777  1  0.10181  0.122917  0.000284  1.009293  0.0
H  H9  1  0.73889755  0.79030974  0.80208975  1  0.101841  0.122985  0.000284  1.009155  0.0
H  H10  1  0.48009534  0.62480374  0.25033714  1  0.103563  0.127526  6.9e-05  1.000729  0.0
H  H11  1  0.01992433  0.12480403  0.24966170  1  0.103545  0.127835  6.9e-05  1.000001  0.0
H  H12  1  0.51987764  0.37520181  0.74966263  1  0.10357  0.12752  6.9e-05  1.000438  0.0
H  H13  1  0.98008750  0.87519284  0.75033687  1  0.103537  0.1275  6.9e-05  1.000698  0.0
H  H14  1  0.15899863  0.63472796  0.20928099  1  0.102735  0.114712  7.2e-05  1.035876  0.0
H  H15  1  0.34101675  0.13472868  0.29072075  1  0.102747  0.115032  7.2e-05  1.035048  0.0
H  H16  1  0.84097444  0.36528435  0.79071760  1  0.10277  0.114738  7.2e-05  1.035839  0.0
H  H17  1  0.65899513  0.86527012  0.70927722  1  0.102748  0.114749  7.2e-05  1.035734  0.0
H  H18  1  0.60000448  0.97392756  0.21006373  1  0.107448  0.127337  8.5e-05  1.03003  0.0
H  H19  1  0.90000706  0.47392990  0.28994035  1  0.107455  0.127306  8.5e-05  1.030108  0.0
H  H20  1  0.40001674  0.02607027  0.78993910  1  0.107459  0.127274  8.5e-05  1.030101  0.0
H  H21  1  0.09999876  0.52606601  0.71006108  1  0.107432  0.127266  8.5e-05  1.030121  0.0
H  H22  1  0.77643014  0.82792247  0.22320642  1  0.100557  0.116183  6.6e-05  1.006162  0.0
H  H23  1  0.72358067  0.32792761  0.27679855  1  0.100551  0.115916  6.6e-05  1.006799  0.0
H  H24  1  0.22356992  0.17206668  0.77679434  1  0.100554  0.115942  6.6e-05  1.006766  0.0
H  H25  1  0.27642309  0.67206926  0.72320462  1  0.100549  0.115895  6.6e-05  1.006772  0.0
H  H26  1  0.57480697  0.88254666  0.29999585  1  0.100402  0.124308  0.000119  1.047569  0.0
H  H27  1  0.92519505  0.38254938  0.20000673  1  0.100406  0.123798  0.000119  1.048919  0.0
H  H28  1  0.42519494  0.11744925  0.70000611  1  0.100377  0.123758  0.000119  1.048935  0.0
H  H29  1  0.07480302  0.61744749  0.79999459  1  0.10037  0.123755  0.000119  1.048908  0.0
H  H30  1  0.77216057  0.17030703  0.08607152  1  0.291173  0.379947  0.001281  0.959796  0.001
H  H31  1  0.72784223  0.67030214  0.41393126  1  0.291225  0.38007  0.001281  0.959613  0.001
H  H32  1  0.22784364  0.82969273  0.91392517  1  0.291176  0.379939  0.001281  0.959786  0.001
H  H33  1  0.27216339  0.32969570  0.58607311  1  0.291213  0.380012  0.001281  0.959708  0.001
H  H34  1  0.56822569  0.04733005  0.08929723  1  0.301687  0.392119  0.000775  0.939345  0.002
H  H35  1  0.93177975  0.54732406  0.41070653  1  0.301695  0.392122  0.000775  0.939334  0.002
H  H36  1  0.43178203  0.95266779  0.91070482  1  0.301678  0.392069  0.000775  0.939385  0.002
H  H37  1  0.06821821  0.45267088  0.58929655  1  0.301691  0.392085  0.000775  0.939375  0.002
C  C38  1  0.86772444  0.71131657  0.97161517  1  0.217965  0.614476  0.008179  4.209363  0.007
C  C39  1  0.63228901  0.21132577  0.52838236  1  0.217956  0.614346  0.008176  4.209672  0.007
C  C40  1  0.13227985  0.28867259  0.02838034  1  0.217985  0.614427  0.008175  4.209595  0.007
C  C41  1  0.36771887  0.78867399  0.47161733  1  0.217949  0.61462  0.008176  4.208727  0.007
C  C42  1  0.68226577  0.60087508  0.98623029  1  -0.02685  -0.210461  0.003478  4.019701  0.002
C  C43  1  0.81774416  0.10088130  0.51376934  1  -0.026809  -0.210345  0.003477  4.01997  0.002
C  C44  1  0.31773820  0.39911697  0.01376993  1  -0.02683  -0.210432  0.003479  4.019729  0.002
C  C45  1  0.18226582  0.89912232  0.48622802  1  -0.026772  -0.209684  0.003477  4.017751  0.002
C  C46  1  0.62841226  0.55879077  0.06201214  1  0.090913  0.160576  0.001461  4.076086  0.001
C  C47  1  0.87158921  0.05879303  0.43798922  1  0.090896  0.161224  0.00146  4.074276  0.001
C  C48  1  0.37158198  0.44120514  0.93798852  1  0.090836  0.160476  0.001461  4.076246  0.001
C  C49  1  0.12842069  0.94120770  0.56200932  1  0.090913  0.160691  0.00146  4.07625  0.001
C  C50  1  0.45067797  0.46110856  0.07546882  1  0.092564  0.161788  0.002155  4.074487  0.002
C  C51  1  0.04931484  0.96111334  0.42453144  1  0.092451  0.164058  0.002153  4.072699  0.002
C  C52  1  0.54932385  0.53888349  0.92453431  1  0.092518  0.161855  0.002156  4.074348  0.002
C  C53  1  0.95068929  0.03888835  0.57546642  1  0.092474  0.161692  0.002155  4.074658  0.002
C  C54  1  0.24381070  0.84328923  0.13816333  1  0.181841  0.300989  0.003706  4.068317  0.003
C  C55  1  0.25619991  0.34329365  0.36184110  1  0.181824  0.301061  0.003705  4.068107  0.003
C  C56  1  0.75618775  0.15672790  0.86183269  1  0.181641  0.300746  0.003708  4.068035  0.003
C  C57  1  0.74380204  0.65670225  0.63816027  1  0.181824  0.300992  0.003704  4.068239  0.003
C  C58  1  0.30890960  0.68674002  0.24323669  1  -0.1374  -0.29206  0.000858  3.90247  0.001
C  C59  1  0.19110859  0.18673944  0.25676401  1  -0.137415  -0.292052  0.000858  3.902313  0.001
C  C60  1  0.69107126  0.31326843  0.75676143  1  -0.137433  -0.292333  0.000859  3.903059  0.001
C  C61  1  0.80890127  0.81325936  0.74323511  1  -0.137407  -0.292345  0.000859  3.903206  0.001
C  C62  1  0.59430287  0.87756156  0.23593837  1  -0.141417  -0.281556  0.000431  3.871604  0.0
C  C63  1  0.90570499  0.37756567  0.26406547  1  -0.141423  -0.282183  0.000431  3.873322  0.0
C  C64  1  0.40569912  0.12243820  0.76406241  1  -0.141362  -0.282105  0.000432  3.873174  0.0
C  C65  1  0.09429893  0.62243217  0.73593534  1  -0.141385  -0.282096  0.000431  3.873246  0.0
N  N66  1  0.37706047  0.80518766  0.20223770  1  -0.277002  0.044009  0.003072  3.724777  0.003
N  N67  1  0.12294950  0.30518475  0.29776016  1  -0.277049  0.043628  0.003074  3.725089  0.003
N  N68  1  0.62293200  0.19481886  0.79776059  1  -0.276843  0.044038  0.003074  3.725185  0.003
N  N69  1  0.87705637  0.69481212  0.70224067  1  -0.277025  0.043682  0.003073  3.7251  0.003
O  O70  1  0.81092492  0.81675311  0.00597748  1  -0.313485  -0.563118  0.038048  2.266617  0.021
O  O71  1  0.68907893  0.31675469  0.49401970  1  -0.313483  -0.563045  0.038047  2.266824  0.021
O  O72  1  0.18907567  0.18324665  0.99401562  1  -0.313518  -0.563096  0.03804  2.266713  0.021
O  O73  1  0.31092120  0.68324893  0.50597988  1  -0.313504  -0.563044  0.038047  2.266765  0.021
O  O74  1  0.05587056  0.69035759  0.92786841  1  -0.300805  -0.542683  0.004462  2.206837  0.005
O  O75  1  0.44412604  0.19036633  0.57212886  1  -0.300798  -0.542642  0.004461  2.206835  0.005
O  O76  1  0.94412406  0.30963349  0.07212696  1  -0.300785  -0.542639  0.00446  2.206898  0.005
O  O77  1  0.55588749  0.80963344  0.42787327  1  -0.300748  -0.542162  0.004461  2.205636  0.005
O  O78  1  0.28404957  0.94477600  0.09917049  1  -0.28388  -0.469486  0.036168  2.361067  0.024
O  O79  1  0.21596111  0.44476925  0.40082883  1  -0.28385  -0.469395  0.036171  2.361452  0.024
O  O80  1  0.71596218  0.05523245  0.90082926  1  -0.283933  -0.469593  0.036176  2.360823  0.024
O  O81  1  0.78403499  0.55522762  0.59917305  1  -0.283853  -0.469378  0.036168  2.361484  0.024
O  O82  1  0.75130694  0.07468856  0.09067000  1  -0.573799  -0.776941  0.043067  2.137413  0.026
O  O83  1  0.74869221  0.57468450  0.40933195  1  -0.573839  -0.777008  0.04307  2.137204  0.026
O  O84  1  0.24869901  0.92531217  0.90932966  1  -0.573785  -0.776871  0.043068  2.137509  0.026
O  O85  1  0.25130579  0.42531430  0.59067054  1  -0.573798  -0.776945  0.043069  2.137401  0.026
F  F86  1  0.76050369  0.60995027  0.12517601  1  -0.076951  -0.113753  0.000167  1.434873  0.0
F  F87  1  0.73947700  0.10995195  0.37482928  1  -0.076947  -0.113388  0.000167  1.434139  0.0
F  F88  1  0.23947655  0.39005528  0.87483094  1  -0.076937  -0.11369  0.000167  1.435035  0.0
F  F89  1  0.26052527  0.89004877  0.62516738  1  -0.076945  -0.113748  0.000167  1.434908  0.0
F  F90  1  0.41730651  0.42151237  0.15092644  1  -0.072744  -0.10152  0.000322  1.427241  0.0
F  F91  1  0.08268145  0.92151275  0.34907250  1  -0.072707  -0.109796  0.000326  1.436752  0.0
F  F92  1  0.58270306  0.57847774  0.84907681  1  -0.072764  -0.101575  0.000322  1.427076  0.0
F  F93  1  0.91731292  0.07848316  0.65092640  1  -0.072765  -0.101578  0.000322  1.42699  0.0
