# generated using pymatgen
data_CuH8C6NO4
_symmetry_space_group_name_H-M   'P 1'
_cell_length_a   8.13409086
_cell_length_b   9.24562498
_cell_length_c   10.87494921
_cell_angle_alpha   93.08049793
_cell_angle_beta   98.26608757
_cell_angle_gamma   102.39011665
_symmetry_Int_Tables_number   1
_chemical_formula_structural   CuH8C6NO4
_chemical_formula_sum   'Cu4 H32 C24 N4 O16'
_cell_volume   787.46805533
_cell_formula_units_Z   4
loop_
 _symmetry_equiv_pos_site_id
 _symmetry_equiv_pos_as_xyz
  1  'x, y, z'
loop_
 _atom_site_type_symbol
 _atom_site_label
 _atom_site_symmetry_multiplicity
 _atom_site_fract_x
 _atom_site_fract_y
 _atom_site_fract_z
 _atom_site_occupancy
 _atom_site_hle17_ddec_charge
 _atom_site_hle17_ddec_spin_density
 _atom_site_hle17_ddec_sum_bond_order
 _atom_site_hle17_magmom
 _atom_site_hse06_10hf_ddec_charge
 _atom_site_hse06_10hf_ddec_spin_density
 _atom_site_hse06_10hf_ddec_sum_bond_order
 _atom_site_hse06_10hf_magmom
 _atom_site_hse06_ddec_charge
 _atom_site_hse06_ddec_spin_density
 _atom_site_hse06_ddec_sum_bond_order
 _atom_site_hse06_magmom
 _atom_site_pbe_cm5_charge
 _atom_site_pbe_ddec_charge
 _atom_site_pbe_ddec_spin_density
 _atom_site_pbe_ddec_sum_bond_order
 _atom_site_pbe_magmom
Cu  Cu0  1  0.42720304  0.87458554  0.53410340  1  0.823  0.665389  1.91557  0.478  0.808577  0.79427  2.328575  0.627  0.913459  0.885317  2.243423  0.729  0.671524  0.742481  0.693719  2.387973  0.536
Cu  Cu1  1  0.57279223  0.12542495  0.46589147  1  0.822979  -0.665328  1.915712  -0.478  0.808521  -0.794258  2.328679  -0.627  0.913461  -0.885309  2.243542  -0.729  0.671556  0.742496  -0.693649  2.388095  -0.536
Cu  Cu2  1  0.04455247  0.49261290  0.89098655  1  0.825625  -0.664954  1.915536  -0.477  0.810402  -0.793754  2.329275  -0.626  0.915446  -0.883763  2.242892  -0.726  0.671064  0.744823  -0.694519  2.388961  -0.536
Cu  Cu3  1  0.95548457  0.50738719  0.10897087  1  0.825869  0.664938  1.915127  0.477  0.810677  0.793756  2.328817  0.626  0.91583  0.883762  2.242224  0.726  0.671042  0.745143  0.694492  2.388444  0.536
H  H4  1  0.24225114  0.73029661  0.74450871  1  0.083707  -6.4e-05  0.935007  0.0  0.092076  -6.9e-05  0.998142  0.0  0.096137  -4e-05  0.993537  0.0  0.133872  0.088981  -9.4e-05  1.001567  0.0
H  H5  1  0.75774735  0.26973067  0.25550191  1  0.08381  6.6e-05  0.934839  0.0  0.09209  6.9e-05  0.998065  0.0  0.096151  4e-05  0.993455  0.0  0.13386  0.088996  9.4e-05  1.001502  0.0
H  H6  1  0.32294906  0.55381793  0.40516405  1  0.100347  4e-05  0.930927  0.0  0.10989  2.9e-05  0.991209  0.0  0.114445  -2.1e-05  0.986414  0.0  0.125086  0.10643  7.4e-05  0.994844  0.0
H  H7  1  0.67700091  0.44619496  0.59483447  1  0.100153  -4e-05  0.930953  0.0  0.109684  -2.9e-05  0.991259  0.0  0.114231  2.1e-05  0.98647  0.0  0.125001  0.106233  -7.4e-05  0.994894  0.0
H  H8  1  0.02636553  0.28284238  0.64371819  1  0.095842  -0.000114  0.944145  0.0  0.105324  -9.5e-05  1.005991  0.0  0.109345  -3.1e-05  1.002015  0.0  0.12369  0.102268  -0.000143  1.009081  0.0
H  H9  1  0.97363949  0.71717613  0.35631481  1  0.095856  0.000109  0.944075  0.0  0.105358  9.5e-05  1.005936  0.0  0.109381  3.1e-05  1.001952  0.0  0.123679  0.102302  0.000143  1.009019  0.0
H  H10  1  0.15637088  0.30166135  0.44440232  1  0.124  -5e-06  0.963583  0.0  0.137691  -1.9e-05  1.01745  0.0  0.141843  -1e-06  1.016432  0.0  0.116703  0.13486  -3.3e-05  1.018262  0.0
H  H11  1  0.84360471  0.69834937  0.55561626  1  0.12406  4e-06  0.963473  0.0  0.137712  1.9e-05  1.017376  0.0  0.14186  1e-06  1.016362  0.0  0.116689  0.13488  3.3e-05  1.018176  0.0
H  H12  1  0.98596249  0.94297175  0.24868924  1  0.144913  -0.000637  0.943871  -0.001  0.163855  -0.000405  1.003616  -0.001  0.166327  -0.000282  1.003099  0.0  0.101074  0.161957  -0.000458  1.004055  -0.001
H  H13  1  0.01402679  0.05701097  0.75130660  1  0.14488  0.000636  0.943819  0.001  0.163843  0.000405  1.003508  0.001  0.166328  0.000282  1.00298  0.0  0.101088  0.161935  0.000457  1.003949  0.001
H  H14  1  0.05608045  0.14147066  0.25767284  1  0.144333  0.001238  0.934729  0.002  0.161558  0.00086  0.993352  0.001  0.163907  0.000583  0.992633  0.001  0.097958  0.159631  0.001002  0.994007  0.001
H  H15  1  0.94389439  0.85851873  0.74231718  1  0.144289  -0.00124  0.934809  -0.002  0.161455  -0.000861  0.993497  -0.001  0.163805  -0.000583  0.992778  -0.001  0.09791  0.15953  -0.001004  0.994141  -0.001
H  H16  1  0.95092634  0.05295602  0.37687386  1  0.155775  -0.000541  0.944451  -0.001  0.170742  -0.000365  1.007389  0.0  0.173036  -0.000222  1.007517  0.0  0.101589  0.169055  -0.000443  1.007181  -0.001
H  H17  1  0.04905576  0.94702781  0.62311945  1  0.155808  0.000539  0.944371  0.001  0.170735  0.000365  1.007344  0.0  0.173037  0.000222  1.007465  0.0  0.101601  0.169035  0.000442  1.007147  0.001
H  H18  1  0.31851558  0.27851669  0.78820645  1  0.146561  0.000556  0.952437  0.001  0.161572  0.000375  1.01649  0.0  0.163064  0.000264  1.016917  0.0  0.101984  0.160393  0.000428  1.016227  0.0
H  H19  1  0.68147405  0.72145730  0.21181389  1  0.14642  -0.000554  0.952545  -0.001  0.161439  -0.000375  1.016605  0.0  0.162926  -0.000264  1.017041  0.0  0.101938  0.160262  -0.000429  1.016338  0.0
H  H20  1  0.52807674  0.28569212  0.86099209  1  0.148939  0.000765  0.933814  0.001  0.171524  0.000502  0.983644  0.001  0.173241  0.000334  0.983853  0.0  0.104614  0.170129  0.000583  0.983624  0.001
H  H21  1  0.47192590  0.71429398  0.13901541  1  0.148906  -0.000763  0.933896  -0.001  0.171475  -0.000502  0.983768  -0.001  0.173189  -0.000334  0.983979  0.0  0.10456  0.170106  -0.000583  0.98371  -0.001
H  H22  1  0.35867704  0.13239354  0.87944992  1  0.12626  -0.001257  0.970573  -0.002  0.144424  -0.000846  1.032125  -0.001  0.146271  -0.000582  1.031735  -0.001  0.094512  0.142831  -0.000956  1.032555  -0.001
H  H23  1  0.64133882  0.86758138  0.12055666  1  0.12628  0.001259  0.970602  0.002  0.144477  0.000846  1.032096  0.001  0.146325  0.000581  1.031701  0.001  0.094549  0.142869  0.000955  1.032548  0.001
H  H24  1  0.58691120  0.74977086  0.88846008  1  0.141116  -0.000543  0.934117  -0.001  0.16408  -0.000318  0.989107  -0.001  0.165811  -0.000211  0.989326  0.0  0.103141  0.162944  -0.000448  0.988606  0.0
H  H25  1  0.41315053  0.25020841  0.11155331  1  0.141208  0.000544  0.93418  0.001  0.164237  0.000318  0.989053  0.001  0.165975  0.000211  0.989251  0.0  0.103119  0.163098  0.000448  0.988577  0.0
H  H26  1  0.56469041  0.63384685  0.74874638  1  0.145612  0.001287  0.950268  0.002  0.159572  0.000851  1.012122  0.001  0.161187  0.000572  1.012147  0.001  0.096989  0.158237  0.001032  1.01229  0.001
H  H27  1  0.43524760  0.36615375  0.25123934  1  0.145587  -0.001284  0.950345  -0.002  0.159536  -0.00085  1.012206  -0.001  0.161145  -0.000572  1.01224  -0.001  0.097012  0.158206  -0.001031  1.012374  -0.001
H  H28  1  0.46238277  0.56641095  0.87861379  1  0.152834  -0.000689  0.959517  -0.001  0.16635  -0.000406  1.026187  0.0  0.168736  -0.000248  1.026193  0.0  0.100833  0.164496  -0.000557  1.026285  -0.001
H  H29  1  0.53767573  0.43356511  0.12141567  1  0.152885  0.000696  0.959384  0.001  0.166365  0.000406  1.026146  0.0  0.168748  0.000248  1.026154  0.0  0.100764  0.16451  0.000558  1.026243  0.001
H  H30  1  0.29826452  0.97573906  0.15700962  1  0.147583  -0.000902  0.956047  -0.001  0.16643  -0.000644  1.01241  -0.001  0.168374  -0.000423  1.012731  -0.001  0.1017  0.164897  -0.000728  1.012062  -0.001
H  H31  1  0.70171633  0.02423403  0.84303735  1  0.147419  0.000898  0.956015  0.001  0.166242  0.000646  1.012447  0.001  0.168179  0.000423  1.01279  0.001  0.101569  0.164716  0.000729  1.01208  0.001
H  H32  1  0.33787348  0.96164507  0.99897322  1  0.132658  0.001015  0.951684  0.001  0.151932  0.000707  1.010179  0.001  0.154234  0.00049  1.009074  0.001  0.098492  0.149882  0.000774  1.011173  0.001
H  H33  1  0.66212556  0.03840249  0.00107692  1  0.132652  -0.001015  0.95138  -0.001  0.151967  -0.000706  1.009856  -0.001  0.154277  -0.00049  1.008744  -0.001  0.098506  0.149916  -0.000773  1.010848  -0.001
H  H34  1  0.14578197  0.00544546  0.03271246  1  0.13567  -0.000172  0.933359  0.0  0.157189  -0.000133  0.988717  0.0  0.158878  -9.4e-05  0.989108  0.0  0.103829  0.15581  -0.000137  0.9885  0.0
H  H35  1  0.85420758  0.99456098  0.96733682  1  0.1356  0.000167  0.933214  0.0  0.157124  0.000133  0.988598  0.0  0.158821  9.4e-05  0.988975  0.0  0.103762  0.155743  0.000137  0.988379  0.0
C  C36  1  0.73154141  0.58233891  0.90388973  1  0.733904  0.000675  3.810085  0.001  0.708363  0.000387  4.102259  0.0  0.750004  0.000341  4.094556  0.0  0.21526  0.680206  0.000333  4.106955  0.0
C  C37  1  0.26850662  0.41764204  0.09604045  1  0.734566  -0.000661  3.809492  -0.001  0.7092  -0.000383  4.101309  0.0  0.750848  -0.000338  4.093582  0.0  0.215649  0.681037  -0.000327  4.106034  0.0
C  C38  1  0.15335115  0.77655853  0.04307209  1  0.725866  -0.000803  3.828704  -0.001  0.700487  -0.000465  4.1218  -0.001  0.74144  -0.000471  4.115155  -0.001  0.213557  0.672496  -0.000454  4.125995  -0.001
C  C39  1  0.84666011  0.22344190  0.95692219  1  0.72557  0.000792  3.828884  0.001  0.700464  0.000461  4.121659  0.001  0.741404  0.000467  4.115013  0.001  0.213509  0.672482  0.000454  4.125848  0.001
C  C40  1  0.22242870  0.63397463  0.67717782  1  0.294331  -0.000118  3.678338  0.0  0.253718  -7.1e-05  3.945664  0.0  0.269349  -6.5e-05  3.958521  0.0  0.187978  0.24379  -7.2e-05  3.937092  0.0
C  C41  1  0.77756456  0.36604704  0.32282467  1  0.294101  0.000115  3.678341  0.0  0.253573  7.4e-05  3.945655  0.0  0.269206  6.5e-05  3.958534  0.0  0.18782  0.243657  7.3e-05  3.937106  0.0
C  C42  1  0.26775418  0.53503075  0.49019950  1  0.186365  -7.7e-05  3.632509  0.0  0.155963  -2e-05  3.882608  0.0  0.168252  -6.1e-05  3.894794  0.0  0.074578  0.14824  4.2e-05  3.874488  0.0
C  C43  1  0.73221064  0.46498657  0.50980443  1  0.186571  7.7e-05  3.632492  0.0  0.156216  2.1e-05  3.882544  0.0  0.168519  6.1e-05  3.894721  0.0  0.074601  0.148483  -4.2e-05  3.874447  0.0
C  C44  1  0.10588007  0.38632174  0.62198266  1  0.167547  -0.000167  3.659059  0.0  0.139822  -0.000123  3.909927  0.0  0.151669  -4.8e-05  3.923475  0.0  0.067602  0.13216  -0.000174  3.901109  0.0
C  C45  1  0.89411003  0.61369226  0.37803481  1  0.167299  0.000187  3.659206  0.0  0.139495  0.000125  3.910162  0.0  0.151338  4.9e-05  3.923731  0.0  0.06747  0.131838  0.000175  3.901335  0.0
C  C46  1  0.17438806  0.39674134  0.51188376  1  -0.152245  0.000118  3.683719  0.0  -0.161126  4e-05  3.922464  0.0  -0.171469  5.8e-05  3.940649  0.0  -0.072609  -0.154899  2.1e-05  3.910279  0.0
C  C47  1  0.82558279  0.60327044  0.48812517  1  -0.152313  -0.000123  3.683697  0.0  -0.161129  -4.2e-05  3.922464  0.0  -0.17147  -5.8e-05  3.940643  0.0  -0.072589  -0.154889  -2.2e-05  3.910257  0.0
C  C48  1  0.20946166  0.02944083  0.38278222  1  0.726992  0.000536  3.817161  0.001  0.698936  0.000176  4.116073  0.0  0.740063  0.000192  4.108683  0.0  0.213041  0.670906  0.000142  4.120748  0.0
C  C49  1  0.79051754  0.97055082  0.61721478  1  0.72704  -0.000538  3.817593  -0.001  0.698936  -0.000179  4.116511  0.0  0.740082  -0.000191  4.109109  0.0  0.213016  0.670896  -0.000145  4.121193  0.0
C  C50  1  0.44252596  0.12849725  0.69986471  1  0.730773  -0.000464  3.814552  -0.001  0.7026  -0.000373  4.111149  -0.001  0.743676  -0.000368  4.104179  -0.001  0.213342  0.674675  -0.000348  4.115367  -0.001
C  C51  1  0.55746586  0.87148552  0.30013968  1  0.730725  0.000463  3.814739  0.001  0.702633  0.000373  4.111267  0.001  0.743709  0.000368  4.104305  0.001  0.213308  0.674708  0.000345  4.115488  0.001
C  C52  1  0.04045596  0.04411831  0.31166054  1  -0.455945  -0.001194  3.61361  -0.001  -0.53138  -0.000661  3.84418  -0.001  -0.540838  -0.000434  3.846519  -0.001  -0.245223  -0.523316  -0.000826  3.841817  -0.001
C  C53  1  0.95952479  0.95586995  0.68832913  1  -0.455892  0.001222  3.613617  0.001  -0.531202  0.000672  3.844146  0.001  -0.540686  0.000439  3.846466  0.001  -0.245159  -0.523127  0.00084  3.841794  0.001
C  C54  1  0.41000452  0.20981688  0.81477178  1  -0.438809  0.000363  3.632071  0.001  -0.514209  0.000362  3.859835  0.001  -0.5225  0.000256  3.863151  0.001  -0.241422  -0.50722  0.000395  3.857129  0.001
C  C55  1  0.58999697  0.79016477  0.18523633  1  -0.438707  -0.000353  3.632249  -0.001  -0.514153  -0.000353  3.860009  -0.001  -0.522445  -0.00025  3.863336  -0.001  -0.241385  -0.507174  -0.000383  3.857292  -0.001
C  C56  1  0.57580673  0.63521129  0.85006814  1  -0.448273  -0.000502  3.616359  -0.001  -0.525209  -0.000275  3.846763  -0.001  -0.534488  -0.000163  3.849871  0.0  -0.247106  -0.517626  -0.000204  3.843901  0.0
C  C57  1  0.42421633  0.36476791  0.14991637  1  -0.448484  0.00048  3.616388  0.001  -0.525458  0.000273  3.846684  0.001  -0.534737  0.000162  3.849799  0.0  -0.247003  -0.517872  0.000199  3.843821  0.0
C  C58  1  0.24099161  0.93987291  0.05990605  1  -0.440389  0.000132  3.630599  0.0  -0.517301  -9e-06  3.858252  0.0  -0.526302  9e-06  3.861545  0.0  -0.237889  -0.509601  -0.000136  3.855272  0.0
C  C59  1  0.75900252  0.06013232  0.94013078  1  -0.439986  -0.000111  3.630018  0.0  -0.516995  1.1e-05  3.857638  0.0  -0.526004  -7e-06  3.860933  0.0  -0.237662  -0.509303  0.000136  3.854648  0.0
N  N60  1  0.13148900  0.50496080  0.70568617  1  -0.351048  0.00145  3.188983  0.001  -0.299916  0.000896  3.47052  0.0  -0.323796  0.000914  3.483456  0.0  -0.326645  -0.285088  0.000824  3.463213  0.0
N  N61  1  0.86851915  0.49506535  0.29432816  1  -0.351061  -0.001454  3.188767  -0.001  -0.299871  -0.000898  3.47015  0.0  -0.323773  -0.000915  3.483099  0.0  -0.32649  -0.285041  -0.000827  3.462857  0.0
N  N62  1  0.29120551  0.65399590  0.57296947  1  -0.35206  -0.001205  3.202303  0.0  -0.298858  -0.000674  3.482436  0.0  -0.323049  -0.000729  3.495254  0.0  -0.330811  -0.283844  -0.000585  3.474967  0.0
N  N63  1  0.70876666  0.34602583  0.42703265  1  -0.35177  0.001204  3.202031  0.0  -0.298653  0.000674  3.48219  0.0  -0.32284  0.00073  3.494981  0.0  -0.33061  -0.283664  0.000588  3.474783  0.0
O  O64  1  0.75295302  0.56962637  0.02115931  1  -0.598088  0.077138  2.086624  0.101  -0.571452  0.052753  2.362216  0.076  -0.617037  0.041772  2.355722  0.064  -0.318689  -0.541876  0.055609  2.367225  0.077
O  O65  1  0.24711244  0.43036448  0.97876206  1  -0.598553  -0.077171  2.086322  -0.101  -0.572009  -0.05277  2.361958  -0.076  -0.617589  -0.04178  2.355475  -0.064  -0.31898  -0.542421  -0.055625  2.366966  -0.077
O  O66  1  0.07896475  0.72240835  0.13113555  1  -0.573423  0.077255  2.031779  0.102  -0.551016  0.054  2.299734  0.078  -0.595302  0.042937  2.292312  0.066  -0.314761  -0.522517  0.056027  2.305516  0.078
O  O67  1  0.92106337  0.27758986  0.86886776  1  -0.573282  -0.077211  2.031979  -0.102  -0.550977  -0.053972  2.299853  -0.078  -0.59524  -0.042913  2.292471  -0.066  -0.314735  -0.522491  -0.056001  2.305632  -0.078
O  O68  1  0.82982307  0.55476104  0.82866288  1  -0.582417  -0.079489  2.046096  -0.104  -0.562781  -0.053821  2.31843  -0.078  -0.608394  -0.042339  2.310932  -0.065  -0.318283  -0.533231  -0.056662  2.324005  -0.079
O  O69  1  0.17022086  0.44521872  0.17125395  1  -0.582629  0.07944  2.046145  0.104  -0.563026  0.053786  2.318332  0.078  -0.608606  0.042314  2.310699  0.065  -0.318359  -0.533538  0.056618  2.324072  0.078
O  O70  1  0.15982458  0.70702880  0.94005498  1  -0.595013  -0.071831  2.07659  -0.094  -0.569731  -0.051176  2.347844  -0.074  -0.614394  -0.040712  2.340012  -0.062  -0.315995  -0.540636  -0.053756  2.353585  -0.075
O  O71  1  0.84017575  0.29297724  0.05994207  1  -0.595001  0.071892  2.076538  0.095  -0.569841  0.051219  2.347689  0.074  -0.614554  0.040747  2.339905  0.062  -0.315988  -0.540733  0.053796  2.353428  0.075
O  O72  1  0.33989724  0.13275518  0.37778133  1  -0.590368  -0.080333  2.062788  -0.105  -0.568627  -0.054867  2.33869  -0.079  -0.614203  -0.043181  2.332743  -0.066  -0.314588  -0.53928  -0.057057  2.343468  -0.079
O  O73  1  0.66010362  0.86727650  0.62222512  1  -0.590389  0.080283  2.063806  0.105  -0.568592  0.054845  2.339683  0.079  -0.614129  0.043164  2.333669  0.066  -0.3146  -0.539282  0.057028  2.344498  0.079
O  O74  1  0.51716006  0.20883831  0.62372013  1  -0.584068  -0.075723  2.067215  -0.099  -0.562253  -0.051841  2.340921  -0.075  -0.607644  -0.040784  2.33396  -0.062  -0.316553  -0.532498  -0.055093  2.345948  -0.076
O  O75  1  0.48285153  0.79116326  0.37627883  1  -0.583754  0.075704  2.067861  0.099  -0.562048  0.051833  2.341601  0.075  -0.607423  0.040777  2.334634  0.062  -0.31639  -0.532293  0.055078  2.346606  0.076
O  O76  1  0.20853426  0.91436320  0.44248068  1  -0.592021  0.072189  2.057915  0.095  -0.569411  0.050017  2.329937  0.072  -0.614363  0.039762  2.32349  0.061  -0.316424  -0.540176  0.051823  2.335038  0.072
O  O77  1  0.79146515  0.08564936  0.55749356  1  -0.592061  -0.072221  2.057468  -0.095  -0.569474  -0.050035  2.329577  -0.072  -0.614425  -0.039778  2.323064  -0.061  -0.316428  -0.540221  -0.051846  2.334703  -0.072
O  O78  1  0.39270549  0.98701544  0.68722210  1  -0.586418  0.079699  2.041399  0.104  -0.559813  0.055235  2.310341  0.079  -0.604524  0.043313  2.302913  0.066  -0.317057  -0.530794  0.058566  2.315921  0.081
O  O79  1  0.60727897  0.01299173  0.31277058  1  -0.586622  -0.079707  2.040823  -0.104  -0.560018  -0.055238  2.3097  -0.079  -0.604745  -0.043315  2.302279  -0.066  -0.317157  -0.531004  -0.058571  2.315324  -0.081
