# generated using pymatgen
data_H14RuC20N(O3F2)2
_symmetry_space_group_name_H-M   'P 1'
_cell_length_a   10.18681411
_cell_length_b   10.51873969
_cell_length_c   11.06082051
_cell_angle_alpha   76.74245803
_cell_angle_beta   74.28999202
_cell_angle_gamma   63.09875829
_symmetry_Int_Tables_number   1
_chemical_formula_structural   H14RuC20N(O3F2)2
_chemical_formula_sum   'H28 Ru2 C40 N2 O12 F8'
_cell_volume   1009.55179684
_cell_formula_units_Z   2
loop_
 _symmetry_equiv_pos_site_id
 _symmetry_equiv_pos_as_xyz
  1  'x, y, z'
loop_
 _atom_site_type_symbol
 _atom_site_label
 _atom_site_symmetry_multiplicity
 _atom_site_fract_x
 _atom_site_fract_y
 _atom_site_fract_z
 _atom_site_occupancy
 _atom_site_pbe_cm5_charge
 _atom_site_pbe_ddec_charge
 _atom_site_pbe_ddec_spin_density
 _atom_site_pbe_ddec_sum_bond_order
 _atom_site_pbe_magmom
H  H0  1  0.79350458  0.35890605  0.76729936  1  0.112329  0.139991  -3.3e-05  1.001032  0.0
H  H1  1  0.20650601  0.64108098  0.23269122  1  0.112319  0.139923  -3.3e-05  1.001182  0.0
H  H2  1  0.86510314  0.51099670  0.85784727  1  0.1013  0.104661  -2.2e-05  1.027432  0.0
H  H3  1  0.13491463  0.48899030  0.14214328  1  0.10131  0.104668  -2.2e-05  1.027516  0.0
H  H4  1  0.76993086  0.54820377  0.08505602  1  0.107033  0.116924  9.3e-05  1.003274  0.0
H  H5  1  0.23008752  0.45177478  0.91494269  1  0.107002  0.116923  9.3e-05  1.003216  0.0
H  H6  1  0.85453954  0.23032641  0.23755166  1  0.107149  0.125654  -2.2e-05  1.031532  0.0
H  H7  1  0.14544970  0.76967297  0.76246053  1  0.107131  0.125704  -2.2e-05  1.031489  0.0
H  H8  1  0.80028179  0.01837780  0.34977812  1  0.104293  0.106334  2e-05  1.000726  0.0
H  H9  1  0.19973889  0.98159546  0.65022486  1  0.104347  0.106463  2e-05  1.000552  0.0
H  H10  1  0.00600159  0.79605982  0.43130523  1  0.103243  0.108898  -0.000269  1.037051  0.0
H  H11  1  0.99403226  0.20393052  0.56869574  1  0.103208  0.108872  -0.000269  1.037079  0.0
H  H12  1  0.17250217  0.32191581  0.35274621  1  0.098734  0.102649  1.6e-05  1.055038  0.0
H  H13  1  0.82752071  0.67808088  0.64724705  1  0.09868  0.102541  1.6e-05  1.055198  0.0
H  H14  1  0.06855459  0.50408234  0.69683548  1  0.102361  0.105077  0.000188  1.031921  0.0
H  H15  1  0.93146280  0.49591744  0.30314944  1  0.102341  0.105075  0.000188  1.031912  0.0
H  H16  1  0.39087519  0.22672867  0.37935495  1  0.104342  0.130011  0.000232  1.01985  0.0
H  H17  1  0.60914134  0.77327361  0.62064768  1  0.10432  0.129955  0.000231  1.019949  0.0
H  H18  1  0.47738349  0.11767900  0.50800096  1  0.105318  0.125893  -4.6e-05  1.018905  0.0
H  H19  1  0.52263554  0.88233188  0.49200262  1  0.105293  0.125871  -4.6e-05  1.018812  0.0
H  H20  1  0.31146464  0.11244631  0.48676238  1  0.089928  0.098443  0.000429  1.021701  0.0
H  H21  1  0.68856228  0.88754845  0.51324296  1  0.089905  0.098459  0.000429  1.021685  0.0
H  H22  1  0.20826563  0.17326375  0.72143885  1  0.089864  0.098014  0.000152  1.022736  0.0
H  H23  1  0.79175090  0.82673853  0.27856378  1  0.089797  0.09795  0.000152  1.02278  0.0
H  H24  1  0.39289295  0.16394358  0.70724147  1  0.105048  0.13135  -7.4e-05  1.011808  0.0
H  H25  1  0.60712240  0.83606609  0.29275430  1  0.105059  0.131297  -7.5e-05  1.011846  0.0
H  H26  1  0.23332456  0.31869627  0.75526899  1  0.101191  0.11708  0.000156  1.03214  0.0
H  H27  1  0.76668819  0.68131243  0.24473130  1  0.101226  0.11714  0.000155  1.032031  0.0
Ru  Ru28  1  0.42037852  0.44473688  0.51506946  1  0.664679  0.648483  0.020161  3.765367  0.017
Ru  Ru29  1  0.57963374  0.55527271  0.48492080  1  0.664667  0.648349  0.020249  3.765561  0.018
C  C30  1  0.59700926  0.44252767  0.26085495  1  0.208686  0.54092  0.002275  4.152579  0.004
C  C31  1  0.40299106  0.55747881  0.73913823  1  0.208739  0.54108  0.002275  4.152685  0.004
C  C32  1  0.65089854  0.41484136  0.12637253  1  -0.028256  -0.144222  -0.000534  4.030709  0.0
C  C33  1  0.34910826  0.58515201  0.87361121  1  -0.02822  -0.144289  -0.000534  4.030668  0.0
C  C34  1  0.61451315  0.32765421  0.07445693  1  0.099061  0.161083  -3.8e-05  4.03731  0.0
C  C35  1  0.38548275  0.67234590  0.92553979  1  0.099183  0.161264  -3.8e-05  4.0367  0.0
C  C36  1  0.66610011  0.30980318  0.94621100  1  0.086383  0.164814  -1.3e-05  4.09262  0.0
C  C37  1  0.33390720  0.69018941  0.05378816  1  0.086338  0.16468  -1.3e-05  4.092595  0.0
C  C38  1  0.75668006  0.37368164  0.86721936  1  -0.088121  -0.15833  -6.9e-05  3.966943  0.0
C  C39  1  0.24333286  0.62630021  0.13278179  1  -0.088128  -0.158159  -6.9e-05  3.967107  0.0
C  C40  1  0.79539501  0.45877013  0.91861124  1  -0.092533  -0.071317  -3.1e-05  4.014721  0.0
C  C41  1  0.20462269  0.54121491  0.08138973  1  -0.0925  -0.071365  -3.1e-05  4.014887  0.0
C  C42  1  0.74287358  0.47945984  0.04537901  1  -0.086572  -0.091195  9.6e-05  3.980667  0.0
C  C43  1  0.25714420  0.52052724  0.95461603  1  -0.086647  -0.091264  9.6e-05  3.980634  0.0
C  C44  1  0.28829456  0.74753152  0.41892311  1  0.210134  0.546279  -0.002306  4.147479  -0.004
C  C45  1  0.71172795  0.25247802  0.58106722  1  0.210175  0.546095  -0.002305  4.147188  -0.004
C  C46  1  0.17071193  0.88254211  0.36929269  1  -0.022655  -0.12691  0.000427  4.009952  0.0
C  C47  1  0.82930355  0.11746981  0.63070794  1  -0.022623  -0.127001  0.000426  4.009997  0.0
C  C48  1  0.19725069  0.00338560  0.30727520  1  0.098721  0.154422  2.1e-05  4.044818  0.0
C  C49  1  0.80274747  0.99663829  0.69272890  1  0.098609  0.154259  2.1e-05  4.044925  0.0
C  C50  1  0.08216562  0.12590263  0.26147175  1  0.085  0.158875  -5e-06  4.098251  0.0
C  C51  1  0.91782245  0.87411397  0.73854211  1  0.08506  0.158946  -5e-06  4.098412  0.0
C  C52  1  0.93995045  0.13281507  0.27585807  1  -0.090209  -0.154018  -2.6e-05  3.981185  0.0
C  C53  1  0.06004458  0.86718744  0.72415097  1  -0.090194  -0.154101  -2.5e-05  3.981175  0.0
C  C54  1  0.91218680  0.01343067  0.33759559  1  -0.09155  -0.069175  -1e-06  4.01622  0.0
C  C55  1  0.08782463  0.98656198  0.66240792  1  -0.091522  -0.069179  -1e-06  4.016212  0.0
C  C56  1  0.02597584  0.89015543  0.38306545  1  -0.08673  -0.09507  -0.000106  3.976822  0.0
C  C57  1  0.97404513  0.10984358  0.61693591  1  -0.086712  -0.095036  -0.000106  3.977026  0.0
C  C58  1  0.13939662  0.39605443  0.53067022  1  0.075677  0.154491  -0.009066  3.985377  -0.005
C  C59  1  0.86061202  0.60394446  0.46932169  1  0.075787  0.154658  -0.009066  3.985473  -0.005
C  C60  1  0.09830440  0.39931813  0.41836602  1  -0.101349  -0.163909  -0.005217  3.995104  -0.003
C  C61  1  0.90171130  0.60067857  0.58162549  1  -0.101296  -0.163814  -0.005215  3.995411  -0.003
C  C62  1  0.03828540  0.49877156  0.61162367  1  -0.098164  -0.154271  -0.005366  4.000002  -0.003
C  C63  1  0.96172483  0.50122840  0.38836848  1  -0.098195  -0.154316  -0.005368  3.999834  -0.003
C  C64  1  0.36940757  0.18172759  0.47834616  1  -0.151493  -0.291244  0.001498  3.901117  0.001
C  C65  1  0.63061055  0.81827573  0.52165492  1  -0.151351  -0.291054  0.001498  3.901002  0.001
C  C66  1  0.27799027  0.23438331  0.69417530  1  -0.152652  -0.293282  0.001218  3.905625  0.001
C  C67  1  0.72201974  0.76562210  0.30582105  1  -0.152582  -0.293127  0.001218  3.905571  0.001
C  C68  1  0.25276527  0.06924912  0.96980205  1  0.355406  0.700231  8e-06  4.152293  0.0
C  C69  1  0.74708137  0.93072768  0.03022882  1  0.355245  0.69902  8e-06  4.153147  0.0
N  N70  1  0.28243902  0.29639108  0.56006910  1  -0.323945  -0.024328  -0.007022  3.562134  -0.007
N  N71  1  0.71757282  0.70361004  0.43992778  1  -0.323982  -0.024391  -0.007021  3.562137  -0.007
O  O72  1  0.49719145  0.40116731  0.33046626  1  -0.30035  -0.454231  0.016934  2.472767  0.01
O  O73  1  0.50281265  0.59883276  0.66953016  1  -0.300443  -0.454329  0.016932  2.472709  0.01
O  O74  1  0.65528436  0.50721837  0.30032512  1  -0.303989  -0.467565  0.015305  2.460725  0.008
O  O75  1  0.34471582  0.49279558  0.69966543  1  -0.303915  -0.467504  0.015304  2.460646  0.008
O  O76  1  0.25760852  0.63739940  0.45277614  1  -0.301016  -0.463872  -0.015459  2.468967  -0.008
O  O77  1  0.74241646  0.36260883  0.54720302  1  -0.300982  -0.4636  -0.015457  2.468508  -0.008
O  O78  1  0.41207189  0.74679341  0.42560874  1  -0.299696  -0.462901  -0.013671  2.479236  -0.008
O  O79  1  0.58794984  0.25322054  0.57438709  1  -0.299831  -0.462933  -0.013673  2.479291  -0.008
O  O80  1  0.34307216  0.10684929  0.97573147  1  -0.17171  -0.34226  -8e-06  2.205974  0.0
O  O81  1  0.65673169  0.89320361  0.02427896  1  -0.171372  -0.341443  -8e-06  2.206907  0.0
O  O82  1  0.16106564  0.03361176  0.96294185  1  -0.18298  -0.358984  2.3e-05  2.185585  0.0
O  O83  1  0.83883371  0.96629214  0.03711156  1  -0.183176  -0.35861  2.3e-05  2.185392  0.0
F  F84  1  0.53060918  0.25720223  0.14454728  1  -0.085116  -0.105472  0.000224  1.399505  0.0
F  F85  1  0.46937298  0.74282028  0.85543687  1  -0.085206  -0.105592  0.000224  1.3992  0.0
F  F86  1  0.62351506  0.22830617  0.89947299  1  -0.090862  -0.121162  -5e-06  1.393226  0.0
F  F87  1  0.37649096  0.77169167  0.10051984  1  -0.090877  -0.12115  -5e-06  1.393308  0.0
F  F88  1  0.33294907  0.00640345  0.28739556  1  -0.078268  -0.101307  -0.000133  1.423145  0.0
F  F89  1  0.66704247  0.99363119  0.71260682  1  -0.078244  -0.101257  -0.000132  1.423132  0.0
F  F90  1  0.11265440  0.24023884  0.19892898  1  -0.087665  -0.125612  2.5e-05  1.397634  0.0
F  F91  1  0.88731638  0.75978989  0.80109644  1  -0.087744  -0.125624  2.5e-05  1.397616  0.0
