# generated using pymatgen
data_AlH6C12ClO6
_symmetry_space_group_name_H-M   'P 1'
_cell_length_a   6.65155309
_cell_length_b   11.18732303
_cell_length_c   17.89406504
_cell_angle_alpha   78.04627774
_cell_angle_beta   78.06775577
_cell_angle_gamma   71.73955016
_symmetry_Int_Tables_number   1
_chemical_formula_structural   AlH6C12ClO6
_chemical_formula_sum   'Al2 H12 C24 Cl2 O12'
_cell_volume   1222.57198199
_cell_formula_units_Z   2
loop_
 _symmetry_equiv_pos_site_id
 _symmetry_equiv_pos_as_xyz
  1  'x, y, z'
loop_
 _atom_site_type_symbol
 _atom_site_label
 _atom_site_symmetry_multiplicity
 _atom_site_fract_x
 _atom_site_fract_y
 _atom_site_fract_z
 _atom_site_occupancy
 _atom_site_pbe_bader_charge
 _atom_site_pbe_bader_spin_density
 _atom_site_pbe_cm5_charge
 _atom_site_pbe_ddec_charge
 _atom_site_pbe_ddec_spin_density
 _atom_site_pbe_ddec_sum_bond_order
 _atom_site_pbe_magmom
Al  Al0  1  0.49898440  0.50040973  0.49980215  1  2.504549  0  0.400893  1.632107  0  2.581298  0
Al  Al1  1  0.99876708  0.50048148  0.50021676  1  2.504301  0  0.394348  1.643833  0  2.583581  0
H  H2  1  0.26503264  0.57130783  0.40441384  1  0.60462  0  0.351836  0.4253  0  0.861647  0
H  H3  1  0.73145726  0.42965846  0.59555910  1  0.606895  0  0.351965  0.424964  0  0.861829  0
H  H4  1  0.77358192  0.11676284  0.47890632  1  0.141996  0  0.111606  0.14023  0  1.018545  0
H  H5  1  0.22358245  0.88431380  0.52057682  1  0.145762  0  0.11138  0.140088  0  1.01766  0
H  H6  1  0.55752100  0.57624894  0.26697323  1  0.098156  0  0.111162  0.113573  0  0.997297  0
H  H7  1  0.61103202  0.58668053  0.12429833  1  0.098385  0  0.110083  0.116807  0  0.983699  0
H  H8  1  0.27949151  0.38506115  0.12934758  1  0.103674  0  0.110141  0.126587  0  0.989589  0
H  H9  1  0.72666886  0.61685022  0.87169224  1  0.083583  0  0.110392  0.12688  0  0.989194  0
H  H10  1  0.44259309  0.41928462  0.73252555  1  0.088817  0  0.111732  0.114316  0  0.995779  0
H  H11  1  0.39253582  0.40770103  0.87517198  1  0.07448  0  0.110043  0.116739  0  0.9834  0
H  H12  1  0.94977382  0.78768668  0.47034140  1  0.634803  0  0.312242  0.355095  0  0.967771  0
H  H13  1  0.04739152  0.21322685  0.52968488  1  0.626712  0  0.311918  0.355175  0  0.967283  0
C  C14  1  0.83750394  0.48758019  0.36333656  1  1.586461  0  0.271116  0.662609  0  4.073143  0
C  C15  1  0.62409938  0.73142673  0.49350272  1  1.534861  0  0.262039  0.646901  0  4.081428  0
C  C16  1  0.16112972  0.51279744  0.63678873  1  1.586149  0  0.271575  0.663581  0  4.071809  0
C  C17  1  0.37340962  0.26948010  0.50636180  1  1.51664  0  0.261773  0.646457  0  4.08106  0
C  C18  1  0.56221060  0.86919032  0.49671516  1  -0.067238  0  -0.031535  -0.168886  0  4.0071  0
C  C19  1  0.43507299  0.13185171  0.50279350  1  -0.020583  0  -0.031827  -0.16941  0  4.011166  0
C  C20  1  0.71954789  0.93630020  0.48391952  1  0.533551  0  0.082003  0.287444  0  4.067559  0
C  C21  1  0.27769725  0.06478615  0.51550015  1  0.482539  0  0.081967  0.288173  0  4.067418  0
C  C22  1  0.65266392  0.06653772  0.48711468  1  -0.006142  0  -0.096211  -0.189168  0  3.944029  0
C  C23  1  0.34454166  0.93454673  0.51224930  1  0.090437  0  -0.095981  -0.189123  0  3.940784  0
C  C24  1  0.88547528  0.48048170  0.27887920  1  0.044936  0  -0.014393  -0.106691  0  3.92133  0
C  C25  1  0.71559050  0.53602905  0.23572974  1  -0.022833  0  -0.076455  -0.069999  0  4.002663  0
C  C26  1  0.74492698  0.54165594  0.15633351  1  0.004239  0  -0.08357  -0.136541  0  3.951002  0
C  C27  1  0.95057705  0.48882405  0.11649682  1  0.130876  0  0.006879  0.164484  0  4.114188  0
C  C28  1  0.12115650  0.42907153  0.15901300  1  -0.024968  0  -0.086798  -0.199229  0  3.920189  0
C  C29  1  0.08995495  0.42513922  0.23886473  1  0.031  0  0.026071  0.144846  0  4.024196  0
C  C30  1  0.98689818  0.49536448  0.03522908  1  -0.517477  0  -0.038193  -0.097318  0  4.097262  0
C  C31  1  0.01917927  0.50226049  0.96499797  1  0.114881  0  -0.037959  -0.098809  0  4.09851  0
C  C32  1  0.05433106  0.50936912  0.88371469  1  0.097488  0  0.007756  0.166204  0  4.11419  0
C  C33  1  0.88356652  0.57158830  0.84161254  1  0.074245  0  -0.086939  -0.199272  0  3.91858  0
C  C34  1  0.91282352  0.57627536  0.76174581  1  0.030448  0  0.02611  0.145107  0  4.025621  0
C  C35  1  0.11552763  0.51922568  0.72130310  1  -0.000802  0  -0.014707  -0.107288  0  3.924675  0
C  C36  1  0.28585384  0.46127761  0.76404436  1  -0.023809  0  -0.076234  -0.06989  0  4.004609  0
C  C37  1  0.25842496  0.45480099  0.84347179  1  0.052849  0  -0.083614  -0.137119  0  3.952572  0
Cl  Cl38  1  0.31087743  0.34547192  0.28437606  1  -0.172713  0  0.014769  -0.049987  0  1.513395  0
Cl  Cl39  1  0.69196922  0.65859062  0.71669195  1  -0.183659  0  0.012911  -0.051716  0  1.506237  0
O  O40  1  0.64203114  0.50671953  0.39481715  1  -1.262729  0  -0.231903  -0.593784  0  2.344444  0
O  O41  1  0.82765184  0.67425555  0.48169390  1  -1.267061  0  -0.243046  -0.621364  0  2.403816  0
O  O42  1  0.00597299  0.52244530  0.60258280  1  -1.257859  0  -0.234504  -0.598988  0  2.398758  0
O  O43  1  0.51773679  0.32521833  0.49836590  1  -1.260821  0  -0.232252  -0.573913  0  2.337584  0
O  O44  1  0.35614148  0.49364772  0.60483489  1  -1.26101  0  -0.231978  -0.594292  0  2.346753  0
O  O45  1  0.16993738  0.32666189  0.51864990  1  -1.260829  0  -0.243044  -0.621574  0  2.40295  0
O  O46  1  0.99158283  0.47843997  0.39793607  1  -1.259552  0  -0.234633  -0.599573  0  2.406475  0
O  O47  1  0.47997274  0.67561926  0.50125561  1  -1.258978  0  -0.231848  -0.573678  0  2.339083  0
O  O48  1  0.24040802  0.55730397  0.46050515  1  -1.409469  0  -0.447028  -0.975967  0  2.174764  0
O  O49  1  0.75719648  0.44356979  0.53947110  1  -1.412628  0  -0.447034  -0.975446  0  2.174607  0
O  O50  1  0.93299752  0.87987981  0.46842773  1  -1.137347  0  -0.351728  -0.439128  0  2.296425  0
O  O51  1  0.06425606  0.12115887  0.53113612  1  -1.139828  0  -0.351298  -0.439349  0  2.296257  0
