# generated using pymatgen
data_HgH18C22(N2Cl)2
_symmetry_space_group_name_H-M   'P 1'
_cell_length_a   11.19533084
_cell_length_b   11.19524144
_cell_length_c   14.55828375
_cell_angle_alpha   105.36638660
_cell_angle_beta   105.36680575
_cell_angle_gamma   100.15558788
_symmetry_Int_Tables_number   1
_chemical_formula_structural   HgH18C22(N2Cl)2
_chemical_formula_sum   'Hg2 H36 C44 N8 Cl4'
_cell_volume   1635.79381828
_cell_formula_units_Z   2
loop_
 _symmetry_equiv_pos_site_id
 _symmetry_equiv_pos_as_xyz
  1  'x, y, z'
loop_
 _atom_site_type_symbol
 _atom_site_label
 _atom_site_symmetry_multiplicity
 _atom_site_fract_x
 _atom_site_fract_y
 _atom_site_fract_z
 _atom_site_occupancy
 _atom_site_hle17_bader_spin_density
 _atom_site_hle17_ddec_charge
 _atom_site_hle17_ddec_spin_density
 _atom_site_hle17_ddec_sum_bond_order
 _atom_site_hle17_magmom
 _atom_site_hse06_10hf_bader_spin_density
 _atom_site_hse06_10hf_ddec_charge
 _atom_site_hse06_10hf_ddec_spin_density
 _atom_site_hse06_10hf_ddec_sum_bond_order
 _atom_site_hse06_10hf_magmom
 _atom_site_hse06_bader_spin_density
 _atom_site_hse06_ddec_charge
 _atom_site_hse06_ddec_spin_density
 _atom_site_hse06_ddec_sum_bond_order
 _atom_site_hse06_magmom
 _atom_site_pbe_bader_spin_density
 _atom_site_pbe_cm5_charge
 _atom_site_pbe_ddec_charge
 _atom_site_pbe_ddec_spin_density
 _atom_site_pbe_ddec_sum_bond_order
 _atom_site_pbe_magmom
Hg  Hg0  1  0.62545884  0.37454455  0.75000156  1  0  0.754178  0  2.148899  0  0  0.591008  0  2.666242  0  0  0.638214  0  2.629194  0  0  0.508479  0.558934  0  2.690846  0
Hg  Hg1  1  0.37454262  0.62545541  0.24999713  1  0  0.754214  0  2.148832  0  0  0.591057  0  2.666178  0  0  0.638257  0  2.629125  0  0  0.50848  0.558986  0  2.690779  0
H  H2  1  0.30710477  0.31803204  0.74490194  1  0  0.100186  0  0.956456  0  0  0.109242  0  1.020775  0  0  0.112306  0  1.018929  0  0  0.096906  0.10723  0  1.021947  0
H  H3  1  0.68196365  0.69289574  0.75509945  1  0  0.100189  0  0.956507  0  0  0.109247  0  1.02081  0  0  0.112309  0  1.018968  0  0  0.096918  0.107234  0  1.021981  0
H  H4  1  0.69290318  0.68196796  0.25509947  1  0  0.100198  0  0.956447  0  0  0.109275  0  1.020743  0  0  0.112337  0  1.018902  0  0  0.096945  0.107262  0  1.021915  0
H  H5  1  0.31803594  0.30710419  0.24490160  1  0  0.100229  0  0.956482  0  0  0.109292  0  1.020782  0  0  0.112354  0  1.01894  0  0  0.096933  0.107279  0  1.021953  0
H  H6  1  0.10182771  0.34460319  0.77719753  1  0  0.087841  0  0.944061  0  0  0.102352  0  0.995642  0  0  0.104864  0  0.995247  0  0  0.099228  0.100457  0  0.996135  0
H  H7  1  0.65539540  0.89817467  0.72280265  1  0  0.087828  0  0.944022  0  0  0.102336  0  0.995607  0  0  0.10485  0  0.995213  0  0  0.099237  0.10044  0  0.996102  0
H  H8  1  0.89818124  0.65540067  0.22280282  1  0  0.087861  0  0.94395  0  0  0.102371  0  0.995538  0  0  0.104885  0  0.995144  0  0  0.09923  0.100474  0  0.996034  0
H  H9  1  0.34460185  0.10182334  0.27719478  1  0  0.087842  0  0.944031  0  0  0.102349  0  0.995628  0  0  0.104859  0  0.995234  0  0  0.09924  0.100455  0  0.99612  0
H  H10  1  0.10041095  0.53134898  0.91124083  1  0  0.096969  0  0.966272  0  0  0.107651  0  1.025204  0  0  0.110402  0  1.024102  0  0  0.090785  0.105807  0  1.025841  0
H  H11  1  0.46864986  0.89959234  0.58875754  1  0  0.096961  0  0.966219  0  0  0.107639  0  1.025156  0  0  0.110387  0  1.024057  0  0  0.090776  0.105794  0  1.025793  0
H  H12  1  0.89959565  0.46865295  0.08875726  1  0  0.096907  0  0.966191  0  0  0.107606  0  1.02512  0  0  0.11036  0  1.02402  0  0  0.090777  0.105763  0  1.025757  0
H  H13  1  0.53134713  0.10040471  0.41124101  1  0  0.096952  0  0.966138  0  0  0.107628  0  1.025092  0  0  0.110377  0  1.023993  0  0  0.090775  0.105784  0  1.025729  0
H  H14  1  0.30241914  0.70294888  0.01882360  1  0  0.105095  0  0.947856  0  0  0.117945  0  1.004355  0  0  0.120596  0  1.003418  0  0  0.104968  0.116313  0  1.004922  0
H  H15  1  0.29704744  0.69758189  0.48117591  1  0  0.105066  0  0.947742  0  0  0.117926  0  1.004245  0  0  0.120581  0  1.003306  0  0  0.104962  0.116295  0  1.004809  0
H  H16  1  0.69758585  0.29705398  0.98117573  1  0  0.105104  0  0.94783  0  0  0.117968  0  1.004315  0  0  0.120621  0  1.003377  0  0  0.104981  0.116337  0  1.00488  0
H  H17  1  0.70294768  0.30241512  0.51882569  1  0  0.105108  0  0.94778  0  0  0.117977  0  1.004269  0  0  0.120631  0  1.003329  0  0  0.104985  0.116345  0  1.004834  0
H  H18  1  0.71944570  0.64812804  0.96247023  1  0  0.095194  0  0.925813  0  0  0.10455  0  0.989805  0  0  0.106934  0  0.986579  0  0  0.13515  0.102617  0  0.992295  0
H  H19  1  0.35187305  0.28055354  0.53752749  1  0  0.09519  0  0.925867  0  0  0.104525  0  0.989881  0  0  0.10691  0  0.986655  0  0  0.135135  0.102593  0  0.992371  0
H  H20  1  0.28055793  0.35187673  0.03752921  1  0  0.095272  0  0.925813  0  0  0.104609  0  0.989823  0  0  0.106994  0  0.986598  0  0  0.135173  0.102676  0  0.992314  0
H  H21  1  0.64812655  0.71944640  0.46247219  1  0  0.095215  0  0.925818  0  0  0.10454  0  0.989839  0  0  0.106922  0  0.986617  0  0  0.135141  0.102608  0  0.992329  0
H  H22  1  0.69474505  0.82147692  0.09615477  1  0  0.08659  0  0.899231  0  0  0.107693  0  0.948934  0  0  0.108074  0  0.949043  0  0  0.119777  0.107348  0  0.94891  0
H  H23  1  0.17852098  0.30525541  0.40384591  1  0  0.086598  0  0.899153  0  0  0.10767  0  0.948885  0  0  0.108072  0  0.948969  0  0  0.119782  0.107322  0  0.948858  0
H  H24  1  0.30525602  0.17852878  0.90384777  1  0  0.086573  0  0.89922  0  0  0.107701  0  0.948908  0  0  0.108069  0  0.949032  0  0  0.119763  0.107368  0  0.948871  0
H  H25  1  0.82147743  0.69474356  0.59615539  1  0  0.086561  0  0.899251  0  0  0.107662  0  0.94897  0  0  0.10805  0  0.949069  0  0  0.119764  0.107314  0  0.948942  0
H  H26  1  0.55589829  0.78855028  0.13122953  1  0  0.08702  0  0.950031  0  0  0.097074  0  1.023661  0  0  0.098054  0  1.022568  0  0  0.102133  0.096169  0  1.024661  0
H  H27  1  0.21144722  0.44410209  0.36876999  1  0  0.08699  0  0.95006  0  0  0.097049  0  1.023674  0  0  0.098024  0  1.022591  0  0  0.10213  0.09614  0  1.024672  0
H  H28  1  0.44410113  0.21145254  0.86876796  1  0  0.086953  0  0.950091  0  0  0.097018  0  1.023725  0  0  0.097995  0  1.022634  0  0  0.102104  0.096111  0  1.024728  0
H  H29  1  0.78854865  0.55589780  0.63123235  1  0  0.086974  0  0.950117  0  0  0.097039  0  1.023749  0  0  0.098017  0  1.022659  0  0  0.102113  0.096129  0  1.024746  0
H  H30  1  0.46693906  0.96404291  0.15400059  1  0  0.093811  0  0.974748  0  0  0.101716  0  1.041039  0  0  0.104366  0  1.040085  0  0  0.092087  0.099826  0  1.041748  0
H  H31  1  0.03595290  0.53306502  0.34600046  1  0  0.093844  0  0.974723  0  0  0.101722  0  1.04104  0  0  0.104372  0  1.040084  0  0  0.092075  0.099832  0  1.041748  0
H  H32  1  0.53306148  0.03595705  0.84599585  1  0  0.093875  0  0.974737  0  0  0.101793  0  1.040993  0  0  0.104445  0  1.040036  0  0  0.092121  0.099903  0  1.041701  0
H  H33  1  0.96404129  0.46693199  0.65400231  1  0  0.093818  0  0.974724  0  0  0.10171  0  1.041024  0  0  0.104361  0  1.040069  0  0  0.092082  0.09982  0  1.041732  0
H  H34  1  0.60930559  0.86499207  0.90404640  1  0  0.086258  0  0.960532  0  0  0.097276  0  1.022589  0  0  0.099569  0  1.022137  0  0  0.095986  0.095703  0  1.022815  0
H  H35  1  0.13500860  0.39069262  0.59595261  1  0  0.086243  0  0.960476  0  0  0.097264  0  1.022545  0  0  0.09956  0  1.022091  0  0  0.095966  0.095697  0  1.022763  0
H  H36  1  0.39069612  0.13500885  0.09595117  1  0  0.08627  0  0.960505  0  0  0.097265  0  1.022589  0  0  0.099561  0  1.022137  0  0  0.095982  0.095699  0  1.022807  0
H  H37  1  0.86498887  0.60930634  0.40404986  1  0  0.086236  0  0.960523  0  0  0.097272  0  1.022569  0  0  0.099569  0  1.022114  0  0  0.095972  0.095699  0  1.022795  0
C  C38  1  0.41875940  0.49685025  0.86390344  1  0  0.145675  0  3.817405  0  0  0.141689  0  4.066126  0  0  0.145724  0  4.08894  0  0  0.082295  0.138918  0  4.05044  0
C  C39  1  0.50314943  0.58124091  0.63609986  1  0  0.145727  0  3.817294  0  0  0.141671  0  4.066097  0  0  0.1457  0  4.088912  0  0  0.082255  0.138899  0  4.050411  0
C  C40  1  0.58124650  0.50315261  0.13609951  1  0  0.145827  0  3.817195  0  0  0.14174  0  4.066032  0  0  0.145771  0  4.088849  0  0  0.082399  0.13897  0  4.050349  0
C  C41  1  0.49684662  0.41875611  0.36390192  1  0  0.145835  0  3.81747  0  0  0.141762  0  4.066257  0  0  0.145792  0  4.089073  0  0  0.082339  0.13899  0  4.050572  0
C  C42  1  0.30525848  0.40154590  0.80320447  1  0  -0.144139  0  3.760205  0  0  -0.164112  0  4.01579  0  0  -0.166619  0  4.036197  0  0  -0.098209  -0.162327  0  4.001657  0
C  C43  1  0.59844887  0.69474084  0.69679412  1  0  -0.144176  0  3.760415  0  0  -0.16413  0  4.016005  0  0  -0.166634  0  4.03641  0  0  -0.098217  -0.162343  0  4.001868  0
C  C44  1  0.69474416  0.59845504  0.19679261  1  0  -0.144177  0  3.760311  0  0  -0.164148  0  4.015935  0  0  -0.166654  0  4.036339  0  0  -0.09827  -0.162363  0  4.001802  0
C  C45  1  0.40154725  0.30526003  0.30320709  1  0  -0.144217  0  3.760399  0  0  -0.16418  0  4.016001  0  0  -0.166684  0  4.036403  0  0  -0.098216  -0.162393  0  4.001865  0
C  C46  1  0.19235641  0.41700954  0.82227350  1  0  -0.08826  0  3.802734  0  0  -0.103136  0  4.057101  0  0  -0.106072  0  4.080838  0  0  -0.102572  -0.101053  0  4.040914  0
C  C47  1  0.58298699  0.80764214  0.67772827  1  0  -0.088239  0  3.80268  0  0  -0.103121  0  4.057039  0  0  -0.106061  0  4.080778  0  0  -0.102607  -0.101039  0  4.040851  0
C  C48  1  0.80764993  0.58299141  0.17772709  1  0  -0.088338  0  3.802514  0  0  -0.103207  0  4.056892  0  0  -0.106148  0  4.080632  0  0  -0.102577  -0.101123  0  4.040706  0
C  C49  1  0.41701025  0.19235586  0.32227190  1  0  -0.088327  0  3.802662  0  0  -0.103203  0  4.057048  0  0  -0.106139  0  4.080781  0  0  -0.102636  -0.101122  0  4.040863  0
C  C50  1  0.19125891  0.52435305  0.89908546  1  0  -0.071176  0  3.781327  0  0  -0.085797  0  4.031756  0  0  -0.088209  0  4.055277  0  0  -0.097164  -0.084055  0  4.015661  0
C  C51  1  0.47564209  0.80874219  0.60091480  1  0  -0.071253  0  3.781272  0  0  -0.085862  0  4.031703  0  0  -0.088272  0  4.055224  0  0  -0.097151  -0.084121  0  4.015607  0
C  C52  1  0.80874719  0.47564695  0.10091351  1  0  -0.071039  0  3.781165  0  0  -0.085674  0  4.031614  0  0  -0.088089  0  4.05514  0  0  -0.097145  -0.083933  0  4.015518  0
C  C53  1  0.52435379  0.19125771  0.39908548  1  0  -0.071113  0  3.781133  0  0  -0.085727  0  4.031585  0  0  -0.088139  0  4.055108  0  0  -0.097151  -0.083987  0  4.015491  0
C  C54  1  0.30322601  0.62053197  0.95925257  1  0  -0.144216  0  3.765822  0  0  -0.162751  0  4.017059  0  0  -0.166019  0  4.038037  0  0  -0.095664  -0.160818  0  4.002769  0
C  C55  1  0.37946681  0.69677695  0.54075231  1  0  -0.144001  0  3.76585  0  0  -0.162561  0  4.017069  0  0  -0.165829  0  4.038035  0  0  -0.095581  -0.160626  0  4.002776  0
C  C56  1  0.69677965  0.37946993  0.04074945  1  0  -0.144127  0  3.766008  0  0  -0.162711  0  4.017233  0  0  -0.16598  0  4.038214  0  0  -0.095619  -0.160775  0  4.002943  0
C  C57  1  0.62053091  0.30322296  0.45925110  1  0  -0.144184  0  3.765889  0  0  -0.162765  0  4.017112  0  0  -0.166036  0  4.038085  0  0  -0.095654  -0.160829  0  4.002822  0
C  C58  1  0.41637987  0.60460345  0.94030047  1  0  0.106624  0  3.761772  0  0  0.096438  0  4.004253  0  0  0.100501  0  4.026204  0  0  0.092142  0.094046  0  3.989049  0
C  C59  1  0.39539236  0.58362086  0.55970036  1  0  0.106654  0  3.761687  0  0  0.096461  0  4.004151  0  0  0.100535  0  4.026091  0  0  0.092184  0.094065  0  3.988948  0
C  C60  1  0.58362555  0.39539750  0.05969924  1  0  0.106471  0  3.761825  0  0  0.096385  0  4.004226  0  0  0.100446  0  4.026189  0  0  0.092117  0.093989  0  3.989024  0
C  C61  1  0.60460233  0.41637807  0.44030154  1  0  0.106576  0  3.761843  0  0  0.096469  0  4.004251  0  0  0.100541  0  4.026191  0  0  0.092164  0.094072  0  3.989052  0
C  C62  1  0.61561103  0.61362562  0.94000157  1  0  0.192881  0  3.686176  0  0  0.125859  0  3.966628  0  0  0.143071  0  3.97835  0  0  0.156896  0.114696  0  3.95829  0
C  C63  1  0.38637311  0.38438580  0.55999905  1  0  0.192895  0  3.685988  0  0  0.125849  0  3.966419  0  0  0.14306  0  3.978147  0  0  0.156911  0.114682  0  3.958087  0
C  C64  1  0.38439303  0.38637723  0.05999894  1  0  0.192618  0  3.686218  0  0  0.125615  0  3.966668  0  0  0.142822  0  3.978398  0  0  0.156752  0.114449  0  3.958335  0
C  C65  1  0.61362530  0.61561316  0.44000225  1  0  0.192816  0  3.685998  0  0  0.12581  0  3.966446  0  0  0.143023  0  3.978175  0  0  0.156924  0.114643  0  3.958116  0
C  C66  1  0.58931758  0.79937504  0.06861220  1  0  -0.030613  0  3.658248  0  0  -0.0982  0  3.908891  0  0  -0.092846  0  3.91901  0  0  -0.043838  -0.101484  0  3.901725  0
C  C67  1  0.20062010  0.41068393  0.43138715  1  0  -0.030468  0  3.658224  0  0  -0.098028  0  3.908784  0  0  -0.092693  0  3.918908  0  0  -0.043773  -0.101305  0  3.901607  0
C  C68  1  0.41068437  0.20062684  0.93138768  1  0  -0.030553  0  3.658287  0  0  -0.098181  0  3.90896  0  0  -0.092817  0  3.919079  0  0  -0.043811  -0.10148  0  3.901804  0
C  C69  1  0.79937762  0.58931598  0.56861558  1  0  -0.030474  0  3.658141  0  0  -0.098089  0  3.908794  0  0  -0.092739  0  3.918913  0  0  -0.043784  -0.101359  0  3.901604  0
C  C70  1  0.54389483  0.90400066  0.03337480  1  0  0.060473  0  3.758704  0  0  0.07963  0  3.997882  0  0  0.078247  0  4.02299  0  0  -0.016546  0.08055  0  3.980814  0
C  C71  1  0.09599845  0.45610284  0.46662404  1  0  0.060504  0  3.758706  0  0  0.07964  0  3.997902  0  0  0.078255  0  4.023018  0  0  -0.016524  0.080556  0  3.98083  0
C  C72  1  0.45610342  0.09600120  0.96662294  1  0  0.060457  0  3.758683  0  0  0.079572  0  3.997932  0  0  0.078189  0  4.023039  0  0  -0.016587  0.080492  0  3.980866  0
C  C73  1  0.90399760  0.54389419  0.53337638  1  0  0.06049  0  3.758867  0  0  0.079653  0  3.998045  0  0  0.078266  0  4.023161  0  0  -0.016531  0.080568  0  3.980972  0
C  C74  1  0.48128058  0.97991484  0.08638889  1  0  -0.114136  0  3.762485  0  0  -0.129279  0  4.00245  0  0  -0.132447  0  4.025203  0  0  -0.092269  -0.126987  0  3.986969  0
C  C75  1  0.02008104  0.51872088  0.41361026  1  0  -0.114239  0  3.762421  0  0  -0.129359  0  4.002413  0  0  -0.132524  0  4.025156  0  0  -0.092287  -0.127066  0  3.986929  0
C  C76  1  0.51871854  0.02008320  0.91360618  1  0  -0.114296  0  3.762399  0  0  -0.129436  0  4.002395  0  0  -0.132604  0  4.025143  0  0  -0.092313  -0.127142  0  3.986909  0
C  C77  1  0.97991223  0.48127613  0.58639026  1  0  -0.114176  0  3.762401  0  0  -0.129304  0  4.002371  0  0  -0.132471  0  4.025121  0  0  -0.092244  -0.127012  0  3.98689  0
C  C78  1  0.56204219  0.92465850  0.94678287  1  0  -0.105427  0  3.760428  0  0  -0.126874  0  4.00667  0  0  -0.129099  0  4.028928  0  0  -0.09397  -0.125367  0  3.991338  0
C  C79  1  0.07533810  0.43795426  0.55321525  1  0  -0.105462  0  3.760334  0  0  -0.126919  0  4.006584  0  0  -0.129149  0  4.028847  0  0  -0.094013  -0.125417  0  3.991251  0
C  C80  1  0.43795624  0.07534049  0.05321362  1  0  -0.105449  0  3.760476  0  0  -0.126856  0  4.006711  0  0  -0.129087  0  4.028974  0  0  -0.093958  -0.125355  0  3.991378  0
C  C81  1  0.92465609  0.56204274  0.44678752  1  0  -0.105411  0  3.760618  0  0  -0.126874  0  4.006833  0  0  -0.129104  0  4.029096  0  0  -0.093939  -0.125366  0  3.991503  0
N  N82  1  0.54355375  0.67650398  0.98715430  1  0  -0.117747  0  3.535936  0  0  -0.028271  0  3.760091  0  0  -0.045448  0  3.784862  0  0  -0.238723  -0.017113  0  3.742979  0
N  N83  1  0.32349167  0.45644814  0.51284624  1  0  -0.11804  0  3.535791  0  0  -0.028462  0  3.75983  0  0  -0.045646  0  3.784608  0  0  -0.238844  -0.017305  0  3.742711  0
N  N84  1  0.45645216  0.32349888  0.01284728  1  0  -0.117634  0  3.535916  0  0  -0.028139  0  3.759999  0  0  -0.045316  0  3.784772  0  0  -0.238655  -0.016978  0  3.742888  0
N  N85  1  0.67650302  0.54355079  0.48715566  1  0  -0.117838  0  3.535586  0  0  -0.028347  0  3.759687  0  0  -0.045531  0  3.78446  0  0  -0.238774  -0.017193  0  3.742572  0
N  N86  1  0.54506230  0.50590256  0.86656038  1  0  -0.393463  0  3.208244  0  0  -0.330122  0  3.498981  0  0  -0.352339  0  3.516807  0  0  -0.337227  -0.315003  0  3.486005  0
N  N87  1  0.49409705  0.45493807  0.63343922  1  0  -0.393465  0  3.208417  0  0  -0.330081  0  3.499147  0  0  -0.352298  0  3.516974  0  0  -0.337224  -0.314956  0  3.486158  0
N  N88  1  0.45494293  0.49410126  0.13344057  1  0  -0.393438  0  3.207992  0  0  -0.330112  0  3.498838  0  0  -0.352308  0  3.51663  0  0  -0.337277  -0.314996  0  3.485865  0
N  N89  1  0.50590111  0.54505993  0.36656114  1  0  -0.393523  0  3.208339  0  0  -0.330138  0  3.499084  0  0  -0.352349  0  3.516894  0  0  -0.337293  -0.315011  0  3.486088  0
Cl  Cl90  1  0.84433851  0.50543341  0.80819621  1  0  -0.512475  0  0.900298  0  0  -0.456019  0  1.144658  0  0  -0.47266  0  1.124694  0  0  -0.306396  -0.444882  0  1.158309  0
Cl  Cl91  1  0.49456401  0.15566562  0.69180820  1  0  -0.512457  0  0.900268  0  0  -0.456011  0  1.144631  0  0  -0.472647  0  1.124667  0  0  -0.306392  -0.444871  0  1.158283  0
Cl  Cl92  1  0.15566448  0.49456176  0.19180456  1  0  -0.512484  0  0.900286  0  0  -0.456038  0  1.144653  0  0  -0.472677  0  1.124689  0  0  -0.306398  -0.4449  0  1.158303  0
Cl  Cl93  1  0.50542409  0.84434000  0.30818616  1  0  -0.512486  0  0.900256  0  0  -0.456036  0  1.144616  0  0  -0.472671  0  1.124646  0  0  -0.306392  -0.444899  0  1.158268  0
