# generated using pymatgen
data_CoH14C14N4(ClO)2
_symmetry_space_group_name_H-M   'P 1'
_cell_length_a   7.34361301
_cell_length_b   11.93027449
_cell_length_c   22.53510148
_cell_angle_alpha   89.99997040
_cell_angle_beta   90.00007071
_cell_angle_gamma   90.00020916
_symmetry_Int_Tables_number   1
_chemical_formula_structural   CoH14C14N4(ClO)2
_chemical_formula_sum   'Co4 H56 C56 N16 Cl8 O8'
_cell_volume   1974.32996382
_cell_formula_units_Z   4
loop_
 _symmetry_equiv_pos_site_id
 _symmetry_equiv_pos_as_xyz
  1  'x, y, z'
loop_
 _atom_site_type_symbol
 _atom_site_label
 _atom_site_symmetry_multiplicity
 _atom_site_fract_x
 _atom_site_fract_y
 _atom_site_fract_z
 _atom_site_occupancy
 _atom_site_pbe_bader_charge
 _atom_site_pbe_bader_spin_density
 _atom_site_pbe_cm5_charge
 _atom_site_pbe_ddec_charge
 _atom_site_pbe_ddec_spin_density
 _atom_site_pbe_ddec_sum_bond_order
 _atom_site_pbe_magmom
Co  Co0  1  0.24999972  0.50000015  0.74271153  1  1.064455  2.492858  0.542166  0.634605  2.739011  2.865649  2.425
Co  Co1  1  0.24999986  0.99999954  0.75728827  1  1.064472  2.492852  0.542165  0.634627  2.739005  2.86566  2.425
Co  Co2  1  0.74999927  0.50000011  0.25728803  1  1.06445  2.492856  0.542195  0.634673  2.739004  2.865594  2.425
Co  Co3  1  0.75000049  0.00000073  0.24271173  1  1.064474  2.492857  0.54217  0.634634  2.739009  2.865658  2.425
H  H4  1  0.49773376  0.98994549  0.90603982  1  0.499224  0.000468  0.298688  0.263396  0.00016  0.992261  0.0
H  H5  1  0.00226902  0.01005381  0.90603985  1  0.499204  0.000468  0.29866  0.263357  0.000159  0.992281  0.0
H  H6  1  0.00226713  0.48994569  0.59395998  1  0.499231  0.000468  0.298673  0.263372  0.000159  0.992277  0.0
H  H7  1  0.49773311  0.51005392  0.59396008  1  0.499229  0.000468  0.298672  0.263369  0.000159  0.992283  0.0
H  H8  1  0.50226660  0.01005394  0.09396018  1  0.499228  0.000468  0.29869  0.263361  0.000159  0.992294  0.0
H  H9  1  0.99773269  0.98994645  0.09396015  1  0.499235  0.000468  0.298674  0.263368  0.000159  0.992282  0.0
H  H10  1  0.99773323  0.51005457  0.40603957  1  0.499289  0.000468  0.298671  0.263367  0.00016  0.992304  0.0
H  H11  1  0.50226588  0.48994635  0.40603992  1  0.499236  0.000468  0.298673  0.263377  0.000159  0.992287  0.0
H  H12  1  0.14044667  0.66357040  0.83471284  1  0.07562  0.003177  0.115079  0.083408  0.001308  0.998965  0.002
H  H13  1  0.35955175  0.33643065  0.83471249  1  0.075637  0.003177  0.115093  0.083422  0.001308  0.998955  0.002
H  H14  1  0.35955228  0.16356882  0.66528660  1  0.075628  0.003177  0.115069  0.083409  0.001308  0.998984  0.002
H  H15  1  0.14044686  0.83642820  0.66528691  1  0.075618  0.003177  0.115072  0.083417  0.001308  0.998956  0.002
H  H16  1  0.85955232  0.33642986  0.16528760  1  0.075632  0.003177  0.115058  0.08337  0.001308  0.998959  0.002
H  H17  1  0.64044588  0.66357045  0.16528751  1  0.075616  0.003177  0.115087  0.083421  0.001308  0.998919  0.002
H  H18  1  0.64044807  0.83642976  0.33471251  1  0.075637  0.003177  0.115098  0.083417  0.001308  0.998944  0.002
H  H19  1  0.85955349  0.16357039  0.33471264  1  0.075623  0.003177  0.115083  0.083408  0.001308  0.998977  0.002
H  H20  1  0.29146415  0.80087752  0.90132804  1  0.166601  0.000777  0.109389  0.138838  0.000292  1.036122  0.0
H  H21  1  0.20853453  0.19912262  0.90132811  1  0.166609  0.000777  0.109381  0.138834  0.000292  1.036125  0.0
H  H22  1  0.20853562  0.30087651  0.59867137  1  0.166591  0.000777  0.109388  0.13888  0.000292  1.036082  0.0
H  H23  1  0.29146600  0.69912142  0.59867222  1  0.166638  0.000777  0.109365  0.138827  0.000292  1.036127  0.0
H  H24  1  0.70853484  0.19912107  0.09867240  1  0.16683  0.000777  0.109391  0.138863  0.000292  1.036058  0.0
H  H25  1  0.79146310  0.80088015  0.09867189  1  0.166987  0.000777  0.109381  0.138827  0.000292  1.036085  0.0
H  H26  1  0.79146338  0.69912124  0.40132819  1  0.166798  0.000777  0.109388  0.138867  0.000292  1.036071  0.0
H  H27  1  0.70853844  0.30087968  0.40132867  1  0.166829  0.000777  0.109381  0.138877  0.000292  1.036008  0.0
H  H28  1  0.80379463  0.70477892  0.82109200  1  0.102241  0.001822  0.104114  0.118227  0.000784  1.014763  0.001
H  H29  1  0.69620333  0.29522075  0.82109203  1  0.102221  0.001822  0.10411  0.118231  0.000784  1.014754  0.001
H  H30  1  0.69620552  0.20477780  0.67890719  1  0.102248  0.001822  0.1041  0.118205  0.000784  1.014768  0.001
H  H31  1  0.80379599  0.79522201  0.67890802  1  0.10223  0.001822  0.104107  0.118215  0.000784  1.014776  0.001
H  H32  1  0.19620300  0.29522050  0.17890756  1  0.102217  0.001822  0.104109  0.118228  0.000784  1.014742  0.001
H  H33  1  0.30379702  0.70478035  0.17890930  1  0.102229  0.001822  0.104083  0.118218  0.000784  1.01472  0.001
H  H34  1  0.30379756  0.79522078  0.32109192  1  0.102221  0.001822  0.104112  0.118233  0.000784  1.014738  0.001
H  H35  1  0.19620436  0.20477909  0.32109198  1  0.102242  0.001822  0.10411  0.118247  0.000784  1.014708  0.001
H  H36  1  0.63121966  0.56923703  0.75858949  1  0.12027  0.003097  0.102923  0.076856  0.001182  1.056125  0.001
H  H37  1  0.86877670  0.43076354  0.75858911  1  0.11977  0.003103  0.102909  0.076834  0.001182  1.056147  0.001
H  H38  1  0.86877969  0.06923624  0.74141018  1  0.12028  0.003098  0.102907  0.076803  0.001182  1.056184  0.001
H  H39  1  0.63121933  0.93076435  0.74141091  1  0.119783  0.003103  0.102911  0.076824  0.001182  1.056176  0.001
H  H40  1  0.36877661  0.43076323  0.24141051  1  0.119785  0.003103  0.102917  0.076849  0.001182  1.056149  0.001
H  H41  1  0.13122093  0.56923672  0.24141177  1  0.120242  0.003097  0.102902  0.076842  0.001182  1.056129  0.001
H  H42  1  0.13122203  0.93076318  0.25858893  1  0.119793  0.003102  0.102908  0.076821  0.001182  1.056153  0.001
H  H43  1  0.36877966  0.06923675  0.25858909  1  0.120266  0.003097  0.102915  0.076849  0.001182  1.056144  0.001
H  H44  1  0.73442465  0.79814378  0.94248037  1  0.130068  -8.7e-05  0.123447  0.119376  -9.1e-05  0.954795  0.0
H  H45  1  0.76557649  0.20185494  0.94248002  1  0.1301  -8.7e-05  0.123442  0.119366  -9.1e-05  0.95476  0.0
H  H46  1  0.76557333  0.29814377  0.55751924  1  0.130062  -8.7e-05  0.123448  0.119375  -9.1e-05  0.954767  0.0
H  H47  1  0.73442500  0.70185700  0.55752006  1  0.130078  -8.7e-05  0.123446  0.119364  -9.1e-05  0.954801  0.0
H  H48  1  0.26557434  0.20185481  0.05752007  1  0.130079  -8.7e-05  0.123453  0.119395  -9.1e-05  0.954789  0.0
H  H49  1  0.23442522  0.79814365  0.05752131  1  0.130079  -8.7e-05  0.123448  0.119391  -9.1e-05  0.954773  0.0
H  H50  1  0.23442703  0.70185649  0.44247943  1  0.130084  -8.7e-05  0.123452  0.119381  -9.1e-05  0.954811  0.0
H  H51  1  0.26557399  0.29814327  0.44247949  1  0.130081  -8.7e-05  0.123449  0.119366  -9.1e-05  0.954824  0.0
H  H52  1  0.77663424  0.88041355  0.87887959  1  0.094466  0.00161  0.099154  0.094975  0.000968  1.031077  0.0
H  H53  1  0.72336530  0.11958523  0.87887969  1  0.094459  0.00161  0.099163  0.094978  0.000968  1.031081  0.0
H  H54  1  0.72336694  0.38041255  0.62112044  1  0.094454  0.00161  0.099152  0.094958  0.000968  1.031092  0.0
H  H55  1  0.77663435  0.61958648  0.62112086  1  0.094436  0.00161  0.099155  0.094949  0.000968  1.031087  0.0
H  H56  1  0.22336339  0.11958504  0.12111996  1  0.094453  0.00161  0.099159  0.094994  0.000968  1.031057  0.0
H  H57  1  0.27663778  0.88041503  0.12112120  1  0.094431  0.00161  0.099161  0.094985  0.000968  1.031085  0.0
H  H58  1  0.27663613  0.61958604  0.37887912  1  0.094438  0.00161  0.099149  0.09495  0.000968  1.031107  0.0
H  H59  1  0.22336328  0.38041378  0.37887958  1  0.09445  0.00161  0.099144  0.094966  0.000968  1.031078  0.0
C  C60  1  0.28796401  0.67333229  0.83416439  1  0.450814  0.00109  0.04697  0.102395  0.000582  3.943313  0.001
C  C61  1  0.21203442  0.32666876  0.83416398  1  0.450815  0.00109  0.046908  0.102369  0.000583  3.943231  0.001
C  C62  1  0.21203501  0.17333121  0.66583461  1  0.4508  0.00109  0.047003  0.102413  0.000583  3.943431  0.001
C  C63  1  0.28796414  0.82666665  0.66583586  1  0.450827  0.001091  0.046982  0.102379  0.000583  3.943282  0.001
C  C64  1  0.71203499  0.32666714  0.16583649  1  0.450836  0.001091  0.046973  0.102478  0.000583  3.943207  0.001
C  C65  1  0.78796458  0.67333318  0.16583646  1  0.450829  0.001091  0.046933  0.10239  0.000583  3.943323  0.001
C  C66  1  0.78796671  0.82666737  0.33416406  1  0.450289  0.001092  0.046969  0.102471  0.000582  3.943324  0.001
C  C67  1  0.71203485  0.17333362  0.33416413  1  0.450841  0.00109  0.046925  0.10236  0.000582  3.943337  0.001
C  C68  1  0.37336641  0.75027192  0.87113117  1  -0.03202  0.005749  -0.082742  -0.175447  0.00293  3.912894  0.004
C  C69  1  0.12663216  0.24972742  0.87113075  1  -0.031985  0.005749  -0.082724  -0.175393  0.00293  3.912785  0.004
C  C70  1  0.12663170  0.25027069  0.62886736  1  -0.032013  0.005749  -0.082776  -0.175526  0.00293  3.912882  0.004
C  C71  1  0.37336731  0.74972721  0.62886867  1  -0.032066  0.005749  -0.082749  -0.175445  0.00293  3.912873  0.004
C  C72  1  0.62663259  0.24972583  0.12886971  1  -0.032184  0.005749  -0.08276  -0.17549  0.00293  3.912809  0.004
C  C73  1  0.87336411  0.75027368  0.12886925  1  -0.032393  0.005749  -0.082707  -0.175387  0.00293  3.91291  0.004
C  C74  1  0.87336729  0.74972790  0.37113219  1  -0.031681  0.005748  -0.082751  -0.175493  0.00293  3.912836  0.004
C  C75  1  0.62663305  0.25027222  0.37113266  1  -0.032306  0.00575  -0.082708  -0.175418  0.00293  3.912693  0.004
C  C76  1  0.56252809  0.76234227  0.86789492  1  0.00706  -0.001547  0.017062  0.15173  -0.00151  3.916787  -0.001
C  C77  1  0.93747005  0.23765652  0.86789418  1  0.007055  -0.001546  0.017107  0.151731  -0.001509  3.916721  -0.001
C  C78  1  0.93747104  0.26234258  0.63210425  1  0.007054  -0.001546  0.017084  0.151797  -0.001509  3.916835  -0.001
C  C79  1  0.56252893  0.73765645  0.63210589  1  0.007048  -0.001546  0.017078  0.151714  -0.001509  3.91675  -0.001
C  C80  1  0.43746954  0.23765632  0.13210552  1  0.006994  -0.001545  0.017077  0.15171  -0.001508  3.916789  -0.001
C  C81  1  0.06252622  0.76234206  0.13210581  1  0.007033  -0.001546  0.017077  0.15172  -0.001509  3.916838  -0.001
C  C82  1  0.06252932  0.73765685  0.36789442  1  0.007069  -0.001546  0.017095  0.15174  -0.001509  3.916796  -0.001
C  C83  1  0.43747278  0.26234382  0.36789456  1  0.007064  -0.001546  0.017087  0.151715  -0.001509  3.916888  -0.001
C  C84  1  0.65708073  0.69588961  0.82691622  1  -0.005797  0.00425  -0.085947  -0.17883  0.002174  3.948937  0.003
C  C85  1  0.84291862  0.30410922  0.82691586  1  -0.005797  0.00425  -0.085966  -0.178862  0.002174  3.948958  0.003
C  C86  1  0.84291937  0.19588882  0.67308298  1  -0.005799  0.00425  -0.085957  -0.178894  0.002174  3.949094  0.003
C  C87  1  0.65708076  0.80411016  0.67308419  1  -0.005785  0.00425  -0.085954  -0.178818  0.002174  3.948895  0.003
C  C88  1  0.34291826  0.30410814  0.17308378  1  -0.005554  0.00425  -0.08597  -0.178867  0.002174  3.948863  0.003
C  C89  1  0.15708038  0.69589104  0.17308458  1  -0.005781  0.00425  -0.08591  -0.178817  0.002174  3.948862  0.003
C  C90  1  0.15708099  0.80410976  0.32691613  1  -0.005809  0.00425  -0.085963  -0.178856  0.002174  3.949008  0.003
C  C91  1  0.34292096  0.19589010  0.32691625  1  -0.005789  0.00425  -0.085969  -0.178891  0.002174  3.949091  0.003
C  C92  1  0.56263783  0.62083844  0.79159975  1  0.399598  0.001546  0.036442  0.085731  0.001154  3.959205  0.002
C  C93  1  0.93736002  0.37916211  0.79159941  1  0.399596  0.001546  0.036487  0.085832  0.001153  3.959135  0.002
C  C94  1  0.93736319  0.12083867  0.70839947  1  0.399983  0.001547  0.036461  0.08582  0.001154  3.959334  0.002
C  C95  1  0.56263707  0.87916279  0.70840018  1  0.399973  0.001547  0.036463  0.08578  0.001154  3.959196  0.002
C  C96  1  0.43736252  0.37916099  0.20840070  1  0.399394  0.001546  0.036514  0.085815  0.001154  3.959069  0.002
C  C97  1  0.06263897  0.62083983  0.20840147  1  0.399609  0.001546  0.036494  0.085814  0.001153  3.959074  0.002
C  C98  1  0.06264125  0.87916076  0.29159964  1  0.399947  0.001547  0.036487  0.085854  0.001153  3.959081  0.002
C  C99  1  0.43736056  0.12083915  0.29159982  1  0.399964  0.001547  0.036456  0.085765  0.001154  3.959224  0.002
C  C100  1  0.66722210  0.84336314  0.90592228  1  0.2947  0.002664  -0.051586  -0.064814  0.001426  3.922942  0.002
C  C101  1  0.83277891  0.15663646  0.90592196  1  0.294685  0.002664  -0.051598  -0.064829  0.001426  3.922944  0.002
C  C102  1  0.83277750  0.34336324  0.59407732  1  0.294806  0.002664  -0.051576  -0.064785  0.001427  3.922909  0.002
C  C103  1  0.66722232  0.65663749  0.59407813  1  0.294919  0.002664  -0.051587  -0.064777  0.001427  3.922905  0.002
C  C104  1  0.33277825  0.15663629  0.09407772  1  0.294696  0.002664  -0.0516  -0.064873  0.001427  3.923004  0.002
C  C105  1  0.16722145  0.84336381  0.09407893  1  0.294957  0.002664  -0.05162  -0.064926  0.001427  3.923022  0.002
C  C106  1  0.16722421  0.65663618  0.40592179  1  0.295003  0.002664  -0.051627  -0.064845  0.001427  3.923004  0.002
C  C107  1  0.33277667  0.34336361  0.40592231  1  0.295007  0.002664  -0.051589  -0.064791  0.001427  3.922999  0.002
C  C108  1  0.55058107  0.94603453  0.99138402  1  1.429414  0.000302  0.236855  0.382022  0.000187  4.157944  0.0
C  C109  1  0.94941890  0.05396498  0.99138378  1  1.429122  0.000302  0.2369  0.382114  0.000187  4.15782  0.0
C  C110  1  0.94941914  0.44603415  0.50861555  1  1.429235  0.000301  0.236906  0.382123  0.000187  4.157839  0.0
C  C111  1  0.55058172  0.55396583  0.50861589  1  1.42913  0.000302  0.236905  0.382121  0.000187  4.157825  0.0
C  C112  1  0.44941792  0.05396489  0.00861553  1  1.456277  0.0003  0.236946  0.382187  0.000187  4.157771  0.0
C  C113  1  0.05058282  0.94603445  0.00861666  1  1.456293  0.0003  0.236841  0.382033  0.000187  4.157996  0.0
C  C114  1  0.05058257  0.55396528  0.49138357  1  1.455803  0.0003  0.236924  0.382164  0.000187  4.157754  0.0
C  C115  1  0.44941727  0.44603443  0.49138366  1  1.456299  0.0003  0.236922  0.382166  0.000187  4.157794  0.0
N  N116  1  0.37963524  0.60883599  0.79499575  1  -1.227444  0.077276  -0.349045  -0.243361  0.040132  3.662739  0.053
N  N117  1  0.12036167  0.39116510  0.79499572  1  -1.227447  0.077277  -0.349042  -0.243446  0.040133  3.662772  0.053
N  N118  1  0.12036475  0.10883551  0.70500371  1  -1.227447  0.077276  -0.349071  -0.243406  0.040132  3.662829  0.053
N  N119  1  0.37963590  0.89116399  0.70500410  1  -1.227453  0.077278  -0.349066  -0.243406  0.040133  3.662827  0.053
N  N120  1  0.62036239  0.39116344  0.20500469  1  -1.227469  0.077279  -0.349072  -0.243434  0.040134  3.662779  0.053
N  N121  1  0.87963460  0.60883684  0.20500472  1  -1.227442  0.077277  -0.349091  -0.243493  0.040135  3.662859  0.053
N  N122  1  0.87963560  0.89116308  0.29499584  1  -1.227417  0.077276  -0.349091  -0.243522  0.040134  3.662802  0.053
N  N123  1  0.62036581  0.10883795  0.29499590  1  -1.227421  0.077276  -0.349052  -0.243399  0.040133  3.662781  0.053
N  N124  1  0.55937631  0.93112209  0.93236499  1  -1.266912  0.000911  -0.413038  -0.315572  0.000358  3.617882  0.001
N  N125  1  0.94062479  0.06887664  0.93236474  1  -1.267314  0.000911  -0.413018  -0.315525  0.000358  3.617798  0.001
N  N126  1  0.94062381  0.43112247  0.56763547  1  -1.267236  0.000911  -0.413016  -0.315569  0.000358  3.617846  0.001
N  N127  1  0.55937591  0.56887746  0.56763537  1  -1.267123  0.00091  -0.413018  -0.315542  0.000358  3.617803  0.001
N  N128  1  0.44062404  0.06887650  0.06763501  1  -1.266919  0.00091  -0.413076  -0.315538  0.000358  3.617812  0.001
N  N129  1  0.05937828  0.93112278  0.06763526  1  -1.267556  0.000911  -0.412972  -0.315419  0.000358  3.617918  0.001
N  N130  1  0.05937791  0.56887696  0.43236453  1  -1.267519  0.000911  -0.413019  -0.315554  0.000358  3.617855  0.001
N  N131  1  0.44062308  0.43112281  0.43236462  1  -1.26726  0.000911  -0.413019  -0.315575  0.000358  3.617869  0.001
Cl  Cl132  1  0.02895065  0.58516729  0.69317719  1  -0.630947  0.14949  -0.276  -0.471744  0.078027  1.301935  0.096
Cl  Cl133  1  0.47104724  0.41483222  0.69317730  1  -0.631012  0.14949  -0.27598  -0.471734  0.078027  1.301941  0.096
Cl  Cl134  1  0.47104648  0.08516666  0.80682272  1  -0.63095  0.149491  -0.275978  -0.471738  0.078027  1.301959  0.096
Cl  Cl135  1  0.02895320  0.91483190  0.80682252  1  -0.631017  0.149492  -0.275982  -0.471744  0.078027  1.301955  0.096
Cl  Cl136  1  0.97104698  0.41483298  0.30682236  1  -0.630938  0.149488  -0.275982  -0.471742  0.078026  1.301947  0.096
Cl  Cl137  1  0.52895175  0.58516720  0.30682270  1  -0.630937  0.149484  -0.27598  -0.471745  0.078024  1.301926  0.096
Cl  Cl138  1  0.52895251  0.91483276  0.19317772  1  -0.631015  0.149489  -0.275986  -0.471732  0.078025  1.301951  0.096
Cl  Cl139  1  0.97104716  0.08516836  0.19317748  1  -0.631022  0.149493  -0.275986  -0.471756  0.078028  1.301959  0.096
O  O140  1  0.61701911  0.88254031  0.02935776  1  -1.152184  0.000974  -0.302873  -0.484518  0.000433  2.16526  0.001
O  O141  1  0.88298130  0.11745846  0.02935792  1  -1.152164  0.000974  -0.302901  -0.484565  0.000433  2.165179  0.001
O  O142  1  0.88298156  0.38254184  0.47064234  1  -1.152184  0.000974  -0.302891  -0.484558  0.000433  2.165263  0.001
O  O143  1  0.61701916  0.61745818  0.47064225  1  -1.152184  0.000974  -0.302907  -0.484568  0.000433  2.165226  0.001
O  O144  1  0.38298125  0.11745828  0.97064180  1  -1.152183  0.000974  -0.302916  -0.484606  0.000433  2.165195  0.001
O  O145  1  0.11702042  0.88254012  0.97064208  1  -1.152479  0.000974  -0.302879  -0.484554  0.000433  2.165215  0.001
O  O146  1  0.11702016  0.61745926  0.52935811  1  -1.152176  0.000974  -0.302907  -0.484579  0.000433  2.165142  0.001
O  O147  1  0.38297983  0.38254125  0.52935819  1  -1.152181  0.000974  -0.302899  -0.484582  0.000433  2.165205  0.001
