# generated using pymatgen
data_AgH14C16NO2F
_symmetry_space_group_name_H-M   'P 1'
_cell_length_a   5.40285154
_cell_length_b   10.08028437
_cell_length_c   13.12104079
_cell_angle_alpha   87.77571346
_cell_angle_beta   84.57031008
_cell_angle_gamma   78.46374578
_symmetry_Int_Tables_number   1
_chemical_formula_structural   AgH14C16NO2F
_chemical_formula_sum   'Ag2 H28 C32 N2 O4 F2'
_cell_volume   696.87917036
_cell_formula_units_Z   2
loop_
 _symmetry_equiv_pos_site_id
 _symmetry_equiv_pos_as_xyz
  1  'x, y, z'
loop_
 _atom_site_type_symbol
 _atom_site_label
 _atom_site_symmetry_multiplicity
 _atom_site_fract_x
 _atom_site_fract_y
 _atom_site_fract_z
 _atom_site_occupancy
 _atom_site_hle17_bader_spin_density
 _atom_site_hle17_ddec_charge
 _atom_site_hle17_ddec_spin_density
 _atom_site_hle17_ddec_sum_bond_order
 _atom_site_hle17_magmom
 _atom_site_hse06_10hf_bader_spin_density
 _atom_site_hse06_10hf_ddec_charge
 _atom_site_hse06_10hf_ddec_spin_density
 _atom_site_hse06_10hf_ddec_sum_bond_order
 _atom_site_hse06_10hf_magmom
 _atom_site_hse06_bader_spin_density
 _atom_site_hse06_ddec_charge
 _atom_site_hse06_ddec_spin_density
 _atom_site_hse06_ddec_sum_bond_order
 _atom_site_hse06_magmom
 _atom_site_pbe_bader_spin_density
 _atom_site_pbe_cm5_charge
 _atom_site_pbe_ddec_charge
 _atom_site_pbe_ddec_spin_density
 _atom_site_pbe_ddec_sum_bond_order
 _atom_site_pbe_magmom
Ag  Ag0  1  0.73831093  0.91336208  0.51228357  1  0  0.547417  0  1.450675  0  0  0.425523  0  1.916873  0  0  0.460724  0  1.855808  0  0  0.418915  0.401423  0  1.958761  0
Ag  Ag1  1  0.26170385  0.08667116  0.48771602  1  0  0.547336  0  1.450851  0  0  0.425459  0  1.916991  0  0  0.460634  0  1.855973  0  0  0.418885  0.401356  0  1.958879  0
H  H2  1  0.99433613  0.61899387  0.75217545  1  0  0.059773  0  0.941145  0  0  0.069281  0  1.010678  0  0  0.071657  0  1.007848  0  0  0.108747  0.067636  0  1.012648  0
H  H3  1  0.00567540  0.38101278  0.24781163  1  0  0.059704  0  0.941111  0  0  0.069187  0  1.010708  0  0  0.071561  0  1.00788  0  0  0.108744  0.067542  0  1.012678  0
H  H4  1  0.41676045  0.84474910  0.01567373  1  0  0.125133  0  0.943563  0  0  0.134305  0  1.003009  0  0  0.137262  0  1.002759  0  0  0.108321  0.132237  0  1.003225  0
H  H5  1  0.58322050  0.15524007  0.98431088  1  0  0.125359  0  0.943564  0  0  0.134571  0  1.002942  0  0  0.137543  0  1.002686  0  0  0.108379  0.132491  0  1.003166  0
H  H6  1  0.03766198  0.96169854  0.92645194  1  0  0.086152  0  0.956045  0  0  0.098105  0  1.014597  0  0  0.100562  0  1.013323  0  0  0.101171  0.096413  0  1.015407  0
H  H7  1  0.96232196  0.03830688  0.07353188  1  0  0.086139  0  0.956289  0  0  0.098066  0  1.014849  0  0  0.100529  0  1.01356  0  0  0.101097  0.096366  0  1.015674  0
H  H8  1  0.04759677  0.95241535  0.73625497  1  0  0.108583  0  0.970834  0  0  0.115038  0  1.036171  0  0  0.118332  0  1.034921  0  0  0.103228  0.112779  0  1.036925  0
H  H9  1  0.95241313  0.04759927  0.26372196  1  0  0.108596  0  0.970893  0  0  0.114993  0  1.036306  0  0  0.118295  0  1.035029  0  0  0.103255  0.112734  0  1.03706  0
H  H10  1  0.43021911  0.83138133  0.63632576  1  0  0.075937  0  1.002753  0  0  0.078489  0  1.090299  0  0  0.08332  0  1.082952  0  0  0.0912  0.074805  0  1.095862  0
H  H11  1  0.56979357  0.16862738  0.36366347  1  0  0.076022  0  1.002361  0  0  0.078569  0  1.089927  0  0  0.083398  0  1.082584  0  0  0.091239  0.074896  0  1.095481  0
H  H12  1  0.25753870  0.56593381  0.61974575  1  0  0.042949  0  0.951812  0  0  0.061881  0  1.017255  0  0  0.06205  0  1.017467  0  0  0.094128  0.061654  0  1.017159  0
H  H13  1  0.74244707  0.43406138  0.38023153  1  0  0.043012  0  0.951806  0  0  0.061899  0  1.01729  0  0  0.062067  0  1.017507  0  0  0.094119  0.061683  0  1.01718  0
H  H14  1  0.27563708  0.70047285  0.52895200  1  0  0.065658  0  0.943168  0  0  0.084384  0  1.00666  0  0  0.08382  0  1.007221  0  0  0.103464  0.084529  0  1.006487  0
H  H15  1  0.72437613  0.29952467  0.47103537  1  0  0.065735  0  0.943323  0  0  0.084502  0  1.006751  0  0  0.083951  0  1.007312  0  0  0.103462  0.084646  0  1.006582  0
H  H16  1  0.98091012  0.62047883  0.42334311  1  0  0.078594  0  0.947896  0  0  0.095218  0  1.013109  0  0  0.09619  0  1.013344  0  0  0.090407  0.094311  0  1.013261  0
H  H17  1  0.01913611  0.37951361  0.57662924  1  0  0.078734  0  0.947691  0  0  0.09531  0  1.013012  0  0  0.096291  0  1.013243  0  0  0.090436  0.094399  0  1.013163  0
H  H18  1  0.25913663  0.49735228  0.43902262  1  0  0.070028  0  0.936967  0  0  0.091036  0  0.993777  0  0  0.090864  0  0.995973  0  0  0.090539  0.09107  0  0.992329  0
H  H19  1  0.74089152  0.50264931  0.56095857  1  0  0.070029  0  0.936724  0  0  0.091101  0  0.993508  0  0  0.090961  0  0.995662  0  0  0.090536  0.091138  0  0.992055  0
H  H20  1  0.03907306  0.15743561  0.74539340  1  0  0.100362  0  0.984926  0  0  0.109317  0  1.049989  0  0  0.112184  0  1.048596  0  0  0.101314  0.107178  0  1.051113  0
H  H21  1  0.96091651  0.84255013  0.25463364  1  0  0.100288  0  0.985119  0  0  0.10929  0  1.050089  0  0  0.112154  0  1.048704  0  0  0.101367  0.10715  0  1.051214  0
H  H22  1  0.07807120  0.29223888  0.89557548  1  0  0.087581  0  0.974493  0  0  0.096465  0  1.036145  0  0  0.099562  0  1.035158  0  0  0.093807  0.094213  0  1.036989  0
H  H23  1  0.92191297  0.70773784  0.10446208  1  0  0.087549  0  0.974591  0  0  0.096419  0  1.036306  0  0  0.099518  0  1.035314  0  0  0.093772  0.094183  0  1.037135  0
H  H24  1  0.72738378  0.47960781  0.95429217  1  0  0.085664  0  0.968434  0  0  0.094955  0  1.032918  0  0  0.09802  0  1.030901  0  0  0.09556  0.092749  0  1.034319  0
H  H25  1  0.27260464  0.52037192  0.04574126  1  0  0.085699  0  0.968073  0  0  0.094835  0  1.032747  0  0  0.097901  0  1.030728  0  0  0.095472  0.092623  0  1.034163  0
H  H26  1  0.33184161  0.52981795  0.86403166  1  0  0.084522  0  0.959374  0  0  0.094143  0  1.023708  0  0  0.096961  0  1.022892  0  0  0.095036  0.092202  0  1.024301  0
H  H27  1  0.66815290  0.47016597  0.13600819  1  0  0.084254  0  0.959376  0  0  0.093917  0  1.023724  0  0  0.096732  0  1.022903  0  0  0.094919  0.091974  0  1.024319  0
H  H28  1  0.28477880  0.38308583  0.72065297  1  0  0.090633  0  0.979654  0  0  0.097986  0  1.049542  0  0  0.1012  0  1.047199  0  0  0.099347  0.095628  0  1.051392  0
H  H29  1  0.71522061  0.61691832  0.27937897  1  0  0.090549  0  0.979524  0  0  0.097925  0  1.049417  0  0  0.101151  0  1.047036  0  0  0.099339  0.095565  0  1.051268  0
C  C30  1  0.86975812  0.69671076  0.70917842  1  0  0.146305  0  3.702651  0  0  0.108463  0  3.956808  0  0  0.118741  0  3.971917  0  0  0.081243  0.101311  0  3.946747  0
C  C31  1  0.13025216  0.30328866  0.29080062  1  0  0.146279  0  3.702612  0  0  0.108418  0  3.956835  0  0  0.11869  0  3.971949  0  0  0.081241  0.10127  0  3.946771  0
C  C32  1  0.64235684  0.77088753  0.76692914  1  0  -0.074244  0  3.824879  0  0  -0.062401  0  4.062869  0  0  -0.068478  0  4.088162  0  0  -0.022422  -0.058185  0  4.045456  0
C  C33  1  0.35767223  0.22911209  0.23305590  1  0  -0.074088  0  3.824919  0  0  -0.062246  0  4.06288  0  0  -0.06831  0  4.088159  0  0  -0.022477  -0.058036  0  4.045474  0
C  C34  1  0.62751285  0.77649679  0.87395986  1  0  0.269162  0  3.753505  0  0  0.255702  0  4.027867  0  0  0.265193  0  4.040769  0  0  0.10256  0.249194  0  4.018706  0
C  C35  1  0.37246832  0.22350665  0.12602874  1  0  0.269353  0  3.753423  0  0  0.255885  0  4.027841  0  0  0.265368  0  4.040757  0  0  0.102739  0.24938  0  4.01867  0
C  C36  1  0.41669161  0.84468419  0.93266199  1  0  -0.197661  0  3.773969  0  0  -0.223104  0  4.033134  0  0  -0.228204  0  4.052606  0  0  -0.10464  -0.219847  0  4.020066  0
C  C37  1  0.58328715  0.15531902  0.06731072  1  0  -0.19793  0  3.773703  0  0  -0.223422  0  4.032863  0  0  -0.228541  0  4.052355  0  0  -0.104782  -0.220149  0  4.019776  0
C  C38  1  0.20742491  0.90910512  0.88237225  1  0  -0.021067  0  3.749411  0  0  -0.039283  0  4.008257  0  0  -0.038077  0  4.027241  0  0  -0.081497  -0.040036  0  3.995539  0
C  C39  1  0.79259511  0.09089731  0.11760012  1  0  -0.021275  0  3.7488  0  0  -0.03946  0  4.007652  0  0  -0.038261  0  4.02665  0  0  -0.081549  -0.040211  0  3.994933  0
C  C40  1  0.21170392  0.90431124  0.77589126  1  0  -0.084876  0  3.753281  0  0  -0.103976  0  4.010649  0  0  -0.107802  0  4.032567  0  0  -0.097157  -0.101536  0  3.996042  0
C  C41  1  0.78830129  0.09569741  0.22409680  1  0  -0.084507  0  3.752911  0  0  -0.103566  0  4.010236  0  0  -0.107388  0  4.032163  0  0  -0.096949  -0.101129  0  3.995631  0
C  C42  1  0.42701176  0.83636335  0.71944052  1  0  -0.059325  0  3.721904  0  0  -0.079437  0  3.971714  0  0  -0.080301  0  3.992825  0  0  -0.078917  -0.078736  0  3.957607  0
C  C43  1  0.57301037  0.16364826  0.28053368  1  0  -0.059761  0  3.722202  0  0  -0.079849  0  3.972049  0  0  -0.080718  0  3.993161  0  0  -0.079125  -0.079157  0  3.957938  0
C  C44  1  0.15143878  0.63361249  0.56363812  1  0  0.020955  0  3.688832  0  0  -0.033854  0  3.952414  0  0  -0.029751  0  3.96619  0  0  -0.070134  -0.036351  0  3.942869  0
C  C45  1  0.84855209  0.36638883  0.43633945  1  0  0.020851  0  3.688943  0  0  -0.033918  0  3.952487  0  0  -0.02984  0  3.966301  0  0  -0.070096  -0.036422  0  3.942938  0
C  C46  1  0.08121507  0.55062491  0.47934055  1  0  -0.12171  0  3.659484  0  0  -0.161073  0  3.916921  0  0  -0.162875  0  3.93115  0  0  -0.166369  -0.159635  0  3.907026  0
C  C47  1  0.91880561  0.44937033  0.52062523  1  0  -0.121986  0  3.659511  0  0  -0.161563  0  3.917243  0  0  -0.163376  0  3.931462  0  0  -0.166483  -0.160114  0  3.907345  0
C  C48  1  0.61760919  0.17037798  0.64140909  1  0  0.632398  0  3.922847  0  0  0.581751  0  4.202468  0  0  0.617245  0  4.199075  0  0  0.201702  0.557846  0  4.203435  0
C  C49  1  0.38237396  0.82964205  0.35860314  1  0  0.632191  0  3.92289  0  0  0.581583  0  4.202431  0  0  0.61709  0  4.199049  0  0  0.201721  0.557677  0  4.203394  0
C  C50  1  0.65579814  0.25948709  0.72551921  1  0  -0.064871  0  3.748292  0  0  -0.033993  0  3.967522  0  0  -0.043004  0  3.991316  0  0  -0.018273  -0.028111  0  3.951159  0
C  C51  1  0.34418061  0.74050778  0.27451177  1  0  -0.064683  0  3.74826  0  0  -0.033756  0  3.96742  0  0  -0.042807  0  3.991269  0  0  -0.018332  -0.027873  0  3.951053  0
C  C52  1  0.88145956  0.23564025  0.77385277  1  0  -0.074495  0  3.727091  0  0  -0.096499  0  3.965611  0  0  -0.095545  0  3.985634  0  0  -0.087367  -0.096645  0  3.95144  0
C  C53  1  0.11852055  0.76435048  0.22617221  1  0  -0.074708  0  3.727331  0  0  -0.096726  0  3.965814  0  0  -0.095764  0  3.98585  0  0  -0.087475  -0.096872  0  3.951649  0
C  C54  1  0.90464217  0.31325975  0.85682323  1  0  -0.087899  0  3.787208  0  0  -0.095756  0  4.033811  0  0  -0.100174  0  4.055999  0  0  -0.09845  -0.092716  0  4.018528  0
C  C55  1  0.09535111  0.68672601  0.14320364  1  0  -0.087801  0  3.787609  0  0  -0.095696  0  4.034175  0  0  -0.10012  0  4.056381  0  0  -0.098367  -0.092668  0  4.01887  0
C  C56  1  0.70727492  0.41875380  0.88990840  1  0  -0.068559  0  3.773408  0  0  -0.086743  0  4.026783  0  0  -0.086838  0  4.04784  0  0  -0.095557  -0.086385  0  4.012112  0
C  C57  1  0.29272542  0.58122908  0.11012740  1  0  -0.068395  0  3.772971  0  0  -0.08641  0  4.026296  0  0  -0.086505  0  4.047354  0  0  -0.095329  -0.086054  0  4.011633  0
C  C58  1  0.48542124  0.44638425  0.83952536  1  0  -0.093318  0  3.798809  0  0  -0.105226  0  4.054053  0  0  -0.109593  0  4.076889  0  0  -0.100707  -0.102421  0  4.038527  0
C  C59  1  0.51455472  0.55360980  0.16052103  1  0  -0.092865  0  3.798736  0  0  -0.10481  0  4.053938  0  0  -0.10917  0  4.076773  0  0  -0.10053  -0.102007  0  4.038407  0
C  C60  1  0.45918741  0.36614236  0.75862684  1  0  -0.080771  0  3.759108  0  0  -0.103737  0  4.003341  0  0  -0.102857  0  4.02343  0  0  -0.090306  -0.104402  0  3.990055  0
C  C61  1  0.54078642  0.63385040  0.24140064  1  0  -0.080995  0  3.759261  0  0  -0.104034  0  4.003564  0  0  -0.103143  0  4.023678  0  0  -0.090428  -0.104696  0  3.990273  0
N  N62  1  0.92632460  0.71866059  0.61366649  1  0  -0.296043  0  3.141257  0  0  -0.220981  0  3.42118  0  0  -0.239819  0  3.437533  0  0  -0.328986  -0.208443  0  3.410138  0
N  N63  1  0.07369485  0.28133373  0.38630624  1  0  -0.295919  0  3.14087  0  0  -0.220825  0  3.420785  0  0  -0.23965  0  3.437122  0  0  -0.328978  -0.20829  0  3.409748  0
O  O64  1  0.80639565  0.07948915  0.60849418  1  0  -0.632954  0  2.111503  0  0  -0.552499  0  2.392107  0  0  -0.584929  0  2.37881  0  0  -0.328513  -0.529982  0  2.400341  0
O  O65  1  0.19358838  0.92054306  0.39151829  1  0  -0.632946  0  2.111583  0  0  -0.552508  0  2.392165  0  0  -0.584946  0  2.378868  0  0  -0.328517  -0.529988  0  2.400397  0
O  O66  1  0.39666108  0.19156607  0.61055663  1  0  -0.61087  0  2.115025  0  0  -0.537174  0  2.387342  0  0  -0.568583  0  2.376351  0  0  -0.322749  -0.515266  0  2.393836  0
O  O67  1  0.60333610  0.80845999  0.38944557  1  0  -0.610658  0  2.114701  0  0  -0.537023  0  2.387048  0  0  -0.568413  0  2.37601  0  0  -0.322747  -0.51512  0  2.393549  0
F  F68  1  0.83177550  0.71222029  0.92356756  1  0  -0.209103  0  1.219429  0  0  -0.156172  0  1.390888  0  0  -0.166929  0  1.383442  0  0  -0.088592  -0.148345  0  1.39574  0
F  F69  1  0.16820336  0.28777506  0.07642452  1  0  -0.209201  0  1.219553  0  0  -0.156251  0  1.391016  0  0  -0.167006  0  1.383577  0  0  -0.088611  -0.148423  0  1.395861  0
