# generated using pymatgen
data_CdH10C12N4O7
_symmetry_space_group_name_H-M   'P 1'
_cell_length_a   7.45829076
_cell_length_b   9.95919934
_cell_length_c   10.26367825
_cell_angle_alpha   108.90699422
_cell_angle_beta   90.00037514
_cell_angle_gamma   89.99990941
_symmetry_Int_Tables_number   1
_chemical_formula_structural   CdH10C12N4O7
_chemical_formula_sum   'Cd2 H20 C24 N8 O14'
_cell_volume   721.23854901
_cell_formula_units_Z   2
loop_
 _symmetry_equiv_pos_site_id
 _symmetry_equiv_pos_as_xyz
  1  'x, y, z'
loop_
 _atom_site_type_symbol
 _atom_site_label
 _atom_site_symmetry_multiplicity
 _atom_site_fract_x
 _atom_site_fract_y
 _atom_site_fract_z
 _atom_site_occupancy
 _atom_site_hle17_bader_spin_density
 _atom_site_hle17_ddec_charge
 _atom_site_hle17_ddec_spin_density
 _atom_site_hle17_ddec_sum_bond_order
 _atom_site_hle17_magmom
 _atom_site_hse06_10hf_bader_spin_density
 _atom_site_hse06_10hf_ddec_charge
 _atom_site_hse06_10hf_ddec_spin_density
 _atom_site_hse06_10hf_ddec_sum_bond_order
 _atom_site_hse06_10hf_magmom
 _atom_site_hse06_bader_spin_density
 _atom_site_hse06_ddec_charge
 _atom_site_hse06_ddec_spin_density
 _atom_site_hse06_ddec_sum_bond_order
 _atom_site_hse06_magmom
 _atom_site_pbe_bader_spin_density
 _atom_site_pbe_cm5_charge
 _atom_site_pbe_ddec_charge
 _atom_site_pbe_ddec_spin_density
 _atom_site_pbe_ddec_sum_bond_order
 _atom_site_pbe_magmom
Cd  Cd0  1  0.58557882  0.68498672  0.07891021  1  0  1.144862  0  1.63545  0  0  0.940849  0  2.084474  0  0  1.000103  0  2.029638  0  0  0.784894  0.899004  0  2.121658  0
Cd  Cd1  1  0.08557705  0.31501406  0.92108982  1  0  1.14477  0  1.635507  0  0  0.940728  0  2.084524  0  0  0.999949  0  2.029728  0  0  0.784875  0.898888  0  2.121705  0
H  H2  1  0.55405421  0.03754647  0.22863449  1  0  0.076591  0  0.945895  0  0  0.082337  0  1.01672  0  0  0.085116  0  1.013662  0  0  0.113918  0.080346  0  1.018797  0
H  H3  1  0.05404968  0.96245744  0.77136934  1  0  0.07659  0  0.945888  0  0  0.082335  0  1.016725  0  0  0.085118  0  1.013658  0  0  0.113893  0.080341  0  1.0188  0
H  H4  1  0.59274057  0.13075700  0.66899398  1  0  0.114585  0  0.959734  0  0  0.121604  0  1.026304  0  0  0.124873  0  1.023245  0  0  0.107532  0.118995  0  1.028814  0
H  H5  1  0.09274298  0.86924060  0.33100504  1  0  0.114604  0  0.959703  0  0  0.121622  0  1.026283  0  0  0.1249  0  1.023213  0  0  0.107528  0.119013  0  1.028795  0
H  H6  1  0.55192995  0.21556717  0.46705457  1  0  0.103775  0  0.961901  0  0  0.113268  0  1.023868  0  0  0.115573  0  1.024699  0  0  0.106948  0.112047  0  1.022585  0
H  H7  1  0.05192766  0.78443565  0.53295084  1  0  0.103804  0  0.961859  0  0  0.113285  0  1.023831  0  0  0.115593  0  1.024663  0  0  0.106947  0.112065  0  1.022551  0
H  H8  1  0.76005588  0.27127509  0.29482925  1  0  0.103647  0  0.952206  0  0  0.114248  0  1.011226  0  0  0.11686  0  1.011469  0  0  0.107383  0.112892  0  1.010269  0
H  H9  1  0.26005394  0.72872371  0.70516705  1  0  0.103711  0  0.952279  0  0  0.114366  0  1.011231  0  0  0.116977  0  1.011475  0  0  0.107403  0.113004  0  1.010281  0
H  H10  1  0.70482618  0.67217981  0.71200373  1  0  0.111282  0  0.964864  0  0  0.117809  0  1.030815  0  0  0.120794  0  1.029762  0  0  0.103472  0.115724  0  1.031446  0
H  H11  1  0.20481865  0.32782104  0.28799592  1  0  0.111286  0  0.964839  0  0  0.117824  0  1.030775  0  0  0.120808  0  1.029726  0  0  0.103493  0.115743  0  1.031408  0
H  H12  1  0.64606465  0.92734065  0.75810953  1  0  0.107766  0  0.962929  0  0  0.114376  0  1.029021  0  0  0.117607  0  1.027415  0  0  0.103434  0.112087  0  1.029746  0
H  H13  1  0.14606263  0.07265799  0.24189301  1  0  0.107742  0  0.962779  0  0  0.114381  0  1.028857  0  0  0.11762  0  1.027238  0  0  0.103417  0.112094  0  1.029585  0
H  H14  1  0.69327958  0.37738893  0.11080180  1  0  0.083444  0  0.96163  0  0  0.090448  0  1.029064  0  0  0.09203  0  1.027726  0  0  0.115402  0.089237  0  1.029996  0
H  H15  1  0.19328892  0.62261513  0.88919689  1  0  0.083464  0  0.961578  0  0  0.090419  0  1.029076  0  0  0.091998  0  1.027727  0  0  0.115402  0.089208  0  1.03001  0
H  H16  1  0.75253634  0.42975993  0.54331565  1  0  0.10868  0  0.970381  0  0  0.116523  0  1.035463  0  0  0.120161  0  1.032307  0  0  0.106747  0.114029  0  1.037471  0
H  H17  1  0.25252579  0.57023991  0.45668194  1  0  0.108709  0  0.97039  0  0  0.116527  0  1.035494  0  0  0.120174  0  1.032327  0  0  0.106699  0.114005  0  1.037538  0
H  H18  1  0.46498671  0.92266461  0.99459355  1  0  0.417785  0  0.884744  0  0  0.383385  0  0.955073  0  0  0.39459  0  0.938555  0  0  0.289356  0.375513  0  0.966593  0
H  H19  1  0.96498780  0.07733529  0.00540799  1  0  0.417763  0  0.884774  0  0  0.383368  0  0.955098  0  0  0.394587  0  0.938556  0  0  0.289348  0.375495  0  0.966619  0
H  H20  1  0.27891293  0.86179300  0.02204678  1  0  0.416683  0  0.887099  0  0  0.38037  0  0.960184  0  0  0.392072  0  0.942877  0  0  0.287933  0.372022  0  0.972524  0
H  H21  1  0.77891330  0.13820574  0.97795447  1  0  0.416643  0  0.88717  0  0  0.380319  0  0.960273  0  0  0.392001  0  0.942997  0  0  0.287894  0.371971  0  0.972613  0
C  C22  1  0.57540137  0.00452421  0.31907634  1  0  0.139986  0  3.712746  0  0  0.10832  0  3.967886  0  0  0.116424  0  3.985711  0  0  0.051614  0.102915  0  3.955061  0
C  C23  1  0.07539460  0.99547972  0.68092662  1  0  0.140019  0  3.712583  0  0  0.108328  0  3.967723  0  0  0.116432  0  3.985549  0  0  0.051643  0.102927  0  3.954891  0
C  C24  1  0.59554243  0.05644737  0.56416309  1  0  -0.027827  0  3.642375  0  0  -0.054544  0  3.891094  0  0  -0.051841  0  3.908144  0  0  -0.060969  -0.0557  0  3.879521  0
C  C25  1  0.09554160  0.94355334  0.43584184  1  0  -0.027896  0  3.642629  0  0  -0.054613  0  3.891339  0  0  -0.051914  0  3.908394  0  0  -0.060978  -0.05577  0  3.879772  0
C  C26  1  0.69184638  0.61767649  0.48892096  1  0  0.025984  0  3.782435  0  0  0.042528  0  4.012972  0  0  0.03957  0  4.03768  0  0  -0.000515  0.044648  0  3.996064  0
C  C27  1  0.19183807  0.38232333  0.51107634  1  0  0.02617  0  3.782406  0  0  0.04275  0  4.012887  0  0  0.039794  0  4.037597  0  0  -0.000497  0.04487  0  3.995973  0
C  C28  1  0.57358510  0.10361057  0.45252994  1  0  -0.116425  0  3.736268  0  0  -0.130297  0  3.991348  0  0  -0.136923  0  4.013189  0  0  -0.085065  -0.12621  0  3.975822  0
C  C29  1  0.07358136  0.89639135  0.54746456  1  0  -0.116456  0  3.736346  0  0  -0.130304  0  3.991422  0  0  -0.136936  0  4.01327  0  0  -0.085062  -0.126219  0  3.975898  0
C  C30  1  0.66036273  0.66844759  0.37643842  1  0  0.13917  0  3.737798  0  0  0.132378  0  3.972248  0  0  0.137319  0  3.994211  0  0  0.119868  0.129712  0  3.956909  0
C  C31  1  0.16036092  0.33154689  0.62355795  1  0  0.139042  0  3.737655  0  0  0.132239  0  3.972176  0  0  0.137178  0  3.994139  0  0  0.119802  0.129576  0  3.956831  0
C  C32  1  0.72900185  0.38391959  0.32314601  1  0  -0.108493  0  3.723179  0  0  -0.121972  0  3.977264  0  0  -0.128809  0  3.99795  0  0  -0.082056  -0.117954  0  3.963076  0
C  C33  1  0.22900258  0.61608655  0.67685742  1  0  -0.108593  0  3.722957  0  0  -0.122123  0  3.977023  0  0  -0.128959  0  3.997708  0  0  -0.082073  -0.118097  0  3.962833  0
C  C34  1  0.62317909  0.91042770  0.54185412  1  0  0.022272  0  3.795059  0  0  0.039743  0  4.023877  0  0  0.03706  0  4.049352  0  0  -0.002656  0.040747  0  4.00713  0
C  C35  1  0.12317631  0.08957415  0.45814741  1  0  0.022298  0  3.795043  0  0  0.039801  0  4.023885  0  0  0.03712  0  4.049362  0  0  -0.002663  0.040803  0  4.007139  0
C  C36  1  0.68522876  0.71387714  0.62709329  1  0  -0.095611  0  3.732538  0  0  -0.117079  0  3.985167  0  0  -0.119915  0  4.008154  0  0  -0.083637  -0.116371  0  3.970567  0
C  C37  1  0.18521942  0.28611415  0.37290313  1  0  -0.095609  0  3.732775  0  0  -0.117088  0  3.985392  0  0  -0.119926  0  4.00838  0  0  -0.083607  -0.116385  0  3.970797  0
C  C38  1  0.62679870  0.81802771  0.40329000  1  0  0.141417  0  3.741794  0  0  0.134075  0  3.977883  0  0  0.138554  0  4.000227  0  0  0.119083  0.130868  0  3.962657  0
C  C39  1  0.12679563  0.18197840  0.59671196  1  0  0.141437  0  3.741907  0  0  0.133991  0  3.978142  0  0  0.138468  0  4.000485  0  0  0.119074  0.130787  0  3.96291  0
C  C40  1  0.65100104  0.85475660  0.65259792  1  0  -0.102551  0  3.740143  0  0  -0.121648  0  3.98994  0  0  -0.125742  0  4.013267  0  0  -0.085522  -0.118966  0  3.974616  0
C  C41  1  0.15099580  0.14524736  0.34740638  1  0  -0.102605  0  3.74042  0  0  -0.121735  0  3.990236  0  0  -0.125829  0  4.013563  0  0  -0.085583  -0.119053  0  3.974916  0
C  C42  1  0.69299307  0.44267227  0.21864505  1  0  0.168585  0  3.675669  0  0  0.13361  0  3.931715  0  0  0.143171  0  3.948058  0  0  0.056761  0.127114  0  3.921285  0
C  C43  1  0.19299487  0.55732015  0.78134788  1  0  0.168477  0  3.676088  0  0  0.133534  0  3.932157  0  0  0.143106  0  3.948486  0  0  0.056702  0.127037  0  3.921726  0
C  C44  1  0.72758918  0.47127033  0.45864816  1  0  -0.04732  0  3.673935  0  0  -0.072595  0  3.922161  0  0  -0.070184  0  3.939878  0  0  -0.063683  -0.073933  0  3.909301  0
C  C45  1  0.22758485  0.52872424  0.54134467  1  0  -0.047475  0  3.673767  0  0  -0.072721  0  3.921968  0  0  -0.070319  0  3.939684  0  0  -0.063671  -0.074041  0  3.909128  0
N  N46  1  0.22308745  0.55356009  0.16608419  1  0  0.696295  0  4.127148  0  0  0.719518  0  4.427377  0  0  0.749346  0  4.432884  0  0  0.098669  0.699607  0  4.422884  0
N  N47  1  0.72308451  0.44643650  0.83391610  1  0  0.696324  0  4.126962  0  0  0.719532  0  4.427215  0  0  0.749358  0  4.432726  0  0  0.098685  0.69962  0  4.422723  0
N  N48  1  0.60065008  0.86633696  0.29548927  1  0  -0.368257  0  3.277894  0  0  -0.298157  0  3.541599  0  0  -0.31918  0  3.562073  0  0  -0.324967  -0.283382  0  3.526861  0
N  N49  1  0.10064675  0.13366705  0.70450896  1  0  -0.368202  0  3.277999  0  0  -0.298045  0  3.541727  0  0  -0.319067  0  3.562209  0  0  -0.32491  -0.283269  0  3.526981  0
N  N50  1  0.66032201  0.58006178  0.24451237  1  0  -0.358825  0  3.285103  0  0  -0.286511  0  3.548339  0  0  -0.307994  0  3.567871  0  0  -0.324866  -0.272558  0  3.535151  0
N  N51  1  0.16032119  0.41994539  0.75549108  1  0  -0.358605  0  3.285173  0  0  -0.286272  0  3.548367  0  0  -0.307752  0  3.567899  0  0  -0.324736  -0.272319  0  3.535176  0
N  N52  1  0.93797558  0.83239019  0.04096679  1  0  0.686711  0  4.147284  0  0  0.713966  0  4.442667  0  0  0.742295  0  4.449486  0  0  0.100824  0.695176  0  4.437095  0
N  N53  1  0.43797448  0.16760864  0.95903427  1  0  0.686789  0  4.147172  0  0  0.714038  0  4.442565  0  0  0.742049  0  4.449547  0  0  0.10082  0.695246  0  4.436994  0
O  O54  1  0.09544164  0.46519028  0.15609597  1  0  -0.455372  0  1.810941  0  0  -0.422313  0  2.037066  0  0  -0.44289  0  2.030704  0  0  -0.180481  -0.407682  0  2.040798  0
O  O55  1  0.59543323  0.53480624  0.84390369  1  0  -0.455444  0  1.810883  0  0  -0.422426  0  2.037055  0  0  -0.443009  0  2.030692  0  0  -0.180531  -0.407784  0  2.040772  0
O  O56  1  0.25898482  0.64588149  0.27775767  1  0  -0.411065  0  1.79356  0  0  -0.405129  0  2.00987  0  0  -0.417055  0  2.0044  0  0  -0.15516  -0.396836  0  2.013436  0
O  O57  1  0.75898241  0.35411615  0.72224507  1  0  -0.411055  0  1.793527  0  0  -0.405089  0  2.009821  0  0  -0.41701  0  2.00435  0  0  -0.15511  -0.396808  0  2.013397  0
O  O58  1  0.31377397  0.54232411  0.05664991  1  0  -0.507776  0  1.867671  0  0  -0.480534  0  2.12215  0  0  -0.502774  0  2.114786  0  0  -0.194271  -0.464944  0  2.126478  0
O  O59  1  0.81377467  0.45767783  0.94335255  1  0  -0.507766  0  1.867566  0  0  -0.480512  0  2.122071  0  0  -0.502753  0  2.114713  0  0  -0.194287  -0.464922  0  2.126399  0
O  O60  1  0.40574402  0.83516457  0.99843171  1  0  -0.830823  0  1.879848  0  0  -0.768233  0  2.082052  0  0  -0.790138  0  2.04688  0  0  -0.59509  -0.752801  0  2.106246  0
O  O61  1  0.90574355  0.16483529  0.00157051  1  0  -0.830754  0  1.879912  0  0  -0.768153  0  2.082107  0  0  -0.790061  0  2.046955  0  0  -0.595031  -0.752721  0  2.106303  0
O  O62  1  0.78348200  0.82859926  0.98713878  1  0  -0.461765  0  1.804934  0  0  -0.4323  0  2.030684  0  0  -0.451656  0  2.023951  0  0  -0.185725  -0.418587  0  2.034272  0
O  O63  1  0.28348171  0.17139631  0.01286049  1  0  -0.461776  0  1.804816  0  0  -0.432319  0  2.030551  0  0  -0.451552  0  2.02387  0  0  -0.185731  -0.418607  0  2.034141  0
O  O64  1  0.05646510  0.91538133  0.01747546  1  0  -0.496878  0  1.836764  0  0  -0.469089  0  2.050267  0  0  -0.486492  0  2.040536  0  0  -0.183322  -0.456964  0  2.056612  0
O  O65  1  0.55646563  0.08461623  0.98252533  1  0  -0.496932  0  1.836739  0  0  -0.469106  0  2.050212  0  0  -0.486378  0  2.040514  0  0  -0.183348  -0.456977  0  2.056546  0
O  O66  1  0.97417732  0.75782254  0.11460478  1  0  -0.420498  0  1.780002  0  0  -0.418914  0  2.004141  0  0  -0.431905  0  1.998661  0  0  -0.165843  -0.409748  0  2.007388  0
O  O67  1  0.47417405  0.24217733  0.88539971  1  0  -0.420508  0  1.780074  0  0  -0.418923  0  2.004208  0  0  -0.431781  0  1.998769  0  0  -0.165817  -0.40977  0  2.00748  0
