# generated using pymatgen
data_ZnH14C20(N2O3)2
_symmetry_space_group_name_H-M   'P 1'
_cell_length_a   10.43302822
_cell_length_b   13.24035102
_cell_length_c   19.34904372
_cell_angle_alpha   90.00006503
_cell_angle_beta   89.99777311
_cell_angle_gamma   109.09319753
_symmetry_Int_Tables_number   1
_chemical_formula_structural   ZnH14C20(N2O3)2
_chemical_formula_sum   'Zn4 H56 C80 N16 O24'
_cell_volume   2525.78027807
_cell_formula_units_Z   4
loop_
 _symmetry_equiv_pos_site_id
 _symmetry_equiv_pos_as_xyz
  1  'x, y, z'
loop_
 _atom_site_type_symbol
 _atom_site_label
 _atom_site_symmetry_multiplicity
 _atom_site_fract_x
 _atom_site_fract_y
 _atom_site_fract_z
 _atom_site_occupancy
 _atom_site_pbe_bader_charge
 _atom_site_pbe_bader_spin_density
 _atom_site_pbe_cm5_charge
 _atom_site_pbe_ddec_charge
 _atom_site_pbe_ddec_spin_density
 _atom_site_pbe_ddec_sum_bond_order
 _atom_site_pbe_magmom
Zn  Zn0  1  0.92710573  0.32528760  0.40236392  1  1.259547  0  0.705287  0.804425  0  2.377801  0
Zn  Zn1  1  0.07291800  0.17472168  0.90237411  1  1.259303  0  0.705226  0.804214  0  2.377868  0
Zn  Zn2  1  0.07288548  0.67471007  0.59762765  1  1.25917  0  0.705225  0.804302  0  2.377951  0
Zn  Zn3  1  0.92710805  0.82529129  0.09762935  1  1.259147  0  0.705207  0.804259  0  2.377994  0
H  H4  1  0.84615458  0.93120348  0.34983829  1  0.489136  0  0.345755  0.308032  0  0.891694  0
H  H5  1  0.15381600  0.56879535  0.84983796  1  0.488987  0  0.345725  0.308027  0  0.891755  0
H  H6  1  0.15388516  0.06879855  0.65016827  1  0.489191  0  0.345753  0.308126  0  0.891503  0
H  H7  1  0.84611873  0.43120296  0.15016912  1  0.48922  0  0.345726  0.308129  0  0.891456  0
H  H8  1  0.55545916  0.44995442  0.71837939  1  0.631086  0  0.349267  0.38416  0  0.844105  0
H  H9  1  0.44450558  0.04997450  0.21838593  1  0.630649  0  0.349234  0.384213  0  0.844081  0
H  H10  1  0.44452193  0.54998635  0.28161786  1  0.630713  0  0.349305  0.384337  0  0.844075  0
H  H11  1  0.55552460  0.95001603  0.78162011  1  0.630607  0  0.349147  0.384152  0  0.844382  0
H  H12  1  0.43025633  0.30188488  0.37163560  1  0.112002  0  0.105298  0.111448  0  1.010243  0
H  H13  1  0.56976187  0.19811530  0.87165029  1  0.112257  0  0.105234  0.111451  0  1.01001  0
H  H14  1  0.56972516  0.69811535  0.62835080  1  0.112297  0  0.105275  0.11147  0  1.009924  0
H  H15  1  0.43024592  0.80188020  0.12835265  1  0.112249  0  0.105256  0.111419  0  1.009984  0
H  H16  1  0.65676092  0.38431210  0.56031826  1  0.125075  0  0.113047  0.124014  0  0.996976  0
H  H17  1  0.34322028  0.11565541  0.06032860  1  0.125678  0  0.113043  0.124019  0  0.996959  0
H  H18  1  0.34322928  0.61567378  0.43966918  1  0.125465  0  0.113026  0.123933  0  0.996986  0
H  H19  1  0.65678985  0.88433553  0.93967486  1  0.125492  0  0.113032  0.123946  0  0.997136  0
H  H20  1  0.24462654  0.38938110  0.55011721  1  0.139536  0  0.110943  0.120162  0  1.004055  0
H  H21  1  0.75536446  0.11060698  0.05012761  1  0.139207  0  0.111  0.120154  0  1.004115  0
H  H22  1  0.75537240  0.61062249  0.44987540  1  0.139466  0  0.110906  0.120103  0  1.004127  0
H  H23  1  0.24464699  0.88938794  0.94987223  1  0.139443  0  0.110985  0.12019  0  1.004143  0
H  H24  1  0.77786736  0.95477325  0.18955651  1  0.180763  0  0.139519  0.127519  0  1.023373  0
H  H25  1  0.22211429  0.54521858  0.68954524  1  0.180633  0  0.139549  0.127627  0  1.02339  0
H  H26  1  0.22214959  0.04522668  0.81044747  1  0.180209  0  0.139549  0.127505  0  1.023383  0
H  H27  1  0.77788472  0.45478814  0.31045150  1  0.180623  0  0.139574  0.12758  0  1.023452  0
H  H28  1  0.17768555  0.94520837  0.19727776  1  0.138519  0  0.117639  0.119778  0  1.040027  0
H  H29  1  0.82231335  0.55481852  0.69729710  1  0.137804  0  0.117644  0.119756  0  1.039683  0
H  H30  1  0.82233776  0.05480209  0.80273087  1  0.138502  0  0.117682  0.119788  0  1.040028  0
H  H31  1  0.17768822  0.44519304  0.30269860  1  0.137985  0  0.11762  0.119744  0  1.039713  0
H  H32  1  0.16155582  0.11834562  0.27814558  1  0.161009  0  0.1307  0.144737  0  1.001787  0
H  H33  1  0.83843289  0.38168131  0.77816932  1  0.16072  0  0.130722  0.14476  0  1.001838  0
H  H34  1  0.83845226  0.88166240  0.72186356  1  0.161263  0  0.130727  0.144796  0  1.001749  0
H  H35  1  0.16156608  0.61833401  0.22183207  1  0.160552  0  0.130741  0.144772  0  1.001764  0
H  H36  1  0.80204707  0.12516670  0.25456897  1  0.168173  0  0.129814  0.146565  0  0.980552  0
H  H37  1  0.19792568  0.37483144  0.75456375  1  0.168208  0  0.129787  0.146606  0  0.980297  0
H  H38  1  0.19795831  0.87483022  0.74543500  1  0.168181  0  0.129818  0.146509  0  0.980691  0
H  H39  1  0.80207445  0.62518160  0.24543867  1  0.168171  0  0.12984  0.146613  0  0.98049  0
H  H40  1  0.96833038  0.20990651  0.27847158  1  0.167616  0  0.129711  0.135111  0  0.972894  0
H  H41  1  0.03164116  0.29009752  0.77847694  1  0.167705  0  0.129696  0.135057  0  0.972815  0
H  H42  1  0.03167383  0.79009268  0.72153446  1  0.167681  0  0.129739  0.135115  0  0.972801  0
H  H43  1  0.96835773  0.70991467  0.22152135  1  0.167491  0  0.129699  0.135001  0  0.972811  0
H  H44  1  0.79912341  0.83571661  0.48743369  1  0.087581  0  0.101759  0.114172  0  1.036926  0
H  H45  1  0.20087530  0.66428780  0.98742876  1  0.087525  0  0.101769  0.114151  0  1.036838  0
H  H46  1  0.20092966  0.16429088  0.51257338  1  0.087464  0  0.101723  0.114133  0  1.036948  0
H  H47  1  0.79904415  0.33570494  0.01257883  1  0.087446  0  0.10182  0.114079  0  1.036863  0
H  H48  1  0.78843048  0.89015493  0.60907767  1  0.079169  0  0.09549  0.094973  0  1.044692  0
H  H49  1  0.21159940  0.60985505  0.10907245  1  0.079427  0  0.095473  0.094997  0  1.044573  0
H  H50  1  0.21161129  0.10985035  0.39092733  1  0.079496  0  0.095396  0.094936  0  1.04474  0
H  H51  1  0.78833055  0.39013751  0.89093411  1  0.079682  0  0.095408  0.094835  0  1.044936  0
H  H52  1  0.81811291  0.07911419  0.63978257  1  0.043606  0  0.092155  0.08847  0  1.022443  0
H  H53  1  0.18193060  0.42089634  0.13977911  1  0.043665  0  0.09222  0.088499  0  1.022357  0
H  H54  1  0.18188223  0.92088371  0.36021882  1  0.043811  0  0.092092  0.088351  0  1.022447  0
H  H55  1  0.81805331  0.57910246  0.86022435  1  0.043312  0  0.092192  0.088564  0  1.022435  0
H  H56  1  0.85704051  0.21944784  0.54757504  1  0.112885  0  0.111968  0.131585  0  0.989634  0
H  H57  1  0.14300167  0.28056130  0.04757236  1  0.113382  0  0.111968  0.131515  0  0.989788  0
H  H58  1  0.14292463  0.78054363  0.45242583  1  0.11296  0  0.112037  0.131649  0  0.989706  0
H  H59  1  0.85702869  0.71944723  0.95242489  1  0.112981  0  0.111982  0.131515  0  0.989719  0
C  C60  1  0.19486801  0.32861896  0.41652390  1  1.56659  0  0.197751  0.56496  0  4.226884  0
C  C61  1  0.80514928  0.17139165  0.91653904  1  1.56603  0  0.197588  0.564646  0  4.227506  0
C  C62  1  0.80511748  0.67138463  0.58346612  1  1.566511  0  0.197957  0.565119  0  4.226448  0
C  C63  1  0.19486932  0.82861620  0.08346338  1  1.56641  0  0.197722  0.564972  0  4.226919  0
C  C64  1  0.67586484  0.32766461  0.42641664  1  1.564774  0  0.192513  0.56072  0  4.227699  0
C  C65  1  0.32414176  0.17232852  0.92643023  1  1.563447  0  0.192596  0.560802  0  4.227849  0
C  C66  1  0.32411455  0.67232925  0.57356873  1  1.564131  0  0.192652  0.560778  0  4.22779  0
C  C67  1  0.67587402  0.82767369  0.07357788  1  1.564504  0  0.192462  0.560724  0  4.227798  0
C  C68  1  0.44887518  0.41581421  0.63805265  1  1.466165  0  0.232262  0.577875  0  4.124499  0
C  C69  1  0.55110853  0.08415776  0.13806029  1  1.466945  0  0.232331  0.578322  0  4.123926  0
C  C70  1  0.55112196  0.58417520  0.36194099  1  1.466528  0  0.232348  0.578154  0  4.124173  0
C  C71  1  0.44891656  0.91583482  0.86194420  1  1.465732  0  0.232126  0.577738  0  4.124447  0
C  C72  1  0.32362056  0.34415772  0.45665320  1  -0.050493  0  -0.020018  -0.044008  0  3.979356  0
C  C73  1  0.67638759  0.15584117  0.95666952  1  -0.049368  0  -0.019955  -0.043771  0  3.979052  0
C  C74  1  0.67636538  0.65584433  0.54333475  1  -0.049693  0  -0.020045  -0.04405  0  3.979111  0
C  C75  1  0.32363052  0.84415648  0.04333393  1  -0.049424  0  -0.019913  -0.043875  0  3.979067  0
C  C76  1  0.43531044  0.32640310  0.42557175  1  -0.003286  0  -0.066916  -0.086739  0  3.910056  0
C  C77  1  0.56469822  0.17359331  0.92558511  1  -0.004103  0  -0.066777  -0.086692  0  3.909572  0
C  C78  1  0.56467275  0.67359645  0.57441466  1  -0.003817  0  -0.066772  -0.086622  0  3.909672  0
C  C79  1  0.43531323  0.82640162  0.07441628  1  -0.00398  0  -0.066848  -0.08673  0  3.909781  0
C  C80  1  0.55525946  0.34158161  0.46270830  1  0.053258  0  -0.01585  -0.030493  0  3.956901  0
C  C81  1  0.44473870  0.15840470  0.96272148  1  0.053882  0  -0.015901  -0.030708  0  3.957055  0
C  C82  1  0.44472117  0.65841310  0.53727707  1  0.053318  0  -0.015775  -0.030486  0  3.956992  0
C  C83  1  0.55527373  0.84159028  0.03728250  1  0.052462  0  -0.015877  -0.030519  0  3.95698  0
C  C84  1  0.56244077  0.37178494  0.53224265  1  -0.035486  0  -0.064348  -0.07955  0  3.890199  0
C  C85  1  0.43754650  0.12819122  0.03225363  1  -0.027528  0  -0.064281  -0.07951  0  3.890139  0
C  C86  1  0.43754808  0.62820555  0.46774375  1  -0.027733  0  -0.064462  -0.079628  0  3.890322  0
C  C87  1  0.56246710  0.87180148  0.96774776  1  -0.027956  0  -0.064388  -0.079688  0  3.890356  0
C  C88  1  0.44928202  0.38673715  0.56425800  1  -0.091918  0  -0.023858  -0.069267  0  4.024218  0
C  C89  1  0.55070393  0.11323905  0.06426935  1  -0.100624  0  -0.023856  -0.069186  0  4.024035  0
C  C90  1  0.55070886  0.61325659  0.43573150  1  -0.099765  0  -0.023717  -0.068884  0  4.023834  0
C  C91  1  0.44931279  0.88675148  0.93573308  1  -0.099414  0  -0.023671  -0.068765  0  4.023692  0
C  C92  1  0.33118973  0.37473849  0.52602888  1  -0.022814  0  -0.067936  -0.09148  0  3.924459  0
C  C93  1  0.66880361  0.12525003  0.02604456  1  -0.022893  0  -0.068095  -0.091764  0  3.924498  0
C  C94  1  0.66880449  0.62526248  0.47395804  1  -0.023243  0  -0.068015  -0.091682  0  3.92426  0
C  C95  1  0.33120686  0.87474483  0.97395631  1  -0.023361  0  -0.068149  -0.09182  0  3.924196  0
C  C96  1  0.88417753  0.97383545  0.20285602  1  0.984733  0  0.145373  0.088716  0  3.881104  0
C  C97  1  0.11580789  0.52616539  0.70285324  1  0.985338  0  0.145383  0.088574  0  3.881152  0
C  C98  1  0.11583576  0.02616506  0.79715054  1  0.984923  0  0.1453  0.088652  0  3.881478  0
C  C99  1  0.88419111  0.47384133  0.29714247  1  0.985182  0  0.145325  0.088454  0  3.881237  0
C  C100  1  0.09349619  0.97344726  0.20861309  1  0.433956  0  -0.00143  -0.028561  0  3.995156  0
C  C101  1  0.90649532  0.52656931  0.70862697  1  0.4348  0  -0.001468  -0.028586  0  3.994831  0
C  C102  1  0.90651751  0.02656030  0.79139553  1  0.433943  0  -0.001743  -0.028918  0  3.995231  0
C  C103  1  0.09350252  0.47343969  0.29136822  1  0.434925  0  -0.001358  -0.028523  0  3.994809  0
C  C104  1  0.08727958  0.05781144  0.24804056  1  0.253134  0  0.001519  -0.114506  0  3.899001  0
C  C105  1  0.91270384  0.44220716  0.74805740  1  0.254024  0  0.001577  -0.114452  0  3.898916  0
C  C106  1  0.91273386  0.94219533  0.75196909  1  0.253272  0  0.001664  -0.114421  0  3.898993  0
C  C107  1  0.08729237  0.55780565  0.25194088  1  0.253675  0  0.001444  -0.114651  0  3.899161  0
C  C108  1  0.89701360  0.12786182  0.28046917  1  0.28783  0  -0.030687  -0.177811  0  3.88435  0
C  C109  1  0.10296572  0.37214257  0.78047232  1  0.287242  0  -0.030637  -0.177813  0  3.883983  0
C  C110  1  0.10299799  0.87213937  0.71953481  1  0.287739  0  -0.030758  -0.177808  0  3.884688  0
C  C111  1  0.89702696  0.62786535  0.21952907  1  0.287641  0  -0.030733  -0.177866  0  3.88407  0
C  C112  1  0.87287220  0.09661533  0.35468850  1  1.039426  0  0.244483  0.35959  0  3.969842  0
C  C113  1  0.12711963  0.40338878  0.85468460  1  1.03943  0  0.244485  0.359505  0  3.969858  0
C  C114  1  0.12713325  0.90338472  0.64531754  1  1.039432  0  0.244535  0.359572  0  3.969902  0
C  C115  1  0.87287312  0.59662227  0.14531317  1  1.039745  0  0.244571  0.359628  0  3.970194  0
C  C116  1  0.83344004  0.99715849  0.45013253  1  0.299432  0  0.09453  0.15106  0  4.036742  0
C  C117  1  0.16655986  0.50284532  0.95013140  1  0.299347  0  0.094598  0.151161  0  4.036823  0
C  C118  1  0.16657227  0.00284195  0.54987144  1  0.298873  0  0.094565  0.151075  0  4.036647  0
C  C119  1  0.83341289  0.49715753  0.04987361  1  0.299173  0  0.094632  0.151177  0  4.036783  0
C  C120  1  0.81139334  0.91823492  0.50045353  1  0.000696  0  -0.09577  -0.164733  0  3.991798  0
C  C121  1  0.18861200  0.58176681  0.00045072  1  0.000668  0  -0.095794  -0.164734  0  3.99171  0
C  C122  1  0.18863053  0.08176854  0.49954941  1  0.000882  0  -0.095764  -0.164688  0  3.991698  0
C  C123  1  0.81133611  0.41822837  0.99955378  1  0.000796  0  -0.095972  -0.164525  0  3.991632  0
C  C124  1  0.80566903  0.95036329  0.56861030  1  -0.056525  0  -0.099143  -0.084916  0  4.025341  0
C  C125  1  0.19435591  0.54964198  0.06860455  1  -0.056493  0  -0.099161  -0.084899  0  4.025181  0
C  C126  1  0.19435621  0.04963556  0.43139522  1  -0.056491  0  -0.099058  -0.08488  0  4.025621  0
C  C127  1  0.80558508  0.45035201  0.93140046  1  -0.056701  0  -0.099049  -0.084864  0  4.025593  0
C  C128  1  0.82248147  0.05754227  0.58560595  1  0.017106  0  -0.105134  -0.105025  0  4.059238  0
C  C129  1  0.17755663  0.44247039  0.08559999  1  0.016835  0  -0.105222  -0.105215  0  4.059244  0
C  C130  1  0.17751837  0.94245824  0.41439906  1  0.016939  0  -0.105138  -0.104979  0  4.059384  0
C  C131  1  0.82241623  0.55752700  0.91440191  1  0.0177  0  -0.105165  -0.105254  0  4.059325  0
C  C132  1  0.84475041  0.13653655  0.53510252  1  0.015248  0  -0.090147  -0.155168  0  3.970615  0
C  C133  1  0.15528276  0.36347107  0.03510050  1  0.014807  0  -0.090092  -0.154968  0  3.970491  0
C  C134  1  0.15523342  0.86345913  0.46489784  1  0.014655  0  -0.090158  -0.155182  0  3.97064  0
C  C135  1  0.84472133  0.63653360  0.96489934  1  0.014736  0  -0.090205  -0.155055  0  3.970485  0
C  C136  1  0.84994909  0.10477200  0.46649974  1  0.358241  0  0.090511  0.149696  0  4.027504  0
C  C137  1  0.15006810  0.39523713  0.96649838  1  0.354948  0  0.090419  0.149659  0  4.027414  0
C  C138  1  0.15004585  0.89522822  0.53350217  1  0.358799  0  0.090453  0.149666  0  4.027378  0
C  C139  1  0.84993633  0.60477146  0.03350301  1  0.358312  0  0.090487  0.149584  0  4.027345  0
N  N140  1  0.87450238  0.16391558  0.40547047  1  -1.22098  0  -0.34384  -0.375234  0  3.492949  0
N  N141  1  0.12551062  0.33608747  0.90547200  1  -1.217728  0  -0.343802  -0.375199  0  3.492916  0
N  N142  1  0.12548948  0.83607822  0.59452885  1  -1.220624  0  -0.343785  -0.375188  0  3.492558  0
N  N143  1  0.87450485  0.66392255  0.09452888  1  -1.221163  0  -0.343907  -0.37526  0  3.492879  0
N  N144  1  0.84712278  0.99519940  0.37885895  1  -1.266696  0  -0.372658  -0.320315  0  3.586643  0
N  N145  1  0.15286055  0.50480120  0.87885840  1  -1.266567  0  -0.372624  -0.320314  0  3.586731  0
N  N146  1  0.15289390  0.00479973  0.62114450  1  -1.266917  0  -0.372633  -0.32034  0  3.586604  0
N  N147  1  0.84710907  0.49520382  0.12114557  1  -1.266857  0  -0.372531  -0.320373  0  3.58667  0
N  N148  1  0.95431137  0.05698590  0.24352182  1  -1.253858  0  -0.240656  0.056678  0  3.786256  0
N  N149  1  0.04567267  0.44302278  0.74352661  1  -1.254109  0  -0.240792  0.056768  0  3.78584  0
N  N150  1  0.04569951  0.94301603  0.75648267  1  -1.25408  0  -0.240651  0.056753  0  3.786425  0
N  N151  1  0.95432622  0.55698941  0.25647117  1  -1.25433  0  -0.240695  0.057131  0  3.78563  0
N  N152  1  0.96645189  0.92186463  0.18093288  1  -1.242318  0  -0.3571  -0.290202  0  3.613949  0
N  N153  1  0.03353766  0.57814213  0.68093390  1  -1.242839  0  -0.35709  -0.290217  0  3.613986  0
N  N154  1  0.03357127  0.07813957  0.81907522  1  -1.242079  0  -0.356928  -0.289934  0  3.613808  0
N  N155  1  0.96646206  0.42186385  0.31905974  1  -1.24254  0  -0.357098  -0.290231  0  3.613845  0
O  O156  1  0.10634264  0.36114219  0.44822626  1  -1.15986  0  -0.3343  -0.543321  0  2.283199  0
O  O157  1  0.89367367  0.13887241  0.94823981  1  -1.159409  0  -0.33406  -0.543059  0  2.283473  0
O  O158  1  0.89364710  0.63886555  0.55176479  1  -1.159382  0  -0.334329  -0.543384  0  2.282824  0
O  O159  1  0.10635155  0.86114677  0.05176313  1  -1.159287  0  -0.334193  -0.543288  0  2.283175  0
O  O160  1  0.18045959  0.28641540  0.35754307  1  -1.19228  0  -0.341961  -0.588765  0  2.1216  0
O  O161  1  0.81956000  0.21359722  0.85755642  1  -1.191949  0  -0.341998  -0.588678  0  2.121642  0
O  O162  1  0.81952145  0.71358637  0.64244902  1  -1.192174  0  -0.342099  -0.588829  0  2.121497  0
O  O163  1  0.18045167  0.78640710  0.14244394  1  -1.192077  0  -0.341984  -0.588736  0  2.121592  0
O  O164  1  0.66465600  0.29437729  0.36525846  1  -1.183963  0  -0.346694  -0.577766  0  2.096169  0
O  O165  1  0.33535718  0.20561037  0.86527331  1  -1.183781  0  -0.346819  -0.577801  0  2.096186  0
O  O166  1  0.33532169  0.70561725  0.63472432  1  -1.183874  0  -0.346814  -0.5778  0  2.096275  0
O  O167  1  0.66465099  0.79438045  0.13473273  1  -1.183672  0  -0.34663  -0.577678  0  2.096234  0
O  O168  1  0.78792318  0.35396744  0.46178386  1  -1.159013  0  -0.336884  -0.54777  0  2.250681  0
O  O169  1  0.21208212  0.14604044  0.96180345  1  -1.158907  0  -0.336835  -0.547672  0  2.250822  0
O  O170  1  0.21205568  0.64602482  0.53819892  1  -1.159145  0  -0.336888  -0.54773  0  2.250786  0
O  O171  1  0.78794005  0.85398403  0.03821086  1  -1.159002  0  -0.336844  -0.54771  0  2.250761  0
O  O172  1  0.34989845  0.42356436  0.66940301  1  -1.167235  0  -0.295025  -0.516962  0  2.150781  0
O  O173  1  0.65007992  0.07641292  0.16941018  1  -1.167294  0  -0.294991  -0.517119  0  2.150533  0
O  O174  1  0.65010504  0.57643558  0.33058753  1  -1.16735  0  -0.295083  -0.517186  0  2.150579  0
O  O175  1  0.34994460  0.92358667  0.83058759  1  -1.166622  0  -0.294923  -0.516893  0  2.150656  0
O  O176  1  0.57008667  0.43302706  0.67033521  1  -1.12941  0  -0.326941  -0.471849  0  2.249187  0
O  O177  1  0.42988101  0.06691203  0.17034422  1  -1.129496  0  -0.327042  -0.472143  0  2.248862  0
O  O178  1  0.42989900  0.56692180  0.32966101  1  -1.129318  0  -0.327053  -0.472173  0  2.249162  0
O  O179  1  0.57014171  0.93307338  0.82966027  1  -1.129093  0  -0.326896  -0.471917  0  2.249293  0
