# generated using pymatgen
data_Al2H11(C11O5)2
_symmetry_space_group_name_H-M   'P 1'
_cell_length_a   6.71291984
_cell_length_b   19.27570517
_cell_length_c   21.54912508
_cell_angle_alpha   86.83538992
_cell_angle_beta   87.78134950
_cell_angle_gamma   87.89482428
_symmetry_Int_Tables_number   1
_chemical_formula_structural   Al2H11(C11O5)2
_chemical_formula_sum   'Al4 H22 C44 O20'
_cell_volume   2780.36400995
_cell_formula_units_Z   2
loop_
 _symmetry_equiv_pos_site_id
 _symmetry_equiv_pos_as_xyz
  1  'x, y, z'
loop_
 _atom_site_type_symbol
 _atom_site_label
 _atom_site_symmetry_multiplicity
 _atom_site_fract_x
 _atom_site_fract_y
 _atom_site_fract_z
 _atom_site_occupancy
 _atom_site_pbe_bader_charge
 _atom_site_pbe_bader_spin_density
 _atom_site_pbe_cm5_charge
 _atom_site_pbe_ddec_charge
 _atom_site_pbe_ddec_spin_density
 _atom_site_pbe_ddec_sum_bond_order
 _atom_site_pbe_magmom
Al  Al0  1  0.77246351  0.26549181  0.25928532  1  2.501221  0  0.408462  1.646139  0  2.573862  0
Al  Al1  1  0.22788340  0.73631647  0.73906941  1  2.498914  0  0.408004  1.64846  0  2.573241  0
Al  Al2  1  0.27101617  0.26523259  0.26020408  1  2.500001  0  0.408867  1.645995  0  2.572205  0
Al  Al3  1  0.72915067  0.73630244  0.73842561  1  2.50397  0  0.408518  1.648246  0  2.570913  0
H  H4  1  0.18773393  0.10572998  0.94634744  1  0.050845  0  0.103307  0.099794  0  0.98835  0
H  H5  1  0.81437602  0.91007881  0.04112591  1  0.06459  0  0.103648  0.100075  0  0.983293  0
H  H6  1  0.80906862  0.06509591  0.90944142  1  0.09485  0  0.102929  0.0992  0  0.990274  0
H  H7  1  0.19522097  0.94975213  0.07703307  1  0.075319  0  0.102927  0.098467  0  0.984078  0
H  H8  1  0.67192097  0.96689355  0.83534870  1  0.022644  0  0.076462  0.101049  0  1.052505  0
H  H9  1  0.50301820  0.90171170  0.82191487  1  0.040175  0  0.087871  0.122885  0  1.014064  0
H  H10  1  0.50198246  0.98047542  0.77446486  1  0.012102  0  0.082733  0.107909  0  1.00364  0
H  H11  1  0.21586816  0.98627498  0.84828105  1  0.032102  0  0.086776  0.075614  0  0.994837  0
H  H12  1  0.38911786  0.04709609  0.86794122  1  -0.006307  0  0.082677  0.062099  0  0.993627  0
H  H13  1  0.50134781  0.97118226  0.95666228  1  0.029553  0  0.090939  0.095429  0  1.009823  0
H  H14  1  0.36435908  0.90135768  0.93277001  1  0.032122  0  0.097045  0.102627  0  0.97557  0
H  H15  1  0.33404548  0.17949897  0.04703306  1  0.006473  0  0.075473  0.100749  0  1.057836  0
H  H16  1  0.51671764  0.19114422  0.10212581  1  0.021596  0  0.088855  0.128064  0  1.00172  0
H  H17  1  0.50359655  0.24776515  0.03432617  1  0.01072  0  0.08246  0.109463  0  1.007622  0
H  H18  1  0.78574917  0.16532861  0.01959489  1  0.02852  0  0.087286  0.076612  0  0.993083  0
H  H19  1  0.60062913  0.14703332  0.96780073  1  0.005064  0  0.08133  0.059626  0  0.994736  0
H  H20  1  0.50183722  0.04359214  0.03147013  1  0.015621  0  0.090048  0.093415  0  1.011922  0
H  H21  1  0.64286772  0.06706769  0.09418370  1  0.047179  0  0.095744  0.099774  0  0.979664  0
H  H22  1  0.52965177  0.17581335  0.27740488  1  0.62493  0  0.36076  0.442698  0  0.834818  0
H  H23  1  0.47036304  0.82740670  0.72900182  1  0.624673  0  0.358479  0.438297  0  0.845033  0
H  H24  1  0.01014228  0.35213834  0.27906569  1  0.666485  0  0.358994  0.441601  0  0.839446  0
H  H25  1  0.99028605  0.64861142  0.72131666  1  0.6313  0  0.359881  0.442438  0  0.836531  0
C  C26  1  0.52298277  0.34778026  0.17199061  1  1.699065  0  0.278665  0.69836  0  4.184532  0
C  C27  1  0.47670338  0.65217831  0.82546966  1  1.688752  0  0.277995  0.699709  0  4.180286  0
C  C28  1  0.50373145  0.34799563  0.34125243  1  1.697608  0  0.278376  0.707829  0  4.172027  0
C  C29  1  0.49699306  0.65460270  0.65673159  1  1.679364  0  0.278606  0.706521  0  4.170672  0
C  C30  1  0.01948843  0.17788608  0.34566759  1  1.669716  0  0.275876  0.702938  0  4.177253  0
C  C31  1  0.98054705  0.82456284  0.65359061  1  1.675989  0  0.275457  0.700387  0  4.180707  0
C  C32  1  0.04093500  0.18367959  0.17924602  1  1.673607  0  0.279266  0.722792  0  4.159334  0
C  C33  1  0.95888975  0.81650005  0.82045598  1  1.637791  0  0.280058  0.726708  0  4.153942  0
C  C34  1  0.89513278  0.04013850  0.94709584  1  -0.056832  0  -0.070839  -0.116535  0  3.642118  0
C  C35  1  0.10945412  0.97470015  0.03928174  1  -0.039167  0  -0.067544  -0.106335  0  3.620561  0
C  C36  1  0.10445808  0.06186128  0.96677777  1  -0.028669  0  -0.069963  -0.11483  0  3.639521  0
C  C37  1  0.89741897  0.95400297  0.02063653  1  -0.021591  0  -0.068395  -0.107774  0  3.622803  0
C  C38  1  0.05048941  0.13637725  0.13004139  1  0.182429  0  -0.04044  -0.216117  0  3.957306  0
C  C39  1  0.94978571  0.86471259  0.86889837  1  0.252844  0  -0.041696  -0.219364  0  3.960089  0
C  C40  1  0.82205386  0.03234408  0.01711445  1  0.025827  0  0.003654  0.086991  0  3.649117  0
C  C41  1  0.18112811  0.98389563  0.96895154  1  0.019737  0  0.004474  0.088564  0  3.64363  0
C  C42  1  0.03557277  0.05359050  0.03768184  1  0.092987  0  0.002816  0.075666  0  3.822387  0
C  C43  1  0.96760727  0.96112748  0.94978220  1  0.086895  0  0.002297  0.076236  0  3.822816  0
C  C44  1  0.05511875  0.09864901  0.08638714  1  -0.478151  0  -0.010737  -0.006646  0  4.073875  0
C  C45  1  0.94684232  0.91008967  0.90618688  1  -0.510843  0  -0.010719  -0.00595  0  4.075455  0
C  C46  1  0.98299529  0.87746576  0.60367205  1  0.287021  0  0.001157  -0.132635  0  3.822943  0
C  C47  1  0.01627423  0.12448710  0.39511709  1  0.139573  0  3.7e-05  -0.135821  0  3.826113  0
C  C48  1  0.98873914  0.92453230  0.56300459  1  -0.344947  0  -0.006926  0.027229  0  4.255901  0
C  C49  1  0.01007853  0.07684852  0.43523261  1  -0.202879  0  -0.007504  0.028465  0  4.2565  0
C  C50  1  0.99569943  0.97639154  0.51894701  1  -0.042474  0  0.002531  0.000303  0  4.189225  0
C  C51  1  0.00291637  0.02460455  0.47890650  1  0.007196  0  0.002099  -0.001027  0  4.188941  0
C  C52  1  0.52072265  0.39427645  0.11739050  1  -0.057998  0  0.005582  -0.129806  0  3.822806  0
C  C53  1  0.47846983  0.60536980  0.87988952  1  -0.044202  0  0.004265  -0.12869  0  3.820389  0
C  C54  1  0.51250865  0.43490409  0.07164115  1  -0.010476  0  -0.005122  0.02743  0  4.251675  0
C  C55  1  0.48542791  0.56497076  0.92582391  1  -0.02628  0  -0.005583  0.02756  0  4.254298  0
C  C56  1  0.50317870  0.47945729  0.02172443  1  -0.152494  0  0.002308  0.000153  0  4.187788  0
C  C57  1  0.49396160  0.52055145  0.97587369  1  0.098164  0  0.002051  -0.001349  0  4.187858  0
C  C58  1  0.49676006  0.39456845  0.39138854  1  0.053227  0  0.000898  -0.13549  0  3.823534  0
C  C59  1  0.50404835  0.60730744  0.60715678  1  0.217987  0  0.001085  -0.135154  0  3.82362  0
C  C60  1  0.49762394  0.43514482  0.43326175  1  -0.124187  0  -0.006191  0.029003  0  4.255303  0
C  C61  1  0.50353749  0.56622614  0.56567875  1  -0.305836  0  -0.006213  0.028429  0  4.255689  0
C  C62  1  0.49934534  0.47981988  0.47878597  1  0.074043  0  0.003535  0.000913  0  4.179927  0
C  C63  1  0.50205757  0.52125129  0.52038543  1  -0.10094  0  0.004693  0.002433  0  4.179431  0
C  C64  1  0.36458871  0.95853476  0.93367151  1  0.003225  0  -0.161713  -0.210641  0  3.958014  0
C  C65  1  0.36523634  0.99093179  0.86670197  1  -0.01707  0  -0.164556  -0.077449  0  3.957331  0
C  C66  1  0.51897731  0.95826895  0.82213663  1  -0.060294  0  -0.250223  -0.358895  0  3.965618  0
C  C67  1  0.63870597  0.06915426  0.04296631  1  -0.02526  0  -0.16195  -0.210132  0  3.963351  0
C  C68  1  0.63457838  0.14543910  0.01754543  1  0.003132  0  -0.163912  -0.07622  0  3.960346  0
C  C69  1  0.48910158  0.19358429  0.05208748  1  -0.028585  0  -0.251307  -0.359411  0  3.961183  0
O  O70  1  0.33706762  0.32993831  0.32214392  1  -1.235271  0  -0.226851  -0.582734  0  2.275756  0
O  O71  1  0.66361428  0.67318333  0.67542639  1  -1.222952  0  -0.224699  -0.578998  0  2.276819  0
O  O72  1  0.69294208  0.32996076  0.19297448  1  -1.231193  0  -0.221263  -0.568238  0  2.282336  0
O  O73  1  0.30676206  0.67064925  0.80484139  1  -1.2155  0  -0.222104  -0.569183  0  2.280946  0
O  O74  1  0.86664922  0.20279134  0.19877467  1  -1.236335  0  -0.228452  -0.588004  0  2.295104  0
O  O75  1  0.13304648  0.79823314  0.80017195  1  -1.243653  0  -0.229148  -0.589575  0  2.290293  0
O  O76  1  0.67767629  0.33027701  0.32067152  1  -1.222388  0  -0.225037  -0.581583  0  2.283144  0
O  O77  1  0.32319135  0.67237646  0.67732791  1  -1.22238  0  -0.224521  -0.580484  0  2.283275  0
O  O78  1  0.85000604  0.19827044  0.32554240  1  -1.232158  0  -0.226911  -0.582185  0  2.282109  0
O  O79  1  0.15034087  0.80399303  0.67327749  1  -1.225028  0  -0.225534  -0.577986  0  2.280448  0
O  O80  1  0.35317346  0.32990154  0.19436001  1  -1.225619  0  -0.219558  -0.568056  0  2.2897  0
O  O81  1  0.64674319  0.66967952  0.80296967  1  -1.225473  0  -0.221636  -0.570793  0  2.288054  0
O  O82  1  0.52572155  0.22429007  0.26280123  1  -1.423812  0  -0.446039  -0.998221  0  2.190887  0
O  O83  1  0.47453602  0.77737115  0.73668432  1  -1.423915  0  -0.44663  -1.001365  0  2.200707  0
O  O84  1  0.19077206  0.19821053  0.32653231  1  -1.225981  0  -0.227299  -0.58289  0  2.278473  0
O  O85  1  0.80948337  0.80480214  0.67347556  1  -1.225401  0  -0.226661  -0.580153  0  2.279714  0
O  O86  1  0.20548482  0.20218715  0.19965906  1  -1.242739  0  -0.226697  -0.586115  0  2.299669  0
O  O87  1  0.79407941  0.79727566  0.80077933  1  -1.245449  0  -0.226728  -0.588282  0  2.301922  0
O  O88  1  0.01739313  0.30732634  0.26056574  1  -1.465777  0  -0.445655  -0.994322  0  2.177457  0
O  O89  1  0.98302031  0.69453361  0.73766244  1  -1.430641  0  -0.4453  -0.995906  0  2.181483  0
