# generated using pymatgen
data_H14Pb(C3O)6
_symmetry_space_group_name_H-M   'P 1'
_cell_length_a   9.98837715
_cell_length_b   9.92524420
_cell_length_c   37.84406137
_cell_angle_alpha   89.99965904
_cell_angle_beta   89.99979799
_cell_angle_gamma   96.33668990
_symmetry_Int_Tables_number   1
_chemical_formula_structural   H14Pb(C3O)6
_chemical_formula_sum   'H112 Pb8 C144 O48'
_cell_volume   3728.82844465
_cell_formula_units_Z   8
loop_
 _symmetry_equiv_pos_site_id
 _symmetry_equiv_pos_as_xyz
  1  'x, y, z'
loop_
 _atom_site_type_symbol
 _atom_site_label
 _atom_site_symmetry_multiplicity
 _atom_site_fract_x
 _atom_site_fract_y
 _atom_site_fract_z
 _atom_site_occupancy
 _atom_site_pbe_bader_charge
 _atom_site_pbe_bader_spin_density
 _atom_site_pbe_cm5_charge
 _atom_site_pbe_ddec_charge
 _atom_site_pbe_ddec_spin_density
 _atom_site_pbe_ddec_sum_bond_order
 _atom_site_pbe_magmom
H  H0  1  0.32461712  0.96994564  0.69868599  1  0.082848  0  0.101955  0.115306  0  1.011481  0
H  H1  1  0.14067223  0.06295499  0.73153263  1  0.070469  0  0.104159  0.116184  0  0.99389  0
H  H2  1  0.93075014  0.10683051  0.70041427  1  0.078504  0  0.103582  0.111601  0  0.991575  0
H  H3  1  0.81861307  0.09375407  0.55972066  1  0.120313  0  0.101163  0.111605  0  1.022205  0
H  H4  1  0.70439309  0.91481278  0.52197887  1  0.088472  0  0.10477  0.119104  0  1.006206  0
H  H5  1  0.62782811  0.68681092  0.54705541  1  0.058001  0  0.105002  0.113598  0  0.988801  0
H  H6  1  0.61210453  0.51609176  0.68358450  1  0.082084  0  0.102024  0.1125  0  1.002886  0
H  H7  1  0.77556526  0.40850109  0.72008429  1  0.111846  0  0.105215  0.119842  0  1.001865  0
H  H8  1  0.00196278  0.37724902  0.69613455  1  0.082529  0  0.104198  0.115028  0  1.000468  0
H  H9  1  0.18050530  0.43429010  0.56042753  1  0.096073  0  0.101142  0.115804  0  1.018717  0
H  H10  1  0.31446683  0.62240861  0.52953608  1  0.094362  0  0.10365  0.115107  0  1.003288  0
H  H11  1  0.37932976  0.84134047  0.56022894  1  0.058785  0  0.102678  0.111406  0  0.99068  0
H  H12  1  0.79992805  0.10442229  0.65214388  1  0.051882  0  0.101042  0.10851  0  0.975991  0
H  H13  1  0.88895743  0.17474333  0.61568311  1  0.048251  0  0.09331  0.089  0  1.034901  0
H  H14  1  0.61114287  0.53539064  0.59137848  1  0.056316  0  0.102542  0.111212  0  0.969165  0
H  H15  1  0.54841090  0.60656791  0.62949486  1  0.040081  0  0.094774  0.094997  0  1.006583  0
H  H16  1  0.09043760  0.33722595  0.61313605  1  0.05374  0  0.091453  0.084889  0  1.04771  0
H  H17  1  0.15888522  0.39965733  0.65320461  1  0.059827  0  0.104227  0.116805  0  0.96161  0
H  H18  1  0.41598158  0.89982170  0.64611051  1  0.039983  0  0.094737  0.091491  0  1.033515  0
H  H19  1  0.37278149  0.98088640  0.60724413  1  0.027498  0  0.101372  0.108457  0  0.970457  0
H  H20  1  0.23407291  0.15194226  0.58293218  1  0.056309  0  0.108536  0.09652  0  0.959964  0
H  H21  1  0.06115424  0.17899449  0.58316002  1  0.038736  0  0.098743  0.070849  0  1.062822  0
H  H22  1  0.56762289  0.76839586  0.66815390  1  0.055038  0  0.104296  0.081245  0  1.039426  0
H  H23  1  0.61670077  0.94618718  0.66775341  1  0.050891  0  0.107616  0.092613  0  0.981888  0
H  H24  1  0.76006070  0.34719832  0.57615767  1  0.067682  0  0.109677  0.097711  0  0.965216  0
H  H25  1  0.93578203  0.33140275  0.57549488  1  0.052183  0  0.101977  0.078147  0  1.045223  0
H  H26  1  0.37310621  0.75094089  0.68799701  1  0.115243  0  0.106029  0.090786  0  1.047403  0
H  H27  1  0.37033377  0.58190738  0.67144422  1  0.061897  0  0.10743  0.093023  0  0.992088  0
H  H28  1  0.17537488  0.03004637  0.19868814  1  0.082771  0  0.101901  0.115256  0  1.011395  0
H  H29  1  0.35932284  0.93704128  0.23153476  1  0.070441  0  0.104184  0.116206  0  0.993911  0
H  H30  1  0.56925445  0.89317938  0.20041780  1  0.078424  0  0.10363  0.111622  0  0.991536  0
H  H31  1  0.68139703  0.90626123  0.05972300  1  0.120534  0  0.101234  0.111672  0  1.022394  0
H  H32  1  0.79562026  0.08520037  0.02198267  1  0.088837  0  0.104773  0.119092  0  1.00636  0
H  H33  1  0.87217319  0.31320476  0.04705825  1  0.057961  0  0.104988  0.113601  0  0.988877  0
H  H34  1  0.88789306  0.48389933  0.18358733  1  0.082155  0  0.102005  0.112398  0  1.00292  0
H  H35  1  0.72442595  0.59147394  0.22008921  1  0.112113  0  0.105242  0.119888  0  1.001904  0
H  H36  1  0.49802470  0.62272991  0.19613996  1  0.082763  0  0.104239  0.114976  0  1.000319  0
H  H37  1  0.31949965  0.56571126  0.06042870  1  0.096115  0  0.101164  0.115855  0  1.018691  0
H  H38  1  0.18554662  0.37759343  0.02953741  1  0.094118  0  0.103624  0.115076  0  1.003373  0
H  H39  1  0.12067707  0.15865986  0.06022908  1  0.058824  0  0.102668  0.111402  0  0.990696  0
H  H40  1  0.70007596  0.89558574  0.15214596  1  0.052196  0  0.101043  0.108549  0  0.975952  0
H  H41  1  0.61104741  0.82526761  0.11568538  1  0.048363  0  0.093286  0.088951  0  1.034962  0
H  H42  1  0.88885412  0.46461892  0.09137869  1  0.056218  0  0.102528  0.11115  0  0.969231  0
H  H43  1  0.95159296  0.39344473  0.12949460  1  0.040061  0  0.094811  0.09506  0  1.006412  0
H  H44  1  0.40955926  0.66277216  0.11313884  1  0.053678  0  0.091489  0.084899  0  1.047706  0
H  H45  1  0.34110963  0.60033678  0.15320755  1  0.060578  0  0.104181  0.11674  0  0.961619  0
H  H46  1  0.08401315  0.10017056  0.14611052  1  0.039971  0  0.094736  0.091496  0  1.03349  0
H  H47  1  0.12722111  0.01910877  0.10724370  1  0.027429  0  0.101364  0.10847  0  0.970466  0
H  H48  1  0.26592296  0.84805254  0.08293534  1  0.056217  0  0.108518  0.096535  0  0.959911  0
H  H49  1  0.43884314  0.82099623  0.08316517  1  0.038505  0  0.098759  0.070934  0  1.0627  0
H  H50  1  0.93238915  0.23160563  0.16815232  1  0.054981  0  0.104313  0.081277  0  1.03936  0
H  H51  1  0.88330439  0.05381539  0.16775374  1  0.051087  0  0.107661  0.092676  0  0.981844  0
H  H52  1  0.73994853  0.65283688  0.07616063  1  0.068  0  0.109656  0.097619  0  0.96528  0
H  H53  1  0.56422749  0.66862638  0.07549719  1  0.052341  0  0.101981  0.07803  0  1.045145  0
H  H54  1  0.12687604  0.24906060  0.18799674  1  0.115104  0  0.106065  0.090883  0  1.047403  0
H  H55  1  0.12965575  0.41809446  0.17144421  1  0.061777  0  0.107461  0.093122  0  0.991975  0
H  H56  1  0.67537527  0.03004906  0.30131008  1  0.082577  0  0.101917  0.115249  0  1.01152  0
H  H57  1  0.85932404  0.93703867  0.26846397  1  0.070365  0  0.10418  0.116188  0  0.993904  0
H  H58  1  0.06925408  0.89317120  0.29958074  1  0.078356  0  0.103626  0.111636  0  0.991552  0
H  H59  1  0.18138904  0.90624664  0.44027647  1  0.120409  0  0.101179  0.111613  0  1.022247  0
H  H60  1  0.29560842  0.08518286  0.47801773  1  0.088637  0  0.104767  0.1191  0  1.00634  0
H  H61  1  0.37216399  0.31318987  0.45294304  1  0.058064  0  0.105021  0.113639  0  0.988795  0
H  H62  1  0.38789354  0.48389174  0.31641236  1  0.082084  0  0.102067  0.112498  0  1.002834  0
H  H63  1  0.22443086  0.59147431  0.27991045  1  0.111685  0  0.105239  0.119894  0  1.001849  0
H  H64  1  0.99803017  0.62273350  0.30385993  1  0.082578  0  0.104237  0.114982  0  1.000388  0
H  H65  1  0.81949616  0.56571366  0.43957118  1  0.096113  0  0.101139  0.115791  0  1.01865  0
H  H66  1  0.68553951  0.37759409  0.47046263  1  0.094156  0  0.103634  0.115089  0  1.003289  0
H  H67  1  0.62067646  0.15866122  0.43977057  1  0.058846  0  0.102676  0.111416  0  0.990666  0
H  H68  1  0.20007653  0.89558246  0.34785299  1  0.052134  0  0.101072  0.108513  0  0.975959  0
H  H69  1  0.11104756  0.82525634  0.38431323  1  0.048297  0  0.093304  0.088966  0  1.034784  0
H  H70  1  0.38885211  0.46460911  0.40862156  1  0.056309  0  0.102548  0.111214  0  0.969157  0
H  H71  1  0.45159009  0.39343180  0.37050596  1  0.040067  0  0.094798  0.095031  0  1.006524  0
H  H72  1  0.90956139  0.66277377  0.38686055  1  0.053667  0  0.09148  0.084902  0  1.047734  0
H  H73  1  0.84111381  0.60033427  0.34679225  1  0.060567  0  0.104238  0.116884  0  0.96156  0
H  H74  1  0.58401616  0.10017601  0.35389005  1  0.040038  0  0.094726  0.091508  0  1.033491  0
H  H75  1  0.62722614  0.01911021  0.39275617  1  0.027477  0  0.101367  0.108458  0  0.97053  0
H  H76  1  0.76592480  0.84803819  0.41706441  1  0.056114  0  0.108526  0.096621  0  0.959888  0
H  H77  1  0.93884683  0.82098898  0.41683394  1  0.038912  0  0.098733  0.070965  0  1.062558  0
H  H78  1  0.43237922  0.23160486  0.33184429  1  0.055059  0  0.104324  0.081341  0  1.039346  0
H  H79  1  0.38329557  0.05381561  0.33224319  1  0.050981  0  0.107622  0.092608  0  0.98203  0
H  H80  1  0.23995364  0.65282969  0.42383734  1  0.067989  0  0.109674  0.097656  0  0.96531  0
H  H81  1  0.06423043  0.66862629  0.42450224  1  0.052042  0  0.102  0.078112  0  1.04507  0
H  H82  1  0.62689430  0.24905476  0.31200329  1  0.115161  0  0.106044  0.090795  0  1.047388  0
H  H83  1  0.62967610  0.41809124  0.32855450  1  0.061552  0  0.107372  0.092908  0  0.992072  0
H  H84  1  0.82461710  0.96995341  0.80131401  1  0.082617  0  0.101948  0.115215  0  1.011483  0
H  H85  1  0.64066950  0.06296154  0.76846739  1  0.070509  0  0.104186  0.116188  0  0.993915  0
H  H86  1  0.43074397  0.10683252  0.79958594  1  0.078421  0  0.103555  0.111562  0  0.991581  0
H  H87  1  0.31860455  0.09374355  0.94028126  1  0.120319  0  0.101181  0.111593  0  1.02237  0
H  H88  1  0.20438284  0.91480033  0.97802185  1  0.088601  0  0.104768  0.119106  0  1.006191  0
H  H89  1  0.12781963  0.68680212  0.95294416  1  0.05781  0  0.104948  0.113556  0  0.988766  0
H  H90  1  0.11211053  0.51610543  0.81641614  1  0.082131  0  0.102053  0.112493  0  1.002971  0
H  H91  1  0.27557367  0.40852273  0.77991584  1  0.111929  0  0.105205  0.119817  0  1.001923  0
H  H92  1  0.50197004  0.37726782  0.80386536  1  0.082682  0  0.104235  0.115079  0  1.000407  0
H  H93  1  0.68051446  0.43428935  0.93957292  1  0.096132  0  0.101189  0.11584  0  1.018599  0
H  H94  1  0.81447173  0.62240918  0.97046368  1  0.094321  0  0.103629  0.115043  0  1.003295  0
H  H95  1  0.87932851  0.84134488  0.93977148  1  0.058733  0  0.102641  0.111377  0  0.990673  0
H  H96  1  0.29992398  0.10442209  0.84785698  1  0.051856  0  0.101073  0.108515  0  0.97605  0
H  H97  1  0.38895177  0.17474226  0.88431730  1  0.048342  0  0.093323  0.089069  0  1.034813  0
H  H98  1  0.11114258  0.53538691  0.90862267  1  0.05619  0  0.102568  0.111221  0  0.969266  0
H  H99  1  0.04840703  0.60655498  0.87050570  1  0.039979  0  0.094762  0.094979  0  1.006573  0
H  H100  1  0.59043872  0.33722757  0.88686490  1  0.05362  0  0.091477  0.084916  0  1.047675  0
H  H101  1  0.65888835  0.39966295  0.84679539  1  0.059815  0  0.104233  0.116796  0  0.961646  0
H  H102  1  0.91597895  0.89983024  0.85388951  1  0.040054  0  0.094715  0.091462  0  1.033545  0
H  H103  1  0.87277811  0.98089298  0.89275660  1  0.027417  0  0.101379  0.108508  0  0.970443  0
H  H104  1  0.73407378  0.15194518  0.91706734  1  0.056284  0  0.108543  0.09652  0  0.959971  0
H  H105  1  0.56115608  0.17900552  0.91683962  1  0.038742  0  0.098739  0.070847  0  1.062761  0
H  H106  1  0.06760095  0.76839518  0.83185168  1  0.054789  0  0.104277  0.081245  0  1.039377  0
H  H107  1  0.11667359  0.94618451  0.83224523  1  0.050514  0  0.107595  0.092619  0  0.981884  0
H  H108  1  0.26005185  0.34718312  0.92384205  1  0.067922  0  0.109685  0.097717  0  0.965213  0
H  H109  1  0.43577393  0.33138550  0.92450443  1  0.052434  0  0.101992  0.078144  0  1.04515  0
H  H110  1  0.87311698  0.75093105  0.81200408  1  0.11529  0  0.106049  0.090782  0  1.047445  0
H  H111  1  0.87033051  0.58189929  0.82855794  1  0.061766  0  0.107421  0.093039  0  0.992015  0
Pb  Pb112  1  0.99460266  0.75127355  0.53339836  1  1.451537  0  0.671341  1.138046  0  1.85946  0
Pb  Pb113  1  0.97786101  0.72870262  0.71587272  1  1.453742  0  0.671542  1.139431  0  1.860588  0
Pb  Pb114  1  0.50540450  0.24873937  0.03340243  1  1.45149  0  0.671355  1.138074  0  1.859487  0
Pb  Pb115  1  0.52212978  0.27129383  0.21586908  1  1.453754  0  0.67154  1.139441  0  1.860662  0
Pb  Pb116  1  0.00541812  0.24874121  0.46659718  1  1.451493  0  0.671367  1.138108  0  1.859475  0
Pb  Pb117  1  0.02212942  0.27128399  0.28412996  1  1.453685  0  0.671539  1.139424  0  1.860648  0
Pb  Pb118  1  0.49458527  0.75127565  0.96660156  1  1.451528  0  0.671366  1.138047  0  1.859524  0
Pb  Pb119  1  0.47786168  0.72871002  0.78412646  1  1.453794  0  0.671557  1.139481  0  1.860623  0
C  C120  1  0.10557403  0.00032072  0.63081649  1  0.42372  0  0.073502  0.132091  0  3.960737  0
C  C121  1  0.22235383  0.96853541  0.64824325  1  0.053337  0  -0.019103  0.028805  0  3.980632  0
C  C122  1  0.23464940  0.99339518  0.68457521  1  -0.07479  0  -0.098135  -0.14998  0  4.01463  0
C  C123  1  0.13128354  0.04583087  0.70317813  1  -0.118359  0  -0.100547  -0.108449  0  4.082651  0
C  C124  1  0.01378623  0.07119303  0.68562693  1  -0.022192  0  -0.094839  -0.148046  0  4.03306  0
C  C125  1  0.99853381  0.04952611  0.64916001  1  0.010879  0  -0.016406  0.029765  0  3.96312  0
C  C126  1  0.75590056  0.84365122  0.62129277  1  0.360628  0  0.073564  0.133445  0  3.95367  0
C  C127  1  0.80318713  0.97141666  0.60733299  1  -0.012412  0  -0.018147  0.028658  0  3.980307  0
C  C128  1  0.78308225  0.99561340  0.57140185  1  -0.018326  0  -0.098136  -0.143112  0  4.00418  0
C  C129  1  0.71810919  0.89432345  0.54991642  1  -0.052535  0  -0.100587  -0.112456  0  4.0847  0
C  C130  1  0.67561614  0.76689570  0.56407913  1  -0.050581  0  -0.094656  -0.154957  0  4.045122  0
C  C131  1  0.69322890  0.73875977  0.60001424  1  -0.035627  0  -0.014909  0.029778  0  3.958231  0
C  C132  1  0.86357961  0.50426514  0.62324124  1  0.371529  0  0.071406  0.129899  0  3.964033  0
C  C133  1  0.73924423  0.53308438  0.63710237  1  0.000617  0  -0.019409  0.025854  0  3.988966  0
C  C134  1  0.70832492  0.49624937  0.67208809  1  -0.03175  0  -0.098159  -0.146654  0  4.014681  0
C  C135  1  0.80035373  0.43535982  0.69282397  1  -0.049442  0  -0.098786  -0.101432  0  4.07281  0
C  C136  1  0.92713098  0.41714073  0.67924981  1  -0.100671  0  -0.096489  -0.158526  0  4.032469  0
C  C137  1  0.96167558  0.45143755  0.64419406  1  -0.004877  0  -0.016915  0.025702  0  3.96415  0
C  C138  1  0.21959881  0.66441384  0.62754433  1  0.442892  0  0.072192  0.131189  0  3.973475  0
C  C139  1  0.17643864  0.54204845  0.61023130  1  -0.04535  0  -0.020223  0.026863  0  3.981041  0
C  C140  1  0.21185584  0.52815955  0.57471978  1  -0.062542  0  -0.098955  -0.153409  0  4.011605  0
C  C141  1  0.28762408  0.63441440  0.55711848  1  0.00733  0  -0.100665  -0.107274  0  4.081693  0
C  C142  1  0.32399268  0.75711562  0.57441249  1  -0.067779  0  -0.094612  -0.1431  0  4.024811  0
C  C143  1  0.29034515  0.77500669  0.60991846  1  -0.025912  0  -0.017009  0.029571  0  3.962357  0
C  C144  1  0.87016458  0.08083870  0.63119289  1  -0.007818  0  -0.15161  -0.208207  0  3.96485  0
C  C145  1  0.64151903  0.60002037  0.61427923  1  -0.000313  0  -0.149334  -0.206254  0  3.966658  0
C  C146  1  0.09930440  0.42692143  0.63034977  1  -0.015361  0  -0.15136  -0.206293  0  3.95925  0
C  C147  1  0.33210035  0.90948949  0.62784982  1  0.000741  0  -0.151657  -0.209665  0  3.9709  0
C  C148  1  0.13164350  0.10613847  0.57580883  1  0.425107  0  -0.066698  -0.120015  0  3.908097  0
C  C149  1  0.12503134  0.09061947  0.53569105  1  1.614032  0  0.216864  0.602112  0  4.195134  0
C  C150  1  0.64865958  0.84740939  0.67562842  1  0.440311  0  -0.068507  -0.126557  0  3.912035  0
C  C151  1  0.65909063  0.84690715  0.71583842  1  1.586043  0  0.215085  0.601705  0  4.195686  0
C  C152  1  0.85953421  0.39904973  0.56860634  1  0.377929  0  -0.067911  -0.125255  0  3.912282  0
C  C153  1  0.86271348  0.41413317  0.52860374  1  1.642923  0  0.216487  0.603017  0  4.195177  0
C  C154  1  0.30973043  0.65376292  0.68452471  1  0.358195  0  -0.071963  -0.142208  0  3.910478  0
C  C155  1  0.27682747  0.60175055  0.72161777  1  1.610751  0  0.214217  0.604169  0  4.199415  0
C  C156  1  0.39442642  0.99967592  0.13081850  1  0.423953  0  0.07333  0.131848  0  3.960983  0
C  C157  1  0.27764322  0.03145982  0.14824398  1  0.053255  0  -0.019124  0.028868  0  3.980426  0
C  C158  1  0.26534507  0.00659919  0.18457599  1  -0.075033  0  -0.098075  -0.149888  0  4.014397  0
C  C159  1  0.36871311  0.95416709  0.20317944  1  -0.118276  0  -0.10058  -0.108547  0  4.082915  0
C  C160  1  0.48621654  0.92881240  0.18563002  1  -0.022198  0  -0.094864  -0.147982  0  4.03314  0
C  C161  1  0.50146977  0.95047794  0.14916271  1  0.010709  0  -0.016407  0.029665  0  3.963297  0
C  C162  1  0.74410395  0.15635755  0.12129386  1  0.360988  0  0.073549  0.133025  0  3.953189  0
C  C163  1  0.69681908  0.02859650  0.10733592  1  -0.012906  0  -0.018196  0.02882  0  3.979965  0
C  C164  1  0.71692194  0.00439558  0.07140400  1  -0.015615  0  -0.098168  -0.143296  0  4.004361  0
C  C165  1  0.78189983  0.10569007  0.04991835  1  -0.055666  0  -0.100571  -0.112346  0  4.084904  0
C  C166  1  0.82438900  0.23312055  0.06408056  1  -0.050574  0  -0.094669  -0.155382  0  4.045122  0
C  C167  1  0.80677319  0.26125158  0.10001591  1  -0.036039  0  -0.01485  0.030784  0  3.956917  0
C  C168  1  0.63642518  0.49575475  0.12324137  1  0.371482  0  0.071398  0.129882  0  3.964319  0
C  C169  1  0.76075502  0.46692406  0.13710269  1  0.001475  0  -0.019403  0.025702  0  3.989162  0
C  C170  1  0.79167273  0.50374098  0.17209017  1  -0.03267  0  -0.098038  -0.14629  0  4.014578  0
C  C171  1  0.69963775  0.56462297  0.19282764  1  -0.051342  0  -0.098847  -0.101742  0  4.072774  0
C  C172  1  0.57286020  0.58284645  0.17925303  1  -0.099213  0  -0.096508  -0.158258  0  4.032062  0
C  C173  1  0.53832460  0.54856259  0.14419552  1  -0.004926  0  -0.017017  0.025542  0  3.964201  0
C  C174  1  0.28039682  0.33558393  0.12754538  1  0.442873  0  0.07219  0.131176  0  3.973693  0
C  C175  1  0.32356215  0.45794869  0.11023264  1  -0.04545  0  -0.020258  0.026828  0  3.981061  0
C  C176  1  0.28814752  0.47183843  0.07472033  1  -0.062339  0  -0.09893  -0.153464  0  4.011626  0
C  C177  1  0.21238445  0.36558295  0.05711875  1  0.007599  0  -0.10069  -0.107248  0  4.081885  0
C  C178  1  0.17601357  0.24288132  0.07441299  1  -0.067839  0  -0.094634  -0.143162  0  4.024934  0
C  C179  1  0.20965752  0.22498943  0.10991895  1  -0.025818  0  -0.017007  0.029598  0  3.962291  0
C  C180  1  0.62983864  0.91916883  0.13119526  1  -0.007565  0  -0.151574  -0.208148  0  3.964646  0
C  C181  1  0.85848171  0.39998963  0.11427983  1  -0.000453  0  -0.149366  -0.206451  0  3.966227  0
C  C182  1  0.40069507  0.57307523  0.13035244  1  -0.016143  0  -0.15136  -0.206245  0  3.959178  0
C  C183  1  0.16789755  0.09050217  0.12784977  1  0.000793  0  -0.151565  -0.209605  0  3.970799  0
C  C184  1  0.36835748  0.89385646  0.07581260  1  0.425512  0  -0.066587  -0.119989  0  3.908113  0
C  C185  1  0.37498106  0.90937431  0.03569612  1  1.613669  0  0.21692  0.602115  0  4.195106  0
C  C186  1  0.85134957  0.15259397  0.17562942  1  0.440152  0  -0.068572  -0.126738  0  3.911818  0
C  C187  1  0.84092224  0.15309824  0.21583838  1  1.586036  0  0.215186  0.602018  0  4.195087  0
C  C188  1  0.64047766  0.60098157  0.06860894  1  0.377165  0  -0.06781  -0.124826  0  3.912226  0
C  C189  1  0.63729780  0.58589709  0.02860717  1  1.643106  0  0.216481  0.602716  0  4.195414  0
C  C190  1  0.19025640  0.34623456  0.18452423  1  0.358462  0  -0.072018  -0.142501  0  3.910565  0
C  C191  1  0.22315569  0.39823693  0.22161956  1  1.610498  0  0.21417  0.604451  0  4.199471  0
C  C192  1  0.89442475  0.99966886  0.36918116  1  0.423678  0  0.073326  0.131892  0  3.960635  0
C  C193  1  0.77764555  0.03145923  0.35175441  1  0.053498  0  -0.019154  0.028851  0  3.9803  0
C  C194  1  0.76534787  0.00659847  0.31542245  1  -0.074823  0  -0.098043  -0.149943  0  4.014589  0
C  C195  1  0.86871373  0.95416278  0.29681926  1  -0.118222  0  -0.10058  -0.108418  0  4.082792  0
C  C196  1  0.98621352  0.92880465  0.31436861  1  -0.022332  0  -0.094903  -0.148107  0  4.033244  0
C  C197  1  0.00146670  0.95046954  0.35083580  1  0.011218  0  -0.016282  0.029823  0  3.963094  0
C  C198  1  0.24409590  0.15635258  0.37870568  1  0.360771  0  0.073469  0.13317  0  3.953495  0
C  C199  1  0.19681133  0.02858713  0.39266387  1  -0.013092  0  -0.018173  0.028716  0  3.980058  0
C  C200  1  0.21691273  0.00438636  0.42859528  1  -0.015745  0  -0.098117  -0.143035  0  4.004177  0
C  C201  1  0.28188868  0.10567527  0.45008150  1  -0.055352  0  -0.100596  -0.112515  0  4.084902  0
C  C202  1  0.32437720  0.23310711  0.43591958  1  -0.05073  0  -0.094683  -0.155079  0  4.045258  0
C  C203  1  0.30676568  0.26124507  0.39998473  1  -0.035372  0  -0.014851  0.029918  0  3.95802  0
C  C204  1  0.13642817  0.49574973  0.37675826  1  0.371679  0  0.071368  0.129809  0  3.96439  0
C  C205  1  0.26075923  0.46691936  0.36289687  1  0.00106  0  -0.019391  0.025866  0  3.989032  0
C  C206  1  0.29167675  0.50373916  0.32790904  1  -0.032564  0  -0.098134  -0.146501  0  4.014629  0
C  C207  1  0.19964422  0.56462266  0.30717183  1  -0.051042  0  -0.098854  -0.101744  0  4.07293  0
C  C208  1  0.07286492  0.58284988  0.32074732  1  -0.098924  0  -0.096477  -0.158256  0  4.032288  0
C  C209  1  0.03832965  0.54856415  0.35580412  1  -0.004912  0  -0.016934  0.025654  0  3.964281  0
C  C210  1  0.78040670  0.33558176  0.37245491  1  0.442804  0  0.07221  0.131215  0  3.97357  0
C  C211  1  0.82356699  0.45794818  0.38976662  1  -0.045615  0  -0.020179  0.027014  0  3.980805  0
C  C212  1  0.78814815  0.47184013  0.42527841  1  -0.062299  0  -0.098933  -0.153399  0  4.01153  0
C  C213  1  0.71238279  0.36558424  0.44288049  1  0.007652  0  -0.100707  -0.107354  0  4.081879  0
C  C214  1  0.67601507  0.24288199  0.42558648  1  -0.067855  0  -0.094687  -0.143189  0  4.025067  0
C  C215  1  0.70966624  0.22498786  0.39008104  1  -0.025861  0  -0.016985  0.029598  0  3.962462  0
C  C216  1  0.12983652  0.91916202  0.36880371  1  -0.007784  0  -0.151587  -0.208066  0  3.96443  0
C  C217  1  0.35847955  0.39998443  0.38571975  1  -0.000317  0  -0.149387  -0.206264  0  3.96654  0
C  C218  1  0.90069859  0.57307826  0.36964735  1  -0.015974  0  -0.151463  -0.206478  0  3.95917  0
C  C219  1  0.66790203  0.09050513  0.37215022  1  0.00068  0  -0.151608  -0.209687  0  3.970898  0
C  C220  1  0.86835745  0.89384399  0.42418672  1  0.42527  0  -0.066688  -0.120304  0  3.908253  0
C  C221  1  0.87498845  0.90936993  0.46430264  1  1.614102  0  0.216799  0.602064  0  4.19515  0
C  C222  1  0.35133900  0.15259541  0.32437029  1  0.440295  0  -0.068652  -0.126957  0  3.912224  0
C  C223  1  0.34090371  0.15309565  0.28415950  1  1.586013  0  0.21532  0.602286  0  4.195276  0
C  C224  1  0.14048224  0.60097927  0.43139106  1  0.377581  0  -0.0678  -0.124992  0  3.912414  0
C  C225  1  0.13730702  0.58588768  0.47139074  1  1.642799  0  0.216435  0.602771  0  4.194907  0
C  C226  1  0.69027372  0.34622965  0.31547533  1  0.358594  0  -0.071996  -0.142144  0  3.910277  0
C  C227  1  0.72317556  0.39824102  0.27837989  1  1.610834  0  0.214176  0.604048  0  4.199444  0
C  C228  1  0.60556816  0.00032891  0.86918391  1  0.424265  0  0.07341  0.131956  0  3.960956  0
C  C229  1  0.72235100  0.96854197  0.85175817  1  0.053141  0  -0.019038  0.02883  0  3.980718  0
C  C230  1  0.73464939  0.99340463  0.81542589  1  -0.074733  0  -0.098183  -0.149947  0  4.014597  0
C  C231  1  0.63128259  0.04583875  0.79682192  1  -0.118309  0  -0.1006  -0.108449  0  4.082517  0
C  C232  1  0.51378252  0.07119645  0.81437266  1  -0.022201  0  -0.094809  -0.148012  0  4.032911  0
C  C233  1  0.49852393  0.04952792  0.85083996  1  0.010595  0  -0.016342  0.029873  0  3.96309  0
C  C234  1  0.25588799  0.84365035  0.87870723  1  0.360974  0  0.073659  0.133559  0  3.9534  0
C  C235  1  0.30317586  0.97141137  0.89266755  1  -0.012536  0  -0.018204  0.028747  0  3.979889  0
C  C236  1  0.28307264  0.99560926  0.92859947  1  -0.017942  0  -0.098145  -0.143238  0  4.004172  0
C  C237  1  0.21809475  0.89431476  0.95008459  1  -0.052695  0  -0.100563  -0.112356  0  4.084547  0
C  C238  1  0.17560205  0.76688837  0.93592132  1  -0.050709  0  -0.094715  -0.155057  0  4.045185  0
C  C239  1  0.19321687  0.73875735  0.89998545  1  -0.036008  0  -0.014873  0.02981  0  3.958134  0
C  C240  1  0.36357684  0.50426220  0.87676077  1  0.371551  0  0.071334  0.129674  0  3.964056  0
C  C241  1  0.23924564  0.53308986  0.86289919  1  0.001561  0  -0.019345  0.025912  0  3.988883  0
C  C242  1  0.20833125  0.49625870  0.82791197  1  -0.032912  0  -0.098108  -0.146523  0  4.014742  0
C  C243  1  0.30036635  0.43537772  0.80717557  1  -0.050752  0  -0.098805  -0.101495  0  4.072868  0
C  C244  1  0.42713867  0.41715226  0.82075123  1  -0.0993  0  -0.096537  -0.158597  0  4.032317  0
C  C245  1  0.46167686  0.45144117  0.85580689  1  -0.004744  0  -0.016943  0.025772  0  3.964137  0
C  C246  1  0.71959964  0.66441987  0.87245677  1  0.442989  0  0.072188  0.131246  0  3.973605  0
C  C247  1  0.67644308  0.54205301  0.88976951  1  -0.045205  0  -0.020247  0.026784  0  3.981005  0
C  C248  1  0.71185858  0.52816225  0.92528102  1  -0.06261  0  -0.099007  -0.153437  0  4.011442  0
C  C249  1  0.78762778  0.63441869  0.94288208  1  0.007345  0  -0.100665  -0.10722  0  4.081619  0
C  C250  1  0.82399166  0.75712037  0.92558784  1  -0.067923  0  -0.094639  -0.143115  0  4.024949  0
C  C251  1  0.79033782  0.77501337  0.89008267  1  -0.025845  0  -0.016968  0.029538  0  3.962497  0
C  C252  1  0.37015718  0.08083802  0.86880794  1  -0.007767  0  -0.151643  -0.208262  0  3.96463  0
C  C253  1  0.14151311  0.60001723  0.88572152  1  -0.000129  0  -0.149391  -0.206258  0  3.96673  0
C  C254  1  0.59930568  0.42692245  0.86965076  1  -0.015368  0  -0.151348  -0.20628  0  3.959098  0
C  C255  1  0.83209819  0.90949555  0.87215106  1  0.000702  0  -0.151612  -0.209649  0  3.970978  0
C  C256  1  0.63164286  0.10614629  0.92419192  1  0.425224  0  -0.066666  -0.120002  0  3.908014  0
C  C257  1  0.62502745  0.09062127  0.96430787  1  1.614015  0  0.216873  0.602163  0  4.194933  0
C  C258  1  0.14863629  0.84740485  0.82437273  1  0.440841  0  -0.06845  -0.126627  0  3.911875  0
C  C259  1  0.15905855  0.84689149  0.78416298  1  1.586882  0  0.215004  0.601945  0  4.195356  0
C  C260  1  0.35952488  0.39903131  0.93139347  1  0.377181  0  -0.067797  -0.125162  0  3.912221  0
C  C261  1  0.36269714  0.41411079  0.97139630  1  1.643201  0  0.216437  0.602825  0  4.195236  0
C  C262  1  0.80973386  0.65375915  0.81547712  1  0.358329  0  -0.07202  -0.142262  0  3.910401  0
C  C263  1  0.77683198  0.60175173  0.77838206  1  1.611195  0  0.214086  0.604154  0  4.199803  0
O  O264  1  0.09890665  0.98087821  0.59422901  1  -1.096245  0  -0.192702  -0.230294  0  2.59696  0
O  O265  1  0.12500869  0.20452884  0.51998625  1  -1.166131  0  -0.302602  -0.552339  0  2.232334  0
O  O266  1  0.12477917  0.97669448  0.52113695  1  -1.181925  0  -0.295158  -0.550994  0  2.260231  0
O  O267  1  0.77060901  0.82530249  0.65773495  1  -1.076597  0  -0.193255  -0.233324  0  2.595818  0
O  O268  1  0.54409882  0.85201638  0.73043468  1  -1.166317  0  -0.303181  -0.561303  0  2.236398  0
O  O269  1  0.76946850  0.84494487  0.73163821  1  -1.178627  0  -0.29416  -0.549615  0  2.238512  0
O  O270  1  0.88506995  0.52547780  0.58702021  1  -1.077603  0  -0.192544  -0.238162  0  2.609099  0
O  O271  1  0.85710070  0.29912145  0.51307274  1  -1.17126  0  -0.305376  -0.555937  0  2.235203  0
O  O272  1  0.86712216  0.52800888  0.51390756  1  -1.174331  0  -0.292237  -0.542476  0  2.243735  0
O  O273  1  0.19254332  0.67061925  0.66367101  1  -1.104488  0  -0.193361  -0.240667  0  2.632478  0
O  O274  1  0.38279713  0.58189791  0.73895388  1  -1.180254  0  -0.310603  -0.558941  0  2.243709  0
O  O275  1  0.15778416  0.58191017  0.73287615  1  -1.161449  0  -0.292634  -0.537536  0  2.228366  0
O  O276  1  0.40109416  0.01911729  0.09423149  1  -1.09626  0  -0.19265  -0.230243  0  2.5972  0
O  O277  1  0.37498100  0.79545739  0.01998939  1  -1.16607  0  -0.302602  -0.552263  0  2.232274  0
O  O278  1  0.37528319  0.02330532  0.02113998  1  -1.181762  0  -0.295224  -0.551085  0  2.260229  0
O  O279  1  0.72939980  0.17470435  0.15773735  1  -1.076464  0  -0.193304  -0.233339  0  2.595769  0
O  O280  1  0.95591857  0.14798659  0.23043322  1  -1.166498  0  -0.303126  -0.561421  0  2.23638  0
O  O281  1  0.73054283  0.15506624  0.23163853  1  -1.178453  0  -0.294288  -0.5498  0  2.238111  0
O  O282  1  0.61494122  0.47455813  0.08702145  1  -1.077156  0  -0.192568  -0.238244  0  2.609367  0
O  O283  1  0.64291506  0.70091117  0.01307386  1  -1.171344  0  -0.305387  -0.555893  0  2.235243  0
O  O284  1  0.63286386  0.47201789  0.01391037  1  -1.174437  0  -0.292242  -0.542297  0  2.243622  0
O  O285  1  0.30744549  0.32937568  0.16367283  1  -1.104387  0  -0.193335  -0.240609  0  2.632728  0
O  O286  1  0.11719254  0.41810431  0.23895309  1  -1.179866  0  -0.310597  -0.559032  0  2.243822  0
O  O287  1  0.34219706  0.41805371  0.23287885  1  -1.161768  0  -0.292545  -0.537608  0  2.228453  0
O  O288  1  0.90108719  0.01910329  0.40576786  1  -1.096252  0  -0.192605  -0.230152  0  2.597058  0
O  O289  1  0.87499938  0.79545457  0.48000982  1  -1.166102  0  -0.302588  -0.552276  0  2.232343  0
O  O290  1  0.87528759  0.02330264  0.47885754  1  -1.1821  0  -0.29512  -0.550994  0  2.260199  0
O  O291  1  0.22939158  0.17470229  0.34226323  1  -1.07654  0  -0.193281  -0.233229  0  2.595781  0
O  O292  1  0.45589224  0.14799254  0.26956297  1  -1.166287  0  -0.303231  -0.561512  0  2.236426  0
O  O293  1  0.23052413  0.15505187  0.26836077  1  -1.178758  0  -0.294183  -0.549719  0  2.238464  0
O  O294  1  0.11494062  0.47455226  0.41297824  1  -1.077352  0  -0.192593  -0.238253  0  2.609412  0
O  O295  1  0.14293900  0.70090938  0.48692624  1  -1.171121  0  -0.305397  -0.555944  0  2.234911  0
O  O296  1  0.13285961  0.47200621  0.48609010  1  -1.174532  0  -0.292186  -0.542291  0  2.243352  0
O  O297  1  0.80745907  0.32937537  0.33632796  1  -1.104519  0  -0.193334  -0.240683  0  2.632627  0
O  O298  1  0.61720826  0.41809669  0.26104642  1  -1.180159  0  -0.310577  -0.558877  0  2.243766  0
O  O299  1  0.84221615  0.41807533  0.26712204  1  -1.16163  0  -0.292589  -0.537434  0  2.228514  0
O  O300  1  0.59889818  0.98088554  0.90577118  1  -1.096418  0  -0.192696  -0.230271  0  2.596881  0
O  O301  1  0.62501291  0.20453324  0.98001461  1  -1.166127  0  -0.302561  -0.552286  0  2.232155  0
O  O302  1  0.62475833  0.97668998  0.97886190  1  -1.181894  0  -0.295233  -0.551088  0  2.260164  0
O  O303  1  0.27059162  0.82530762  0.84226453  1  -1.076364  0  -0.19329  -0.233434  0  2.595802  0
O  O304  1  0.04406697  0.85200107  0.76956919  1  -1.166678  0  -0.303028  -0.561305  0  2.236551  0
O  O305  1  0.26943435  0.84491845  0.76836362  1  -1.179219  0  -0.294212  -0.549838  0  2.238354  0
O  O306  1  0.38506604  0.52546080  0.91298202  1  -1.077548  0  -0.192589  -0.238066  0  2.609104  0
O  O307  1  0.35708688  0.29909664  0.98692723  1  -1.171352  0  -0.305453  -0.555952  0  2.2353  0
O  O308  1  0.36712396  0.52798903  0.98609310  1  -1.174512  0  -0.292158  -0.542355  0  2.243622  0
O  O309  1  0.69254849  0.67062409  0.83632958  1  -1.104362  0  -0.193315  -0.240603  0  2.632451  0
O  O310  1  0.88279249  0.58188741  0.76104853  1  -1.18045  0  -0.310555  -0.558926  0  2.243955  0
O  O311  1  0.65779285  0.58193696  0.76712382  1  -1.16192  0  -0.292554  -0.53755  0  2.228581  0
