# generated using pymatgen
data_TbH11C17O6
_symmetry_space_group_name_H-M   'P 1'
_cell_length_a   6.74147321
_cell_length_b   12.84357987
_cell_length_c   17.10600000
_cell_angle_alpha   90.00000000
_cell_angle_beta   93.64742911
_cell_angle_gamma   90.00000000
_symmetry_Int_Tables_number   1
_chemical_formula_structural   TbH11C17O6
_chemical_formula_sum   'Tb4 H44 C68 O24'
_cell_volume   1478.11687888
_cell_formula_units_Z   4
loop_
 _symmetry_equiv_pos_site_id
 _symmetry_equiv_pos_as_xyz
  1  'x, y, z'
loop_
 _atom_site_type_symbol
 _atom_site_label
 _atom_site_symmetry_multiplicity
 _atom_site_fract_x
 _atom_site_fract_y
 _atom_site_fract_z
 _atom_site_occupancy
 _atom_site_hle17_bader_spin_density
 _atom_site_hle17_ddec_charge
 _atom_site_hle17_ddec_spin_density
 _atom_site_hle17_ddec_sum_bond_order
 _atom_site_hle17_magmom
 _atom_site_hse06_10hf_bader_spin_density
 _atom_site_hse06_10hf_ddec_charge
 _atom_site_hse06_10hf_ddec_spin_density
 _atom_site_hse06_10hf_ddec_sum_bond_order
 _atom_site_hse06_10hf_magmom
 _atom_site_hse06_bader_spin_density
 _atom_site_hse06_ddec_charge
 _atom_site_hse06_ddec_spin_density
 _atom_site_hse06_ddec_sum_bond_order
 _atom_site_hse06_magmom
 _atom_site_pbe_bader_charge
 _atom_site_pbe_bader_spin_density
 _atom_site_pbe_cm5_charge
 _atom_site_pbe_ddec_charge
 _atom_site_pbe_ddec_spin_density
 _atom_site_pbe_ddec_sum_bond_order
 _atom_site_pbe_magmom
Tb  Tb0  1  0.11477421  0.37233233  0.04743033  1  0  2.285938  0  1.68512  0  0  2.144422  0  2.151624  0  0  2.262567  0  1.979918  0  2.187975  0  1.543037  2.107495  0  2.18517  0
Tb  Tb1  1  0.38522595  0.87233311  0.95256997  1  0  2.285936  0  1.685118  0  0  2.144448  0  2.151611  0  0  2.262575  0  1.979922  0  2.187983  0  1.543011  2.107517  0  2.185158  0
Tb  Tb2  1  0.88522909  0.62766612  0.95257034  1  0  2.285913  0  1.685158  0  0  2.14445  0  2.151586  0  0  2.26254  0  1.979961  0  2.187983  0  1.54299  2.107505  0  2.185157  0
Tb  Tb3  1  0.61477438  0.12766768  0.04743004  1  0  2.285932  0  1.685113  0  0  2.14442  0  2.151612  0  0  2.262564  0  1.979909  0  2.187957  0  1.543014  2.107481  0  2.18518  0
H  H4  1  0.32171650  0.49949080  0.22406317  1  0  0.102452  0  0.939402  0  0  0.111627  0  1.000531  0  0  0.114562  0  0.999266  0  0.111667  0  0.111517  0.10941  0  1.001785  0
H  H5  1  0.17828366  0.99948613  0.77593713  1  0  0.102404  0  0.939399  0  0  0.111584  0  1.000535  0  0  0.11452  0  0.99927  0  0.111704  0  0.11149  0.109365  0  1.001787  0
H  H6  1  0.67828978  0.50051232  0.77593816  1  0  0.102381  0  0.939391  0  0  0.111556  0  1.000535  0  0  0.114491  0  0.999271  0  0.111688  0  0.111477  0.109337  0  1.001788  0
H  H7  1  0.82171667  0.00051154  0.22406230  1  0  0.102423  0  0.939475  0  0  0.111604  0  1.000599  0  0  0.114538  0  0.999335  0  0.111662  0  0.111496  0.109385  0  1.00185  0
H  H8  1  0.25558956  0.53222778  0.36322312  1  0  0.086887  0  0.957266  0  0  0.097969  0  1.018808  0  0  0.100492  0  1.018732  0  0.06147  0  0.097433  0.096207  0  1.018893  0
H  H9  1  0.24441209  0.03222466  0.63677838  1  0  0.086858  0  0.957274  0  0  0.097988  0  1.018771  0  0  0.100514  0  1.01869  0  0.061521  0  0.09744  0.096223  0  1.01886  0
H  H10  1  0.74441374  0.46777534  0.63677872  1  0  0.086867  0  0.957313  0  0  0.097991  0  1.018811  0  0  0.100517  0  1.018729  0  0.0615  0  0.097433  0.096226  0  1.018901  0
H  H11  1  0.75558676  0.96777301  0.36322159  1  0  0.086875  0  0.957273  0  0  0.097937  0  1.018834  0  0  0.100462  0  1.018756  0  0.061474  0  0.097425  0.096175  0  1.018918  0
H  H12  1  0.54616075  0.24290891  0.42911271  1  0  0.082957  0  0.977504  0  0  0.093611  0  1.040157  0  0  0.095796  0  1.040586  0  0.065975  0  0.094  0.092068  0  1.039934  0
H  H13  1  0.95382935  0.74291047  0.57088558  1  0  0.083024  0  0.977491  0  0  0.093677  0  1.04012  0  0  0.095863  0  1.040545  0  0.066055  0  0.09404  0.092134  0  1.039897  0
H  H14  1  0.45382621  0.75708798  0.57088755  1  0  0.08297  0  0.977492  0  0  0.093623  0  1.040139  0  0  0.095809  0  1.040566  0  0.066146  0  0.094016  0.092081  0  1.039916  0
H  H15  1  0.04616207  0.25709032  0.42911362  1  0  0.082995  0  0.977518  0  0  0.093653  0  1.040148  0  0  0.095839  0  1.040574  0  0.06607  0  0.09402  0.09211  0  1.039926  0
H  H16  1  0.61295953  0.21279815  0.29032035  1  0  0.094438  0  0.989356  0  0  0.103099  0  1.055119  0  0  0.105394  0  1.054892  0  0.102439  0  0.102886  0.10151  0  1.05514  0
H  H17  1  0.88703354  0.71279660  0.70967743  1  0  0.094477  0  0.989316  0  0  0.103118  0  1.055097  0  0  0.105414  0  1.054868  0  0.102329  0  0.102891  0.10153  0  1.055123  0
H  H18  1  0.38703486  0.78720264  0.70967951  1  0  0.094466  0  0.98925  0  0  0.103111  0  1.05503  0  0  0.105404  0  1.054806  0  0.102345  0  0.102905  0.101524  0  1.055055  0
H  H19  1  0.11296085  0.28720264  0.29032185  1  0  0.094431  0  0.989338  0  0  0.103073  0  1.055129  0  0  0.105367  0  1.054904  0  0.102387  0  0.102877  0.101486  0  1.055153  0
H  H20  1  0.26570131  0.48481576  0.49336381  1  0  0.081124  0  0.961657  0  0  0.094977  0  1.021262  0  0  0.097653  0  1.019786  0  0.038965  0  0.098017  0.093023  0  1.022436  0
H  H21  1  0.23429291  0.98481655  0.50663517  1  0  0.08116  0  0.961571  0  0  0.095031  0  1.021158  0  0  0.097692  0  1.019699  0  0.038975  0  0.098033  0.093076  0  1.022334  0
H  H22  1  0.73429308  0.51518347  0.50663605  1  0  0.081152  0  0.961574  0  0  0.095024  0  1.021157  0  0  0.097685  0  1.019698  0  0.038977  0  0.098029  0.093068  0  1.022336  0
H  H23  1  0.76570148  0.01518346  0.49336411  1  0  0.081123  0  0.961645  0  0  0.094981  0  1.02124  0  0  0.097657  0  1.019765  0  0.038956  0  0.098013  0.093026  0  1.022415  0
H  H24  1  0.42153342  0.26686641  0.54082796  1  0  0.088077  0  0.954485  0  0  0.101733  0  1.01338  0  0  0.104593  0  1.012185  0  0.05104  0  0.098386  0.099662  0  1.014332  0
H  H25  1  0.07846378  0.76686719  0.45916876  1  0  0.088021  0  0.954581  0  0  0.101697  0  1.013459  0  0  0.104526  0  1.012299  0  0.050977  0  0.09836  0.099623  0  1.014414  0
H  H26  1  0.57846543  0.73313283  0.45917143  1  0  0.087993  0  0.954631  0  0  0.101703  0  1.013465  0  0  0.104544  0  1.012292  0  0.050974  0  0.098359  0.09963  0  1.014419  0
H  H27  1  0.92153358  0.23313360  0.54082942  1  0  0.088042  0  0.954513  0  0  0.101717  0  1.013398  0  0  0.104557  0  1.012224  0  0.050988  0  0.098386  0.099642  0  1.014355  0
H  H28  1  0.13890240  0.51217730  0.59471128  1  0  0.087475  0  0.954903  0  0  0.100856  0  1.012093  0  0  0.103613  0  1.011235  0  0.062526  0  0.098649  0.098896  0  1.012811  0
H  H29  1  0.36109629  0.01217963  0.40528898  1  0  0.087451  0  0.954861  0  0  0.100811  0  1.01208  0  0  0.103569  0  1.011221  0  0.062149  0  0.09865  0.098852  0  1.012797  0
H  H30  1  0.86110091  0.48782271  0.40528939  1  0  0.087473  0  0.954878  0  0  0.100849  0  1.012083  0  0  0.103608  0  1.011222  0  0.063015  0  0.098658  0.09889  0  1.012802  0
H  H31  1  0.63890256  0.98782194  0.59471216  1  0  0.087446  0  0.954909  0  0  0.100821  0  1.012106  0  0  0.103577  0  1.01125  0  0.062156  0  0.098641  0.098862  0  1.012823  0
H  H32  1  0.06216132  0.55377551  0.73026944  1  0  0.105725  0  0.960415  0  0  0.114365  0  1.024221  0  0  0.117836  0  1.021858  0  0.103573  0  0.107995  0.111975  0  1.025695  0
H  H33  1  0.43784034  0.05377784  0.26973030  1  0  0.105748  0  0.960437  0  0  0.114356  0  1.02427  0  0  0.117827  0  1.02191  0  0.103513  0  0.107985  0.111955  0  1.025776  0
H  H34  1  0.93784645  0.44622450  0.26973075  1  0  0.105755  0  0.960439  0  0  0.114382  0  1.024255  0  0  0.117852  0  1.021895  0  0.103526  0  0.108008  0.111989  0  1.025733  0
H  H35  1  0.56216148  0.94622373  0.73027033  1  0  0.105696  0  0.960449  0  0  0.114332  0  1.024256  0  0  0.117803  0  1.021892  0  0.103641  0  0.107979  0.111936  0  1.025748  0
H  H36  1  0.34382620  0.27131688  0.81296544  1  0  0.104126  0  0.937294  0  0  0.114035  0  0.995899  0  0  0.117565  0  0.993318  0  0.094539  0  0.106742  0.111624  0  0.997418  0
H  H37  1  0.15617694  0.77132000  0.18703377  1  0  0.104056  0  0.93729  0  0  0.113966  0  0.995918  0  0  0.117495  0  0.993338  0  0.094559  0  0.106711  0.111554  0  0.997436  0
H  H38  1  0.65617562  0.72868157  0.18703403  1  0  0.104092  0  0.937289  0  0  0.113998  0  0.995907  0  0  0.117528  0  0.993326  0  0.094543  0  0.106726  0.111586  0  0.997427  0
H  H39  1  0.84382934  0.22868157  0.81296639  1  0  0.104072  0  0.937321  0  0  0.11398  0  0.995936  0  0  0.117509  0  0.993357  0  0.094526  0  0.106717  0.111569  0  0.997455  0
H  H40  1  0.42780291  0.22870804  0.67702104  1  0  0.087014  0  0.980803  0  0  0.096257  0  1.046319  0  0  0.098079  0  1.047962  0  0.047827  0  0.094652  0.09496  0  1.045256  0
H  H41  1  0.07220023  0.72870960  0.32297700  1  0  0.086974  0  0.980811  0  0  0.096227  0  1.046325  0  0  0.098049  0  1.047966  0  0.047876  0  0.094657  0.09493  0  1.045261  0
H  H42  1  0.57219891  0.77129119  0.32297726  1  0  0.086945  0  0.98083  0  0  0.096194  0  1.04635  0  0  0.098016  0  1.047992  0  0.04785  0  0.094641  0.094897  0  1.045287  0
H  H43  1  0.92780308  0.27129118  0.67702250  1  0  0.086976  0  0.980794  0  0  0.096217  0  1.046327  0  0  0.098039  0  1.047967  0  0.047839  0  0.094648  0.09492  0  1.045262  0
H  H44  1  0.04963571  0.12951685  0.95258724  1  0  0.044018  0  0.902184  0  0  0.050798  0  0.969297  0  0  0.052198  0  0.964039  0  0.166325  0  0.140538  0.049416  0  0.973699  0
H  H45  1  0.45036595  0.62951296  0.04741193  1  0  0.043969  0  0.902126  0  0  0.050753  0  0.969239  0  0  0.052146  0  0.963995  0  0.166319  0  0.140528  0.049372  0  0.973637  0
H  H46  1  0.95036463  0.87048550  0.04741102  1  0  0.043948  0  0.902175  0  0  0.05074  0  0.969271  0  0  0.052133  0  0.964028  0  0.166341  0  0.140524  0.049359  0  0.97367  0
H  H47  1  0.54963588  0.37048316  0.95258929  1  0  0.044019  0  0.902131  0  0  0.050776  0  0.969271  0  0  0.052176  0  0.964013  0  0.166349  0  0.140523  0.049395  0  0.973668  0
C  C48  1  0.49424644  0.32697737  0.16480168  1  0  0.73273  0  3.837456  0  0  0.685829  0  4.126301  0  0  0.722845  0  4.118428  0  1.558989  0  0.238424  0.660564  0  4.134653  0
C  C49  1  0.00574926  0.82697271  0.83519792  1  0  0.73244  0  3.837993  0  0  0.685656  0  4.126629  0  0  0.722669  0  4.118765  0  1.559043  0  0.238312  0.660388  0  4.134981  0
C  C50  1  0.50575240  0.67302497  0.83519946  1  0  0.732569  0  3.837869  0  0  0.685708  0  4.126629  0  0  0.722722  0  4.118762  0  1.55863  0  0.238313  0.660439  0  4.13498  0
C  C51  1  0.99424959  0.17302497  0.16480205  1  0  0.73247  0  3.837824  0  0  0.685701  0  4.126468  0  0  0.722715  0  4.118601  0  1.559003  0  0.238372  0.660434  0  4.134819  0
C  C52  1  0.47051810  0.35338745  0.24855788  1  0  -0.071722  0  3.720994  0  0  -0.049455  0  3.952339  0  0  -0.057664  0  3.972367  0  -0.071734  0  -0.010402  -0.043856  0  3.938103  0
C  C53  1  0.02947910  0.85338357  0.75144117  1  0  -0.071926  0  3.721266  0  0  -0.049663  0  3.952548  0  0  -0.057878  0  3.972582  0  -0.071781  0  -0.010434  -0.044061  0  3.938314  0
C  C54  1  0.52948224  0.64661489  0.75144330  1  0  -0.071851  0  3.721189  0  0  -0.049591  0  3.952528  0  0  -0.057802  0  3.972557  0  -0.071753  0  -0.01043  -0.043989  0  3.938296  0
C  C55  1  0.97051826  0.14661411  0.24855818  1  0  -0.071762  0  3.721168  0  0  -0.049527  0  3.952465  0  0  -0.057734  0  3.972491  0  -0.071755  0  -0.010407  -0.043925  0  3.93823  0
C  C56  1  0.37146963  0.44417678  0.26940326  1  0  -0.051078  0  3.732726  0  0  -0.078588  0  3.988221  0  0  -0.076922  0  4.007396  0  0.025193  0  -0.073774  -0.079536  0  3.975159  0
C  C57  1  0.12853053  0.94417212  0.73059645  1  0  -0.050874  0  3.732606  0  0  -0.078402  0  3.988108  0  0  -0.076737  0  4.007291  0  0.02526  0  -0.073761  -0.079347  0  3.97504  0
C  C58  1  0.62853516  0.55582712  0.73059686  1  0  -0.050911  0  3.732635  0  0  -0.07842  0  3.988125  0  0  -0.076757  0  4.007307  0  0.025232  0  -0.073743  -0.079366  0  3.97506  0
C  C59  1  0.87146980  0.05582556  0.26940297  1  0  -0.051093  0  3.732788  0  0  -0.078629  0  3.988282  0  0  -0.076966  0  4.007462  0  0.025244  0  -0.073819  -0.079572  0  3.975212  0
C  C60  1  0.33390173  0.46184709  0.34717295  1  0  -0.119078  0  3.728827  0  0  -0.134632  0  3.975333  0  0  -0.139756  0  3.997851  0  -0.098675  0  -0.086507  -0.131197  0  3.959931  0
C  C61  1  0.16609844  0.96184398  0.65282676  1  0  -0.119098  0  3.72895  0  0  -0.134709  0  3.975477  0  0  -0.139833  0  3.997994  0  -0.098639  0  -0.086534  -0.13127  0  3.960072  0
C  C62  1  0.66609860  0.53815370  0.65282765  1  0  -0.119045  0  3.728872  0  0  -0.134635  0  3.975386  0  0  -0.139759  0  3.997904  0  -0.098625  0  -0.086501  -0.131198  0  3.959983  0
C  C63  1  0.83390041  0.03815291  0.34717262  1  0  -0.118969  0  3.728712  0  0  -0.134487  0  3.975192  0  0  -0.139611  0  3.997709  0  -0.098667  0  -0.086456  -0.13105  0  3.959787  0
C  C64  1  0.39082509  0.38909557  0.40619509  1  0  0.088458  0  3.829826  0  0  0.107364  0  4.058216  0  0  0.108887  0  4.082798  0  -0.019594  0  -0.010333  0.106472  0  4.041403  0
C  C65  1  0.10916913  0.88909479  0.59380389  1  0  0.088529  0  3.829895  0  0  0.107441  0  4.058274  0  0  0.108966  0  4.08285  0  -0.019833  0  -0.010294  0.106548  0  4.041459  0
C  C66  1  0.60916781  0.61090366  0.59380474  1  0  0.088429  0  3.829836  0  0  0.107305  0  4.05827  0  0  0.108829  0  4.082848  0  -0.019747  0  -0.010295  0.106413  0  4.041456  0
C  C67  1  0.89082526  0.11090444  0.40619597  1  0  0.088478  0  3.829803  0  0  0.107377  0  4.058182  0  0  0.108901  0  4.082765  0  -0.019688  0  -0.010316  0.106485  0  4.041368  0
C  C68  1  0.49623372  0.29978947  0.38481701  1  0  -0.117457  0  3.720822  0  0  -0.131367  0  3.961298  0  0  -0.136132  0  3.983211  0  -0.051456  0  -0.08986  -0.128196  0  3.946407  0
C  C69  1  0.00375902  0.79978947  0.61518135  1  0  -0.117546  0  3.720817  0  0  -0.131451  0  3.961273  0  0  -0.136215  0  3.983183  0  -0.051523  0  -0.089889  -0.128277  0  3.946382  0
C  C70  1  0.50375770  0.70020898  0.61518336  1  0  -0.117462  0  3.720855  0  0  -0.131351  0  3.961323  0  0  -0.136116  0  3.983236  0  -0.051518  0  -0.089909  -0.128178  0  3.946431  0
C  C71  1  0.99623388  0.20020976  0.38481789  1  0  -0.117567  0  3.720873  0  0  -0.131475  0  3.961343  0  0  -0.13624  0  3.983254  0  -0.051456  0  -0.089876  -0.128303  0  3.946453  0
C  C72  1  0.53520029  0.28259489  0.30730161  1  0  -0.050628  0  3.726257  0  0  -0.075251  0  3.971116  0  0  -0.073911  0  3.991128  0  -0.012487  0  -0.078187  -0.075791  0  3.956961  0
C  C73  1  0.96479427  0.78259333  0.69269738  1  0  -0.050592  0  3.726337  0  0  -0.075207  0  3.971195  0  0  -0.073867  0  3.991212  0  -0.012461  0  -0.078189  -0.075757  0  3.95705  0
C  C74  1  0.46479559  0.71740512  0.69269887  1  0  -0.050669  0  3.726183  0  0  -0.075287  0  3.97106  0  0  -0.07395  0  3.991076  0  -0.012473  0  -0.07823  -0.075837  0  3.956915  0
C  C75  1  0.03520161  0.21740512  0.30730194  1  0  -0.050546  0  3.726249  0  0  -0.07516  0  3.97111  0  0  -0.073821  0  3.991122  0  -0.012437  0  -0.078185  -0.07571  0  3.956966  0
C  C76  1  0.33311247  0.40848891  0.48526376  1  0  -0.108829  0  3.767892  0  0  -0.130312  0  4.02178  0  0  -0.131768  0  4.042067  0  -0.065795  0  -0.089206  -0.129156  0  4.007767  0
C  C77  1  0.16688175  0.90848892  0.51473521  1  0  -0.108871  0  3.767899  0  0  -0.130378  0  4.021795  0  0  -0.131825  0  4.042077  0  -0.065668  0  -0.089202  -0.129222  0  4.007783  0
C  C78  1  0.66688192  0.59151110  0.51473610  1  0  -0.108842  0  3.767874  0  0  -0.130339  0  4.021791  0  0  -0.131785  0  4.042078  0  -0.06578  0  -0.089221  -0.129183  0  4.007778  0
C  C79  1  0.83311264  0.09151109  0.48526406  1  0  -0.108858  0  3.767912  0  0  -0.130346  0  4.021812  0  0  -0.131803  0  4.042094  0  -0.0657  0  -0.089218  -0.12919  0  4.007799  0
C  C80  1  0.35198338  0.34303131  0.54745265  1  0  -0.116877  0  3.748061  0  0  -0.136495  0  3.999994  0  0  -0.139088  0  4.019782  0  -0.046183  0  -0.092132  -0.134589  0  3.986312  0
C  C81  1  0.14801382  0.84303209  0.45254581  1  0  -0.116816  0  3.748092  0  0  -0.13644  0  4.000012  0  0  -0.139006  0  4.019804  0  -0.046148  0  -0.0921  -0.134534  0  3.98633  0
C  C82  1  0.64801399  0.65696715  0.45254611  1  0  -0.116838  0  3.748201  0  0  -0.136498  0  4.000101  0  0  -0.139075  0  4.01989  0  -0.046159  0  -0.092117  -0.134592  0  3.986417  0
C  C83  1  0.85198354  0.15696792  0.54745354  1  0  -0.116837  0  3.74809  0  0  -0.136471  0  4.000011  0  0  -0.13905  0  4.019805  0  -0.046191  0  -0.092122  -0.134565  0  3.986327  0
C  C84  1  0.29197432  0.36732905  0.62558746  1  0  0.090127  0  3.838648  0  0  0.106723  0  4.071971  0  0  0.109141  0  4.095984  0  -0.035491  0  -0.011116  0.105242  0  4.055551  0
C  C85  1  0.20802436  0.86733139  0.37441105  1  0  0.090064  0  3.838643  0  0  0.106645  0  4.071996  0  0  0.109061  0  4.096006  0  -0.035368  0  -0.011189  0.105163  0  4.055575  0
C  C86  1  0.70802750  0.63267096  0.37441200  1  0  0.090049  0  3.838705  0  0  0.10666  0  4.072016  0  0  0.109077  0  4.096029  0  -0.035388  0  -0.011164  0.105179  0  4.055595  0
C  C87  1  0.79197597  0.13267018  0.62558837  1  0  0.090056  0  3.838695  0  0  0.106666  0  4.072004  0  0  0.109083  0  4.096012  0  -0.035473  0  -0.011189  0.105183  0  4.055583  0
C  C88  1  0.18514324  0.45848043  0.64172526  1  0  -0.122561  0  3.744691  0  0  -0.139693  0  3.992733  0  0  -0.144731  0  4.014691  0  -0.078831  0  -0.091319  -0.136422  0  3.977896  0
C  C89  1  0.31485544  0.95848433  0.35827383  1  0  -0.122519  0  3.744521  0  0  -0.139623  0  3.992565  0  0  -0.144659  0  4.01452  0  -0.078561  0  -0.091321  -0.136349  0  3.977725  0
C  C90  1  0.81486155  0.54151958  0.35827486  1  0  -0.122536  0  3.744614  0  0  -0.139665  0  3.992644  0  0  -0.144701  0  4.014599  0  -0.079132  0  -0.091312  -0.136393  0  3.977806  0
C  C91  1  0.68514490  0.04151802  0.64172677  1  0  -0.122461  0  3.744546  0  0  -0.139591  0  3.992567  0  0  -0.144628  0  4.014525  0  -0.078486  0  -0.091271  -0.136315  0  3.977726  0
C  C92  1  0.14088372  0.48252513  0.71741031  1  0  -0.057861  0  3.754493  0  0  -0.082389  0  4.002993  0  0  -0.081105  0  4.023126  0  0.00182  0  -0.0808  -0.08289  0  3.988777  0
C  C93  1  0.35911793  0.98252825  0.28259002  1  0  -0.057928  0  3.754546  0  0  -0.082465  0  4.003042  0  0  -0.081181  0  4.023175  0  0.002338  0  -0.080819  -0.082971  0  3.988821  0
C  C94  1  0.85912256  0.51747488  0.28259043  1  0  -0.057905  0  3.754567  0  0  -0.082436  0  4.003088  0  0  -0.081151  0  4.023222  0  0.002137  0  -0.08085  -0.082936  0  3.988873  0
C  C95  1  0.64088389  0.01747410  0.71741119  1  0  -0.05786  0  3.75452  0  0  -0.082383  0  4.003017  0  0  -0.081097  0  4.023151  0  0.002288  0  -0.080794  -0.082886  0  3.988794  0
C  C96  1  0.19820692  0.41577193  0.77984479  1  0  -0.080642  0  3.738954  0  0  -0.058092  0  3.96932  0  0  -0.067111  0  3.99126  0  -0.044137  0  -0.019502  -0.051849  0  3.953341  0
C  C97  1  0.30179623  0.91577661  0.22015383  1  0  -0.080553  0  3.738691  0  0  -0.057906  0  3.968967  0  0  -0.066939  0  3.990899  0  -0.044664  0  -0.019463  -0.051664  0  3.952987  0
C  C98  1  0.80179937  0.58422652  0.22015478  1  0  -0.08059  0  3.738739  0  0  -0.05804  0  3.969139  0  0  -0.067072  0  3.99107  0  -0.044655  0  -0.019487  -0.051798  0  3.953159  0
C  C99  1  0.69820857  0.08422574  0.77984629  1  0  -0.080627  0  3.738845  0  0  -0.058087  0  3.969195  0  0  -0.06713  0  3.991122  0  -0.04468  0  -0.019523  -0.051847  0  3.953219  0
C  C100  1  0.30028756  0.32361305  0.76466002  1  0  -0.057466  0  3.733363  0  0  -0.081073  0  3.982031  0  0  -0.079682  0  4.001134  0  -0.058167  0  -0.080771  -0.081597  0  3.968346  0
C  C101  1  0.19971558  0.82361694  0.23533918  1  0  -0.057417  0  3.733275  0  0  -0.081057  0  3.981936  0  0  -0.079664  0  4.001039  0  -0.058077  0  -0.080758  -0.08158  0  3.968248  0
C  C102  1  0.69971723  0.67638619  0.23533951  1  0  -0.057392  0  3.733258  0  0  -0.080991  0  3.981927  0  0  -0.079598  0  4.00103  0  -0.058139  0  -0.080723  -0.081515  0  3.96824  0
C  C103  1  0.80028922  0.17638540  0.76466094  1  0  -0.057392  0  3.733301  0  0  -0.081001  0  3.981969  0  0  -0.079607  0  4.001074  0  -0.058092  0  -0.080739  -0.081522  0  3.968282  0
C  C104  1  0.34606169  0.29982061  0.68850143  1  0  -0.122722  0  3.7233  0  0  -0.139086  0  3.969941  0  0  -0.144197  0  3.992343  0  0.021029  0  -0.089612  -0.135695  0  3.954627  0
C  C105  1  0.15393847  0.79982373  0.31149653  1  0  -0.122653  0  3.72352  0  0  -0.139027  0  3.970186  0  0  -0.144134  0  3.992584  0  0.020977  0  -0.089589  -0.135635  0  3.95487  0
C  C106  1  0.65394013  0.70017862  0.31149803  1  0  -0.12262  0  3.723442  0  0  -0.139003  0  3.970083  0  0  -0.14411  0  3.992482  0  0.021024  0  -0.089594  -0.135612  0  3.954767  0
C  C107  1  0.84606335  0.20017861  0.68850235  1  0  -0.122667  0  3.723404  0  0  -0.139039  0  3.970031  0  0  -0.144144  0  3.992428  0  0.020971  0  -0.089591  -0.135646  0  3.954715  0
C  C108  1  0.14665528  0.44563199  0.86030434  1  0  0.726432  0  3.84207  0  0  0.681898  0  4.129724  0  0  0.718362  0  4.121542  0  1.565302  0  0.234544  0.657544  0  4.136769  0
C  C109  1  0.35334489  0.94563433  0.13969479  1  0  0.726269  0  3.842254  0  0  0.681667  0  4.129988  0  0  0.718169  0  4.121747  0  1.565363  0  0.234426  0.657313  0  4.137028  0
C  C110  1  0.85334803  0.55436647  0.13969516  1  0  0.726255  0  3.842279  0  0  0.68168  0  4.130021  0  0  0.718182  0  4.12178  0  1.565305  0  0.234432  0.657326  0  4.137063  0
C  C111  1  0.64665842  0.05436646  0.86030530  1  0  0.726251  0  3.842479  0  0  0.681771  0  4.130026  0  0  0.718295  0  4.121748  0  1.565293  0  0.234447  0.657408  0  4.137084  0
C  C112  1  0.20545592  0.12974031  0.97667332  1  0  0.66259  0  3.807083  0  0  0.59331  0  4.111125  0  0  0.629181  0  4.105841  0  1.496497  0  0.183148  0.568814  0  4.12107  0
C  C113  1  0.29454722  0.62973953  0.02332588  1  0  0.662968  0  3.806907  0  0  0.593689  0  4.110941  0  0  0.62956  0  4.10564  0  1.495781  0  0.183298  0.569191  0  4.120892  0
C  C114  1  0.79454441  0.87025970  0.02332610  1  0  0.662986  0  3.806921  0  0  0.593714  0  4.110939  0  0  0.629584  0  4.10564  0  1.495802  0  0.183307  0.569216  0  4.120889  0
C  C115  1  0.70545758  0.37025892  0.97667483  1  0  0.662658  0  3.806978  0  0  0.593399  0  4.111008  0  0  0.629268  0  4.105723  0  1.496507  0  0.183199  0.568903  0  4.120955  0
O  O116  1  0.41556417  0.38811142  0.11190419  1  0  -0.763404  0  2.008549  0  0  -0.714131  0  2.270462  0  0  -0.750296  0  2.254528  0  -1.199206  0  -0.43087  -0.695801  0  2.279483  0
O  O117  1  0.08443451  0.88810753  0.88809549  1  0  -0.763279  0  2.008574  0  0  -0.714054  0  2.27044  0  0  -0.750214  0  2.254507  0  -1.199078  0  -0.430824  -0.695721  0  2.279459  0
O  O118  1  0.58443468  0.61189015  0.88809695  1  0  -0.763304  0  2.008527  0  0  -0.71404  0  2.270395  0  0  -0.750195  0  2.254467  0  -1.198785  0  -0.430805  -0.695705  0  2.279415  0
O  O119  1  0.91556434  0.11188937  0.11190390  1  0  -0.763301  0  2.008502  0  0  -0.714071  0  2.270348  0  0  -0.750234  0  2.254414  0  -1.199163  0  -0.430864  -0.695737  0  2.279367  0
O  O120  1  0.58444806  0.24374357  0.14947985  1  0  -0.713294  0  2.06838  0  0  -0.664509  0  2.328743  0  0  -0.699476  0  2.316107  0  -1.186004  0  -0.38635  -0.646459  0  2.335255  0
O  O121  1  0.91554799  0.74374202  0.85051976  1  0  -0.713097  0  2.068747  0  0  -0.664339  0  2.329017  0  0  -0.699291  0  2.316373  0  -1.186113  0  -0.386255  -0.646288  0  2.335528  0
O  O122  1  0.41554931  0.75625566  0.85052184  1  0  -0.713106  0  2.068567  0  0  -0.664343  0  2.328906  0  0  -0.699294  0  2.316244  0  -1.186071  0  -0.386237  -0.646294  0  2.335415  0
O  O123  1  0.08445086  0.25625721  0.14948021  1  0  -0.713122  0  2.068651  0  0  -0.664379  0  2.328925  0  0  -0.699344  0  2.316291  0  -1.186062  0  -0.386271  -0.646331  0  2.335435  0
O  O124  1  0.06389293  0.53394148  0.86755710  1  0  -0.728746  0  2.055902  0  0  -0.680352  0  2.313153  0  0  -0.71521  0  2.299328  0  -1.191577  0  -0.405404  -0.662756  0  2.320073  0
O  O125  1  0.43611021  0.03394459  0.13244269  1  0  -0.728606  0  2.055894  0  0  -0.680173  0  2.313135  0  0  -0.715051  0  2.299292  0  -1.191653  0  -0.405286  -0.662576  0  2.320051  0
O  O126  1  0.93611186  0.46605698  0.13244360  1  0  -0.728605  0  2.056028  0  0  -0.680153  0  2.313224  0  0  -0.715031  0  2.29938  0  -1.19164  0  -0.405287  -0.66256  0  2.32014  0
O  O127  1  0.56389459  0.96605854  0.86755802  1  0  -0.728649  0  2.056071  0  0  -0.680288  0  2.313337  0  0  -0.715172  0  2.29948  0  -1.191579  0  -0.405363  -0.662689  0  2.320259  0
O  O128  1  0.18631004  0.38125196  0.91620091  1  0  -0.75081  0  2.028134  0  0  -0.703443  0  2.284027  0  0  -0.738309  0  2.269325  0  -1.208119  0  -0.406084  -0.685381  0  2.291333  0
O  O129  1  0.31369310  0.88125430  0.08379888  1  0  -0.750777  0  2.028219  0  0  -0.703392  0  2.284129  0  0  -0.738269  0  2.269417  0  -1.208154  0  -0.406049  -0.685328  0  2.291434  0
O  O130  1  0.81369327  0.61874571  0.08379859  1  0  -0.750789  0  2.028199  0  0  -0.70341  0  2.284093  0  0  -0.738282  0  2.269384  0  -1.208088  0  -0.406066  -0.685344  0  2.291401  0
O  O131  1  0.68631170  0.11874804  0.91620183  1  0  -0.750756  0  2.028324  0  0  -0.703397  0  2.28416  0  0  -0.738288  0  2.269439  0  -1.208139  0  -0.406007  -0.685329  0  2.291472  0
O  O132  1  0.27979801  0.21129701  0.00938425  1  0  -0.752064  0  2.126921  0  0  -0.698584  0  2.400719  0  0  -0.740092  0  2.38764  0  -1.192579  0  -0.397342  -0.680886  0  2.40851  0
O  O133  1  0.22020365  0.71129468  0.99061784  1  0  -0.752262  0  2.127066  0  0  -0.698813  0  2.400923  0  0  -0.740309  0  2.38783  0  -1.192519  0  -0.397407  -0.681114  0  2.408718  0
O  O134  1  0.72020233  0.78870456  0.99061693  1  0  -0.752282  0  2.127026  0  0  -0.698837  0  2.400875  0  0  -0.740331  0  2.387786  0  -1.192566  0  -0.397431  -0.681137  0  2.408671  0
O  O135  1  0.77980115  0.28870222  0.00938404  1  0  -0.752085  0  2.126965  0  0  -0.698606  0  2.400752  0  0  -0.740113  0  2.387673  0  -1.192616  0  -0.397347  -0.680907  0  2.408544  0
O  O136  1  0.31039485  0.04864532  0.97129130  1  0  -0.765345  0  2.238346  0  0  -0.701457  0  2.50232  0  0  -0.743337  0  2.489215  0  -1.20313  0  -0.420387  -0.682847  0  2.509121  0
O  O137  1  0.18960383  0.54864299  0.02870720  1  0  -0.765508  0  2.238232  0  0  -0.701622  0  2.502206  0  0  -0.743502  0  2.489097  0  -1.202495  0  -0.420448  -0.683011  0  2.50901  0
O  O138  1  0.68960251  0.95135703  0.02870746  1  0  -0.765503  0  2.238253  0  0  -0.701618  0  2.502229  0  0  -0.7435  0  2.489121  0  -1.202482  0  -0.420429  -0.683006  0  2.509033  0
O  O139  1  0.81039651  0.45135391  0.97129222  1  0  -0.765394  0  2.2383  0  0  -0.701518  0  2.502263  0  0  -0.743394  0  2.489159  0  -1.203119  0  -0.420414  -0.682908  0  2.509067  0
