# generated using pymatgen
data_CuH4C6S(NCl)2
_symmetry_space_group_name_H-M   'P 1'
_cell_length_a   3.72539360
_cell_length_b   8.75605010
_cell_length_c   12.38766075
_cell_angle_alpha   89.99672717
_cell_angle_beta   89.99926747
_cell_angle_gamma   99.90409902
_symmetry_Int_Tables_number   1
_chemical_formula_structural   CuH4C6S(NCl)2
_chemical_formula_sum   'Cu2 H8 C12 S2 N4 Cl4'
_cell_volume   398.06015850
_cell_formula_units_Z   2
loop_
 _symmetry_equiv_pos_site_id
 _symmetry_equiv_pos_as_xyz
  1  'x, y, z'
loop_
 _atom_site_type_symbol
 _atom_site_label
 _atom_site_symmetry_multiplicity
 _atom_site_fract_x
 _atom_site_fract_y
 _atom_site_fract_z
 _atom_site_occupancy
 _atom_site_hle17_ddec_charge
 _atom_site_hle17_ddec_spin_density
 _atom_site_hle17_ddec_sum_bond_order
 _atom_site_hle17_magmom
 _atom_site_hse06_10hf_ddec_charge
 _atom_site_hse06_10hf_ddec_spin_density
 _atom_site_hse06_10hf_ddec_sum_bond_order
 _atom_site_hse06_10hf_magmom
 _atom_site_hse06_ddec_charge
 _atom_site_hse06_ddec_spin_density
 _atom_site_hse06_ddec_sum_bond_order
 _atom_site_hse06_magmom
 _atom_site_pbe_cm5_charge
 _atom_site_pbe_ddec_charge
 _atom_site_pbe_ddec_spin_density
 _atom_site_pbe_ddec_sum_bond_order
 _atom_site_pbe_magmom
Cu  Cu0  1  0.49998255  0.49999863  0.00000073  1  0.764048  -0.612139  1.932163  -0.421  0.764382  -0.731515  2.318003  -0.559  0.85541  -0.830792  2.241535  -0.654  0.583628  0.712918  -0.625855  2.365989  -0.472
Cu  Cu1  1  0.50000216  0.50000001  0.49999989  1  0.763971  0.612139  1.931948  0.421  0.764134  0.731501  2.317797  0.559  0.855223  0.83079  2.24139  0.654  0.583429  0.712659  0.625881  2.365814  0.472
H  H2  1  0.60839410  0.90646703  0.84939263  1  0.097565  -0.000763  0.969642  -0.001  0.107574  -0.000673  1.031379  0.0  0.111473  -0.000531  1.028162  0.0  0.089026  0.10483  -0.000719  1.033606  0.0
H  H3  1  0.39162875  0.09353485  0.34941143  1  0.09759  0.000756  0.969903  0.001  0.107637  0.000673  1.031599  0.0  0.11153  0.000531  1.028398  0.0  0.089146  0.104926  0.00072  1.033795  0.0
H  H4  1  0.39161729  0.09352266  0.15060554  1  0.097644  -0.000759  0.969834  -0.001  0.107669  -0.000672  1.031537  0.0  0.111566  -0.000531  1.028326  0.0  0.0891  0.104928  -0.000719  1.033762  0.0
H  H5  1  0.60837764  0.90647097  0.65058512  1  0.09765  0.000757  0.969873  0.001  0.107693  0.000673  1.031571  0.0  0.111596  0.000531  1.02835  0.0  0.089176  0.104975  0.00072  1.033778  0.0
H  H6  1  0.50404257  0.13931454  0.95389797  1  0.12028  0.000201  0.967386  0.001  0.131427  -0.000124  1.024692  0.0  0.135218  -9e-05  1.022454  0.0  0.097661  0.12852  -0.00014  1.026591  0.0
H  H7  1  0.49599028  0.86069562  0.45390682  1  0.120347  -0.000193  0.967226  -0.001  0.13145  0.000124  1.024577  0.0  0.135242  9e-05  1.022338  0.0  0.097619  0.12856  0.000141  1.026499  0.0
H  H8  1  0.49593586  0.86068064  0.04610020  1  0.120299  0.000202  0.967366  0.001  0.1314  -0.000124  1.024744  0.0  0.135186  -9e-05  1.022518  0.0  0.097656  0.128495  -0.00014  1.026642  0.0
H  H9  1  0.50399995  0.13931006  0.54609297  1  0.120327  -0.000191  0.96722  -0.001  0.131426  0.000124  1.024589  0.0  0.13522  9e-05  1.022345  0.0  0.097607  0.128535  0.000141  1.026512  0.0
C  C10  1  0.56151486  0.01076262  0.80744400  1  -0.026107  0.009727  3.694212  0.009  -0.043468  0.001708  3.948192  0.002  -0.042755  0.002953  3.966122  0.003  -0.078707  -0.043852  0.000669  3.935983  0.001
C  C11  1  0.43851856  0.98927539  0.30743381  1  -0.026048  -0.009742  3.694388  -0.009  -0.043479  -0.001707  3.948391  -0.002  -0.042766  -0.002954  3.966318  -0.003  -0.078904  -0.043858  -0.000668  3.93621  -0.001
C  C12  1  0.43849816  0.98924673  0.19255579  1  -0.026112  0.009756  3.694274  0.009  -0.043508  0.001707  3.948298  0.002  -0.042789  0.002956  3.966221  0.003  -0.078793  -0.043897  0.000669  3.936092  0.001
C  C13  1  0.56150503  0.01072597  0.69256678  1  -0.02608  -0.009716  3.694246  -0.009  -0.043503  -0.001708  3.948221  -0.002  -0.042789  -0.002953  3.966154  -0.003  -0.078935  -0.043868  -0.000668  3.936016  -0.001
C  C14  1  0.50630762  0.13816474  0.86628741  1  -0.127479  -0.011432  3.688551  -0.011  -0.15044  -0.002971  3.940966  -0.003  -0.15578  -0.003765  3.960221  -0.004  -0.089995  -0.146821  -0.002215  3.928188  -0.002
C  C15  1  0.49367264  0.86186879  0.36630027  1  -0.127477  0.011466  3.687786  0.011  -0.150302  0.002975  3.940252  0.003  -0.15565  0.00377  3.959518  0.004  -0.089809  -0.146717  0.002219  3.927547  0.002
C  C16  1  0.49370955  0.86184118  0.13370914  1  -0.127457  -0.011475  3.688521  -0.011  -0.150391  -0.002972  3.940934  -0.003  -0.155745  -0.003768  3.960208  -0.004  -0.089943  -0.146769  -0.002217  3.928152  -0.002
C  C17  1  0.50633645  0.13813706  0.63369709  1  -0.12745  0.011427  3.687801  0.011  -0.15031  0.002976  3.940274  0.003  -0.155659  0.00377  3.959539  0.004  -0.089792  -0.146724  0.002219  3.927572  0.002
C  C18  1  0.45877240  0.27206002  0.80820949  1  0.195179  0.010172  3.735948  0.012  0.191214  0.003268  3.987213  0.004  0.199101  0.003946  4.007048  0.005  0.108488  0.185867  0.002534  3.97421  0.003
C  C19  1  0.54127448  0.72796302  0.30821179  1  0.195175  -0.010188  3.735729  -0.012  0.190969  -0.003268  3.987178  -0.004  0.198863  -0.003948  4.007051  -0.005  0.108357  0.185632  -0.002535  3.974165  -0.003
C  C20  1  0.54121431  0.72794331  0.19178707  1  0.194968  0.010186  3.736319  0.012  0.191087  0.003266  3.987458  0.004  0.198975  0.003946  4.007329  0.005  0.108418  0.185744  0.002533  3.974448  0.003
C  C21  1  0.45872281  0.27203233  0.69178476  1  0.19516  -0.010168  3.735859  -0.012  0.191009  -0.003268  3.987254  -0.004  0.198913  -0.003948  4.007111  -0.005  0.10835  0.18567  -0.002534  3.974251  -0.003
S  S22  1  0.36976446  0.53082774  0.75000581  1  0.542999  -2e-06  3.045415  0.0  0.527725  -2e-06  3.428493  0.0  0.548175  -2e-06  3.434605  0.0  0.396712  0.511422  -3e-06  3.427266  0.0
S  S23  1  0.63022785  0.46916872  0.25000124  1  0.542968  0.0  3.045272  0.0  0.527692  -2e-06  3.428371  0.0  0.548126  -1e-06  3.434483  0.0  0.396731  0.511389  -3e-06  3.427142  0.0
N  N24  1  0.41374764  0.41198038  0.84858021  1  -0.410275  -0.070651  3.183362  -0.085  -0.372256  -0.049196  3.494731  -0.064  -0.400568  -0.045489  3.511016  -0.061  -0.344036  -0.354685  -0.046777  3.485611  -0.059
N  N25  1  0.58624872  0.58802249  0.34855849  1  -0.410291  0.070691  3.183641  0.085  -0.372076  0.049211  3.494935  0.064  -0.400362  0.045499  3.511107  0.061  -0.343803  -0.35451  0.046794  3.485823  0.059
N  N26  1  0.58622934  0.58801824  0.15142280  1  -0.410143  -0.07069  3.183214  -0.085  -0.372184  -0.049203  3.494654  -0.064  -0.400409  -0.045495  3.510712  -0.061  -0.344039  -0.354624  -0.046786  3.485548  -0.059
N  N27  1  0.41375023  0.41197749  0.65144695  1  -0.410351  0.070668  3.183657  0.085  -0.372143  0.049212  3.494916  0.064  -0.400434  0.045498  3.511096  0.061  -0.343814  -0.354576  0.046795  3.485809  0.059
Cl  Cl28  1  0.95371146  0.68498424  0.93428090  1  -0.50272  -0.122749  1.085823  -0.139  -0.510122  -0.082385  1.389415  -0.101  -0.548531  -0.065791  1.368622  -0.083  -0.272642  -0.486063  -0.084782  1.404403  -0.101
Cl  Cl29  1  0.04629280  0.31500542  0.43427353  1  -0.502751  0.122734  1.085787  0.139  -0.510101  0.08238  1.389378  0.101  -0.548527  0.065785  1.368592  0.083  -0.272621  -0.486031  0.084758  1.40437  0.101
Cl  Cl30  1  0.04629413  0.31500425  0.06572534  1  -0.502691  -0.122766  1.08576  -0.139  -0.510106  -0.082395  1.389343  -0.101  -0.548523  -0.065796  1.368556  -0.083  -0.272647  -0.486038  -0.084794  1.404308  -0.101
Cl  Cl31  1  0.95371235  0.68499692  0.56572544  1  -0.502742  0.122743  1.085715  0.139  -0.5101  0.082385  1.389315  0.101  -0.548533  0.065788  1.368538  0.083  -0.272626  -0.486038  0.084764  1.404327  0.101
