# generated using pymatgen
data_V2NiH17C18N3O7
_symmetry_space_group_name_H-M   'P 1'
_cell_length_a   7.75548125
_cell_length_b   11.36226837
_cell_length_c   13.50144474
_cell_angle_alpha   92.19016596
_cell_angle_beta   105.92127011
_cell_angle_gamma   109.54520717
_symmetry_Int_Tables_number   1
_chemical_formula_structural   V2NiH17C18N3O7
_chemical_formula_sum   'V4 Ni2 H34 C36 N6 O14'
_cell_volume   1067.03095366
_cell_formula_units_Z   2
loop_
 _symmetry_equiv_pos_site_id
 _symmetry_equiv_pos_as_xyz
  1  'x, y, z'
loop_
 _atom_site_type_symbol
 _atom_site_label
 _atom_site_symmetry_multiplicity
 _atom_site_fract_x
 _atom_site_fract_y
 _atom_site_fract_z
 _atom_site_occupancy
 _atom_site_hle17_ddec_charge
 _atom_site_hle17_ddec_spin_density
 _atom_site_hle17_ddec_sum_bond_order
 _atom_site_hle17_magmom
 _atom_site_hse06_10hf_ddec_charge
 _atom_site_hse06_10hf_ddec_spin_density
 _atom_site_hse06_10hf_ddec_sum_bond_order
 _atom_site_hse06_10hf_magmom
 _atom_site_hse06_ddec_charge
 _atom_site_hse06_ddec_spin_density
 _atom_site_hse06_ddec_sum_bond_order
 _atom_site_hse06_magmom
 _atom_site_pbe_cm5_charge
 _atom_site_pbe_ddec_charge
 _atom_site_pbe_ddec_spin_density
 _atom_site_pbe_ddec_sum_bond_order
 _atom_site_pbe_magmom
V  V0  1  0.09192447  0.31405814  0.01631787  1  1.963334  -0.002768  3.012847  -0.003  2.028392  0.001573  3.409599  0.003  2.128443  0.001503  3.385137  0.003  1.446877  1.941584  0.002434  3.458062  0.004
V  V1  1  0.90808843  0.68592447  0.98368339  1  1.963136  -0.002741  3.013523  -0.003  2.028409  0.001586  3.409973  0.003  2.128241  0.00151  3.385827  0.003  1.446891  1.941492  0.00245  3.458584  0.004
V  V2  1  0.22465736  0.57278428  0.14115896  1  1.949559  -0.025696  3.050917  -0.041  2.004884  -0.028052  3.47591  -0.048  2.112201  -0.022476  3.427054  -0.039  1.42858  1.92099  -0.033928  3.526864  -0.056
V  V3  1  0.77534410  0.42719673  0.85884118  1  1.949561  -0.025669  3.051178  -0.041  2.004917  -0.028038  3.476112  -0.048  2.112197  -0.02246  3.427347  -0.039  1.428605  1.92105  -0.033909  3.527025  -0.056
Ni  Ni4  1  0.49998366  0.49999283  0.99999255  1  0.987554  -1.803598  2.100718  -1.47  1.026732  -1.819488  2.480694  -1.583  1.107244  -1.905093  2.406617  -1.693  0.656326  0.965208  -1.717764  2.538448  -1.463
Ni  Ni5  1  0.99999513  0.99999191  0.00000101  1  0.933467  1.823698  2.086904  1.49  0.95515  1.836847  2.477574  1.6  1.034858  1.913426  2.404428  1.697  0.660057  0.896429  1.748566  2.531602  1.498
H  H6  1  0.86786669  0.11434769  0.15250943  1  0.08852  0.000638  0.955518  0.001  0.100003  0.000445  1.013269  0.001  0.102689  0.000307  1.010154  0.001  0.118071  0.098074  0.000584  1.015625  0.001
H  H7  1  0.13212098  0.88563878  0.84749263  1  0.088614  0.000637  0.955555  0.001  0.10006  0.000445  1.013326  0.001  0.10274  0.000307  1.010215  0.001  0.118099  0.098131  0.000584  1.015682  0.001
H  H8  1  0.84798951  0.09706791  0.33174668  1  0.109414  0.000312  0.964631  0.0  0.114367  0.000285  1.033353  0.0  0.117932  0.000203  1.031673  0.0  0.106283  0.111849  0.000367  1.034675  0.0
H  H9  1  0.15199810  0.90291839  0.66825906  1  0.109519  0.000309  0.964517  0.0  0.114434  0.000285  1.033283  0.0  0.118008  0.000203  1.031588  0.0  0.106342  0.111919  0.000367  1.0346  0.0
H  H10  1  0.15883462  0.84048766  0.35084682  1  0.108728  0.000302  0.953116  0.0  0.120503  0.000295  1.01148  0.0  0.12308  0.000206  1.011282  0.0  0.112852  0.118779  0.00038  1.011706  0.0
H  H11  1  0.84115541  0.15950431  0.64915892  1  0.108589  0.000301  0.953275  0.0  0.120383  0.000296  1.011626  0.0  0.122969  0.000206  1.011419  0.0  0.112793  0.11866  0.00038  1.011851  0.0
H  H12  1  0.16134587  0.86696512  0.17092988  1  0.092267  0.000783  0.944671  0.002  0.100286  0.00051  1.005706  0.001  0.102737  0.000351  1.002683  0.001  0.125442  0.098737  0.000666  1.007677  0.001
H  H13  1  0.83864901  0.13302244  0.82907854  1  0.092281  0.000783  0.944704  0.002  0.100386  0.00051  1.005621  0.001  0.102849  0.000351  1.002601  0.001  0.125428  0.09883  0.000666  1.007604  0.001
H  H14  1  0.08783985  0.89621836  0.50432574  1  0.091878  0.000105  0.953417  0.0  0.103474  3.8e-05  1.015835  0.0  0.106258  2.9e-05  1.014475  0.0  0.105518  0.101384  4.6e-05  1.017086  0.0
H  H15  1  0.91214123  0.10376838  0.49568125  1  0.091859  0.000102  0.953596  0.0  0.103518  3.8e-05  1.015922  0.0  0.106305  2.9e-05  1.014562  0.0  0.105576  0.101428  4.6e-05  1.017172  0.0
H  H16  1  0.35140853  0.34039856  0.78738588  1  0.091797  -0.000737  0.950749  -0.002  0.099731  -0.000502  1.011796  -0.001  0.102137  -0.000342  1.009226  -0.001  0.12058  0.098295  -0.000663  1.013436  -0.001
H  H17  1  0.64857525  0.65960736  0.21258864  1  0.091621  -0.000737  0.950988  -0.002  0.099601  -0.000502  1.012003  -0.001  0.102003  -0.000341  1.009441  -0.001  0.120596  0.09817  -0.000663  1.013627  -0.001
H  H18  1  0.16253287  0.34329920  0.60792876  1  0.103323  -0.000329  0.946971  0.0  0.116769  -0.000313  1.001716  0.0  0.119217  -0.000219  1.002014  0.0  0.10796  0.115199  -0.000404  1.001488  0.0
H  H19  1  0.83746937  0.65672779  0.39205291  1  0.103413  -0.000335  0.946884  0.0  0.116755  -0.000313  1.001746  0.0  0.119206  -0.000219  1.002035  0.0  0.107978  0.115186  -0.000404  1.001519  0.0
H  H20  1  0.08284147  0.67435018  0.72599178  1  0.109877  -0.000344  0.937987  0.0  0.124251  -0.000327  0.990696  0.0  0.126927  -0.000225  0.990438  0.0  0.109573  0.122495  -0.000424  0.990944  0.0
H  H21  1  0.91717764  0.32567520  0.27400797  1  0.109918  -0.000341  0.938096  0.0  0.124346  -0.000327  0.990741  0.0  0.127011  -0.000225  0.990484  0.0  0.109581  0.122592  -0.000423  0.990988  0.0
H  H22  1  0.28636247  0.66108753  0.90044670  1  0.091098  -0.000675  0.932983  -0.002  0.101777  -0.000361  0.991  -0.001  0.104373  -0.00024  0.987546  -0.001  0.121774  0.099914  -0.00048  0.993702  -0.001
H  H23  1  0.71363950  0.33891347  0.09955922  1  0.091158  -0.000675  0.932989  -0.002  0.101834  -0.000361  0.991009  -0.001  0.10443  -0.00024  0.987552  -0.001  0.121758  0.099967  -0.00048  0.993709  -0.001
H  H24  1  0.92273861  0.59098748  0.54560013  1  0.087906  -7.6e-05  0.952321  0.0  0.100672  -4.1e-05  1.012845  0.0  0.103049  -2.9e-05  1.012308  0.0  0.10268  0.098993  -5.1e-05  1.013262  0.0
H  H25  1  0.07731080  0.40905848  0.45439448  1  0.087968  -7.6e-05  0.952209  0.0  0.100772  -4.1e-05  1.012714  0.0  0.10315  -2.9e-05  1.012176  0.0  0.102795  0.099092  -5.1e-05  1.013131  0.0
H  H26  1  0.34270294  0.05824627  0.97946260  1  0.412961  -0.000476  0.826638  -0.001  0.400933  0.000178  0.876896  0.0  0.408889  2.6e-05  0.868913  0.0  0.32239  0.395195  0.000345  0.882487  0.0
H  H27  1  0.65729278  0.94173703  0.02053976  1  0.4129  -0.000477  0.82661  -0.001  0.400768  0.000178  0.877038  0.0  0.408724  2.5e-05  0.869064  0.0  0.322373  0.395036  0.000345  0.882609  0.0
H  H28  1  0.32653914  0.18419245  0.02223620  1  0.428457  -0.00061  0.874646  -0.001  0.402153  -4.9e-05  0.932973  0.0  0.414008  -0.000148  0.916053  -0.001  0.290561  0.394069  6.2e-05  0.944308  0.0
H  H29  1  0.67345567  0.81578240  0.97776845  1  0.428492  -0.000611  0.874574  -0.001  0.402213  -5e-05  0.932861  0.0  0.414071  -0.000148  0.915939  -0.001  0.290577  0.394122  6.1e-05  0.944207  0.0
H  H30  1  0.59171850  0.10042760  0.52602276  1  0.058099  1.7e-05  0.976341  0.0  0.065533  1.6e-05  1.045882  0.0  0.067833  1.2e-05  1.043811  0.0  0.102533  0.06415  1.9e-05  1.046846  0.0
H  H31  1  0.40828594  0.89957294  0.47397684  1  0.058117  1.5e-05  0.976318  0.0  0.065523  1.6e-05  1.045888  0.0  0.067826  1.3e-05  1.043814  0.0  0.102548  0.064142  1.9e-05  1.046848  0.0
H  H32  1  0.56276606  0.29901016  0.58367320  1  0.128662  2.1e-05  0.992117  0.0  0.143235  2.3e-05  1.044998  0.0  0.147698  1.9e-05  1.041596  0.0  0.10141  0.140038  2.6e-05  1.04762  0.0
H  H33  1  0.43725602  0.70100330  0.41632996  1  0.128531  2.2e-05  0.992249  0.0  0.143163  2.3e-05  1.045071  0.0  0.147625  1.9e-05  1.041668  0.0  0.101384  0.139965  2.6e-05  1.047692  0.0
H  H34  1  0.38762435  0.34671517  0.25879719  1  0.110035  1.1e-05  0.964237  0.0  0.11879  -2e-06  1.029141  0.0  0.122239  5e-06  1.027955  0.0  0.104154  0.116312  -1e-05  1.030076  0.0
H  H35  1  0.61237789  0.65328338  0.74120270  1  0.110072  2.2e-05  0.964115  0.0  0.118782  -2e-06  1.029064  0.0  0.12223  5e-06  1.027881  0.0  0.104158  0.116302  -1e-05  1.029999  0.0
H  H36  1  0.44037923  0.14902544  0.21601599  1  0.073857  2e-06  0.957954  0.0  0.083722  1.9e-05  1.020182  0.0  0.086357  -7e-06  1.018139  0.0  0.103027  0.08154  5.1e-05  1.021927  0.0
H  H37  1  0.55960445  0.85096747  0.78398067  1  0.073844  5e-06  0.958034  0.0  0.083773  1.9e-05  1.020205  0.0  0.086413  -7e-06  1.018148  0.0  0.103035  0.081582  5.1e-05  1.021949  0.0
H  H38  1  0.40666035  0.50888749  0.38499185  1  0.103354  5e-06  0.969463  0.0  0.11551  1.2e-05  1.03088  0.0  0.118375  1e-05  1.029364  0.0  0.102884  0.113336  1.5e-05  1.03223  0.0
H  H39  1  0.59335875  0.49112841  0.61501396  1  0.103455  7e-06  0.969452  0.0  0.115617  1.2e-05  1.030831  0.0  0.118486  1e-05  1.029307  0.0  0.102924  0.113443  1.5e-05  1.032181  0.0
C  C40  1  0.92951913  0.05418843  0.19986371  1  0.101429  -0.006913  3.726281  -0.008  0.074576  -0.001485  3.980959  -0.002  0.083218  -0.001937  3.998767  -0.003  0.035854  0.068059  -0.001183  3.969607  -0.002
C  C41  1  0.07048471  0.94580439  0.80014273  1  0.101559  -0.006911  3.726216  -0.008  0.074762  -0.001486  3.980888  -0.002  0.083405  -0.001938  3.998704  -0.003  0.035935  0.068243  -0.001183  3.96954  -0.002
C  C42  1  0.92390052  0.04654312  0.30098151  1  -0.151458  0.007925  3.687196  0.01  -0.165819  0.002567  3.927088  0.003  -0.174079  0.00251  3.947831  0.003  -0.077146  -0.160315  0.002674  3.913442  0.004
C  C43  1  0.07610015  0.95344853  0.69902584  1  -0.151784  0.007928  3.687079  0.01  -0.166094  0.002567  3.927026  0.003  -0.174361  0.002511  3.947749  0.003  -0.077325  -0.160588  0.002675  3.913377  0.004
C  C44  1  0.01160819  0.97124191  0.36094300  1  0.140229  -0.007398  3.787312  -0.008  0.155319  -0.002634  4.014954  -0.003  0.161326  -0.002439  4.037013  -0.003  0.011709  0.151299  -0.003067  4.00014  -0.003
C  C45  1  0.98838988  0.02874685  0.63906377  1  0.14041  -0.007394  3.787408  -0.008  0.155423  -0.002634  4.01513  -0.003  0.161436  -0.002439  4.037179  -0.003  0.01178  0.151407  -0.003067  4.000316  -0.003
C  C46  1  0.09278805  0.90313315  0.31069175  1  -0.14364  0.007881  3.673444  0.01  -0.164227  0.002525  3.921963  0.003  -0.172229  0.002473  3.942141  0.003  -0.07176  -0.159097  0.002603  3.908759  0.004
C  C47  1  0.90722317  0.09686746  0.68931559  1  -0.143431  0.007883  3.6734  0.01  -0.164029  0.002525  3.921947  0.003  -0.17204  0.002473  3.942126  0.003  -0.071647  -0.158902  0.002603  3.908746  0.004
C  C48  1  0.09396964  0.91669273  0.20921804  1  0.14422  -0.007992  3.681155  -0.01  0.114313  -0.001977  3.943574  -0.003  0.123728  -0.002363  3.960586  -0.004  0.05703  0.107637  -0.001778  3.932019  -0.003
C  C49  1  0.90604447  0.08330519  0.79079179  1  0.144043  -0.007995  3.680909  -0.01  0.114101  -0.001977  3.943331  -0.003  0.123496  -0.002363  3.960364  -0.004  0.057005  0.107431  -0.001779  3.931773  -0.003
C  C50  1  0.02553954  0.96396240  0.46988435  1  -0.087153  -0.001915  3.699086  -0.001  -0.107397  -0.000962  3.945944  -0.001  -0.110055  -0.000705  3.965571  -0.001  -0.072671  -0.105997  -0.001431  3.933322  -0.001
C  C51  1  0.97443396  0.03601294  0.53012000  1  -0.087079  -0.001915  3.699451  -0.001  -0.107283  -0.000961  3.946263  -0.001  -0.109946  -0.000703  3.965892  -0.001  -0.072634  -0.105886  -0.00143  3.93364  -0.001
C  C52  1  0.29157935  0.41397077  0.77005065  1  0.130268  0.00669  3.683753  0.008  0.10179  0.001226  3.942996  0.002  0.110233  0.00179  3.96138  0.003  0.051401  0.095886  0.000779  3.929894  0.002
C  C53  1  0.70840544  0.58603740  0.22993603  1  0.130249  0.006697  3.683875  0.008  0.101791  0.001225  3.943123  0.002  0.11023  0.001788  3.961513  0.003  0.051409  0.095891  0.000778  3.93002  0.002
C  C54  1  0.18496095  0.41660977  0.66953682  1  -0.154831  -0.007904  3.681762  -0.01  -0.170733  -0.002546  3.925994  -0.003  -0.179357  -0.002427  3.948097  -0.003  -0.077134  -0.16499  -0.002773  3.911031  -0.004
C  C55  1  0.81503416  0.58340991  0.33045366  1  -0.154784  -0.007892  3.681442  -0.01  -0.170619  -0.002546  3.925682  -0.003  -0.179242  -0.002428  3.947786  -0.003  -0.07716  -0.164882  -0.002773  3.910712  -0.004
C  C56  1  0.10867237  0.51262660  0.64900296  1  0.135953  0.006741  3.79515  0.008  0.14912  0.002189  4.029127  0.003  0.154949  0.002156  4.051657  0.003  0.011303  0.14531  0.002381  4.013814  0.003
C  C57  1  0.89134563  0.48740249  0.35099463  1  0.135863  0.006738  3.795072  0.008  0.14912  0.002189  4.028991  0.003  0.154955  0.002157  4.051515  0.003  0.01127  0.145322  0.002381  4.013649  0.003
C  C58  1  0.14304875  0.60003471  0.73522453  1  -0.153933  -0.007654  3.687666  -0.009  -0.172308  -0.002435  3.9341  -0.003  -0.180792  -0.002327  3.954574  -0.003  -0.077537  -0.166706  -0.002647  3.920397  -0.003
C  C59  1  0.85696752  0.39999027  0.26477993  1  -0.154146  -0.007665  3.687836  -0.009  -0.172619  -0.002435  3.934294  -0.003  -0.181091  -0.002327  3.954751  -0.003  -0.077635  -0.16702  -0.002647  3.920583  -0.003
C  C60  1  0.25573451  0.59337044  0.83288143  1  0.14372  0.007269  3.67386  0.009  0.116046  0.001605  3.930896  0.003  0.125819  0.002093  3.946437  0.003  0.052049  0.109015  0.001229  3.920321  0.002
C  C61  1  0.74426374  0.40664079  0.16711716  1  0.143712  0.007283  3.673834  0.009  0.116093  0.001606  3.930901  0.003  0.125869  0.002094  3.946437  0.003  0.052135  0.109069  0.00123  3.92032  0.002
C  C62  1  0.00243458  0.52764320  0.54586497  1  -0.090082  0.001475  3.697179  0.001  -0.111712  0.000673  3.951227  0.001  -0.114451  0.000569  3.971591  0.0  -0.075977  -0.109848  0.000863  3.937359  0.001
C  C63  1  0.99760269  0.47239012  0.45412770  1  -0.089925  0.001458  3.697063  0.001  -0.111641  0.000675  3.951117  0.001  -0.114383  0.000571  3.971483  0.0  -0.076031  -0.109774  0.000864  3.937237  0.001
C  C64  1  0.55292207  0.15955140  0.46843115  1  0.09247  7.7e-05  3.799038  0.0  0.069817  3.8e-05  4.06156  0.0  0.074514  3.4e-05  4.080362  0.0  0.022869  0.066738  5e-05  4.048455  0.0
C  C65  1  0.44707606  0.84045323  0.53157071  1  0.092511  9.3e-05  3.799151  0.0  0.06988  3.9e-05  4.061677  0.0  0.074577  3.5e-05  4.080473  0.0  0.022785  0.066796  5e-05  4.048581  0.0
C  C66  1  0.53342404  0.27067889  0.50075197  1  -0.178327  -8.8e-05  3.698569  0.0  -0.192228  -2.7e-05  3.927667  0.0  -0.200129  -3.1e-05  3.94989  0.0  -0.094499  -0.186801  -2.8e-05  3.912251  0.0
C  C67  1  0.46658702  0.72933398  0.49924871  1  -0.178237  -9.9e-05  3.698532  0.0  -0.192176  -2.9e-05  3.927595  0.0  -0.200075  -3.2e-05  3.94982  0.0  -0.094443  -0.186751  -2.8e-05  3.912186  0.0
C  C68  1  0.47796249  0.34451377  0.42560666  1  0.121685  4.1e-05  3.823342  0.0  0.137667  1.1e-05  4.053288  0.0  0.141309  1.5e-05  4.077843  0.0  -0.003216  0.135485  1.3e-05  4.036185  0.0
C  C69  1  0.52204515  0.65549422  0.57439540  1  0.12175  5.2e-05  3.822763  0.0  0.137751  1.2e-05  4.052657  0.0  0.141387  1.7e-05  4.077225  0.0  -0.003198  0.135572  1.3e-05  4.035554  0.0
C  C70  1  0.43678107  0.29595201  0.32091135  1  -0.170099  -2e-05  3.698049  0.0  -0.18667  -2.6e-05  3.94083  0.0  -0.194054  -2.3e-05  3.963405  0.0  -0.090846  -0.181834  -3.1e-05  3.925722  0.0
C  C71  1  0.56321862  0.70405623  0.67909395  1  -0.170166  -6e-05  3.697991  0.0  -0.186705  -2.7e-05  3.940767  0.0  -0.194088  -2.6e-05  3.963339  0.0  -0.090866  -0.18187  -3.1e-05  3.925655  0.0
C  C72  1  0.46584943  0.18495862  0.29696552  1  0.107412  1.5e-05  3.768911  0.0  0.084602  4.2e-05  4.029219  0.0  0.089504  1.6e-05  4.048096  0.0  0.026748  0.081393  7.7e-05  4.016657  0.0
C  C73  1  0.53413559  0.81504051  0.70303767  1  0.107716  2.7e-05  3.769334  0.0  0.084864  4.3e-05  4.029604  0.0  0.089771  1.9e-05  4.048473  0.0  0.026907  0.081665  7.7e-05  4.017027  0.0
C  C74  1  0.46747451  0.46734684  0.45139962  1  -0.113879  -2.3e-05  3.71357  0.0  -0.133184  -1.7e-05  3.965536  0.0  -0.135762  -1.8e-05  3.985409  0.0  -0.086765  -0.131312  -1.5e-05  3.951794  0.0
C  C75  1  0.53253310  0.53265483  0.54859981  1  -0.114133  -6.5e-05  3.71345  0.0  -0.133436  -1.5e-05  3.965403  0.0  -0.136014  -1.5e-05  3.985275  0.0  -0.086817  -0.131568  -1.5e-05  3.951664  0.0
N  N76  1  0.01456859  0.99153207  0.15367759  1  -0.31001  0.059469  3.31585  0.087  -0.271347  0.035878  3.606137  0.054  -0.300102  0.029342  3.627874  0.046  -0.331076  -0.250336  0.040734  3.59058  0.06
N  N77  1  0.98544074  0.00846096  0.84633194  1  -0.31007  0.059469  3.315692  0.087  -0.271471  0.03588  3.606065  0.054  -0.300224  0.029344  3.627801  0.046  -0.331166  -0.250458  0.040735  3.590502  0.06
N  N78  1  0.33093847  0.50244242  0.85083627  1  -0.289036  -0.060504  3.274527  -0.088  -0.249749  -0.036277  3.555119  -0.055  -0.277989  -0.029127  3.575325  -0.045  -0.317745  -0.227693  -0.0419  3.539173  -0.061
N  N79  1  0.66904066  0.49755880  0.14915354  1  -0.288935  -0.06051  3.274533  -0.088  -0.249788  -0.036272  3.555268  -0.055  -0.278033  -0.029122  3.575486  -0.045  -0.317803  -0.227731  -0.041894  3.539312  -0.061
N  N80  1  0.52579809  0.11678736  0.36881659  1  -0.348745  6e-06  3.085186  0.0  -0.315422  1.3e-05  3.359964  0.0  -0.32607  5e-06  3.374687  0.0  -0.342991  -0.307857  2.2e-05  3.349633  0.0
N  N81  1  0.47418210  0.88320049  0.63118514  1  -0.349019  -7e-06  3.085572  0.0  -0.315711  1.3e-05  3.360371  0.0  -0.32636  4e-06  3.375091  0.0  -0.343078  -0.308143  2.2e-05  3.350035  0.0
O  O82  1  0.36205651  0.59006150  0.06203311  1  -0.890996  -0.033328  1.636685  -0.048  -0.923738  -0.018002  1.959857  -0.024  -0.97244  -0.01239  1.947937  -0.015  -0.609074  -0.886156  -0.023874  1.969008  -0.032
O  O83  1  0.63793543  0.40994133  0.93795952  1  -0.891089  -0.033343  1.636772  -0.048  -0.923807  -0.01801  1.959867  -0.024  -0.972497  -0.012397  1.947944  -0.015  -0.60917  -0.886225  -0.023884  1.968999  -0.032
O  O84  1  0.30882374  0.32293473  0.00647224  1  -0.851015  -0.031195  1.586184  -0.045  -0.864883  -0.016658  1.873505  -0.022  -0.906748  -0.01278  1.861842  -0.016  -0.592898  -0.830611  -0.020907  1.884374  -0.028
O  O85  1  0.69116176  0.67704685  0.99351361  1  -0.851022  -0.031239  1.5862  -0.045  -0.864956  -0.016677  1.873438  -0.022  -0.906774  -0.012793  1.861817  -0.016  -0.592864  -0.830632  -0.020932  1.884322  -0.028
O  O86  1  0.96726601  0.36817003  0.90804019  1  -1.002614  -0.000935  1.662504  -0.001  -1.033843  -0.001007  1.985955  -0.001  -1.083316  -0.000416  1.981035  0.0  -0.693946  -0.993048  -0.001735  1.992585  -0.002
O  O87  1  0.03270783  0.63181879  0.09195172  1  -1.002479  -0.000934  1.66243  -0.001  -1.03377  -0.001007  1.985855  -0.001  -1.083181  -0.000415  1.980953  0.0  -0.693971  -0.992983  -0.001734  1.992606  -0.002
O  O88  1  0.96303362  0.16308454  0.01559825  1  -0.843273  0.041307  1.61583  0.062  -0.866498  0.021613  1.924309  0.031  -0.909495  0.016728  1.911225  0.024  -0.61174  -0.832158  0.025465  1.936195  0.036
O  O89  1  0.03697563  0.83690204  0.98441160  1  -0.843299  0.041312  1.615877  0.062  -0.866547  0.021615  1.924219  0.031  -0.909482  0.016728  1.911177  0.024  -0.611816  -0.832165  0.025467  1.936128  0.036
O  O90  1  0.12351571  0.40199247  0.13705701  1  -0.966905  -0.001643  1.580825  -0.002  -0.988743  -0.00163  1.884644  -0.002  -1.03501  -0.000931  1.880081  -0.001  -0.677132  -0.951133  -0.002524  1.891226  -0.003
O  O91  1  0.87650621  0.59800180  0.86294342  1  -0.966856  -0.001645  1.580735  -0.002  -0.988772  -0.001629  1.884514  -0.002  -1.034972  -0.00093  1.87999  -0.001  -0.677122  -0.951133  -0.002522  1.891099  -0.003
O  O92  1  0.35423437  0.64162527  0.25926442  1  -0.76876  0.003434  1.272121  0.005  -0.776948  0.00152  1.504724  0.003  -0.80586  0.001872  1.490618  0.003  -0.607317  -0.756125  0.001  1.518396  0.002
O  O93  1  0.64575622  0.35836810  0.74073186  1  -0.7688  0.003422  1.27222  0.005  -0.776964  0.001516  1.504793  0.003  -0.805872  0.001865  1.490699  0.003  -0.607276  -0.75615  0.000995  1.518455  0.002
O  O94  1  0.30901497  0.09422797  0.03476938  1  -0.766223  0.044677  1.888482  0.067  -0.743728  0.033349  2.068669  0.051  -0.772151  0.025154  2.04083  0.039  -0.548832  -0.720579  0.041562  2.087052  0.062
O  O95  1  0.69096568  0.90575475  0.96522468  1  -0.76617  0.044689  1.888264  0.067  -0.743595  0.033352  2.068611  0.051  -0.772028  0.025155  2.040776  0.039  -0.548837  -0.720443  0.041567  2.087001  0.062
