# generated using pymatgen
data_ZnH17C20N5O4
_symmetry_space_group_name_H-M   'P 1'
_cell_length_a   21.66970796
_cell_length_b   21.96171958
_cell_length_c   22.05309731
_cell_angle_alpha   60.06242397
_cell_angle_beta   63.59941832
_cell_angle_gamma   90.00651172
_symmetry_Int_Tables_number   1
_chemical_formula_structural   ZnH17C20N5O4
_chemical_formula_sum   'Zn4 H68 C80 N20 O16'
_cell_volume   7805.91440676
_cell_formula_units_Z   4
loop_
 _symmetry_equiv_pos_site_id
 _symmetry_equiv_pos_as_xyz
  1  'x, y, z'
loop_
 _atom_site_type_symbol
 _atom_site_label
 _atom_site_symmetry_multiplicity
 _atom_site_fract_x
 _atom_site_fract_y
 _atom_site_fract_z
 _atom_site_occupancy
 _atom_site_pbe_bader_charge
 _atom_site_pbe_bader_spin_density
 _atom_site_pbe_cm5_charge
 _atom_site_pbe_ddec_charge
 _atom_site_pbe_ddec_spin_density
 _atom_site_pbe_ddec_sum_bond_order
 _atom_site_pbe_magmom
Zn  Zn0  1  0.54149900  0.04414583  0.91026752  1  1.296663  0  0.670514  0.827731  0  2.399695  0
Zn  Zn1  1  0.46027977  0.95497097  0.08866146  1  1.295958  0  0.674887  0.853084  0  2.306373  0
Zn  Zn2  1  0.96098872  0.45557749  0.08660464  1  1.285867  0  0.666556  0.811716  0  2.456633  0
Zn  Zn3  1  0.04089780  0.54316971  0.91360258  1  1.288919  0  0.668359  0.834638  0  2.358125  0
H  H4  1  0.81179327  0.38485969  0.21540140  1  0.099737  0  0.120688  0.100875  0  0.992621  0
H  H5  1  0.73646829  0.31556068  0.36617775  1  0.038761  0  0.104965  0.115124  0  1.009173  0
H  H6  1  0.57231902  0.19508786  0.62226410  1  0.053073  0  0.100387  0.120141  0  1.012051  0
H  H7  1  0.77107656  0.19022214  0.62436606  1  -0.001397  0  0.09545  0.112867  0  1.034911  0
H  H8  1  0.81871349  0.24851480  0.50230180  1  0.010405  0  0.097791  0.082698  0  1.037999  0
H  H9  1  0.68114034  0.26328086  0.49515344  1  0.040287  0  0.102607  0.101272  0  1.000157  0
H  H10  1  0.19030494  0.60570530  0.78359906  1  0.100666  0  0.121662  0.102318  0  0.982898  0
H  H11  1  0.26410602  0.68693023  0.63268904  1  0.044311  0  0.104162  0.112899  0  1.010317  0
H  H12  1  0.42689126  0.81195063  0.37676904  1  0.035248  0  0.098599  0.116996  0  1.018624  0
H  H13  1  0.22923193  0.82156103  0.37271858  1  0.026008  0  0.094029  0.110581  0  1.035547  0
H  H14  1  0.18017111  0.75093835  0.49774637  1  0.018154  0  0.097385  0.083556  0  1.034728  0
H  H15  1  0.31872789  0.75738734  0.50293497  1  0.05126  0  0.101956  0.099798  0  1.000726  0
H  H16  1  0.77422044  0.29334018  0.86871526  1  0.061052  0  0.096558  0.102774  0  1.030214  0
H  H17  1  0.71388646  0.21619196  0.13271713  1  0.03978  0  0.096654  0.102755  0  1.030044  0
H  H18  1  0.91970569  0.42346957  0.87716638  1  0.081285  0  0.099487  0.104001  0  1.008745  0
H  H19  1  0.84299657  0.34828378  0.86954423  1  0.028189  0  0.090773  0.091943  0  1.038902  0
H  H20  1  0.58394766  0.07152286  0.12386677  1  0.109046  0  0.101366  0.107474  0  1.00505  0
H  H21  1  0.65950566  0.14815649  0.13140326  1  0.027307  0  0.093144  0.094702  0  1.03523  0
H  H22  1  0.34547458  0.83909522  0.86785924  1  0.027855  0  0.097575  0.103895  0  1.030348  0
H  H23  1  0.16119429  0.65557085  0.13089024  1  0.016031  0  0.096285  0.10194  0  1.030788  0
H  H24  1  0.19747211  0.69904200  0.87339555  1  0.069652  0  0.1028  0.106812  0  1.002685  0
H  H25  1  0.28044000  0.78094510  0.86756821  1  0.060439  0  0.092722  0.093702  0  1.034898  0
H  H26  1  0.30409819  0.80380352  0.12380895  1  0.100437  0  0.101398  0.107444  0  1.005061  0
H  H27  1  0.22152975  0.72035221  0.13061178  1  0.033233  0  0.092086  0.093721  0  1.035586  0
H  H28  1  0.34434912  0.29011707  0.86840385  1  0.054721  0  0.09701  0.103279  0  1.032566  0
H  H29  1  0.15476641  0.20658791  0.12974531  1  0.038543  0  0.095386  0.101342  0  1.033305  0
H  H30  1  0.20116549  0.42892350  0.87180956  1  0.093789  0  0.101567  0.105627  0  1.002502  0
H  H31  1  0.28177968  0.35058763  0.86701647  1  0.057995  0  0.091462  0.092626  0  1.039  0
H  H32  1  0.30280264  0.07073095  0.12560500  1  0.078247  0  0.098394  0.099857  0  1.011196  0
H  H33  1  0.21852258  0.14528375  0.13104809  1  0.033125  0  0.090437  0.091719  0  1.038861  0
H  H34  1  0.77212180  0.83456157  0.87215401  1  0.049247  0  0.095983  0.101907  0  1.031719  0
H  H35  1  0.71412531  0.64835858  0.13490718  1  0.038277  0  0.096485  0.102756  0  1.029466  0
H  H36  1  0.92012612  0.69928129  0.87842193  1  0.077397  0  0.097282  0.101217  0  1.009576  0
H  H37  1  0.84502059  0.78389308  0.87199841  1  0.032744  0  0.090469  0.091993  0  1.038567  0
H  H38  1  0.58385505  0.80172391  0.12742710  1  0.081528  0  0.098052  0.099418  0  1.0117  0
H  H39  1  0.66197987  0.72044947  0.13424833  1  0.024691  0  0.091382  0.093057  0  1.036866  0
H  H40  1  0.04215544  0.41771247  0.15284882  1  0.475777  0  0.307795  0.322613  0  0.961173  0
H  H41  1  0.04078666  0.41774080  0.23050123  1  0.441393  0  0.307506  0.302064  0  0.947181  0
H  H42  1  0.91976898  0.28314642  0.43872778  1  0.401206  0  0.303183  0.292151  0  0.963776  0
H  H43  1  0.99328526  0.31434000  0.34653044  1  0.435312  0  0.30605  0.294852  0  0.95702  0
H  H44  1  0.67952650  0.08878802  0.84244301  1  0.510529  0  0.30546  0.320702  0  0.981461  0
H  H45  1  0.75965289  0.12878661  0.75252391  1  0.418718  0  0.31497  0.310524  0  0.923281  0
H  H46  1  0.46454308  0.06681997  0.84167241  1  0.526093  0  0.307062  0.32275  0  0.981227  0
H  H47  1  0.46592642  0.12007842  0.75141294  1  0.430522  0  0.319224  0.314959  0  0.918918  0
H  H48  1  0.95962516  0.56011124  0.84893417  1  0.511142  0  0.304051  0.323151  0  0.96659  0
H  H49  1  0.95790305  0.63531593  0.77010326  1  0.450101  0  0.313405  0.306336  0  0.931777  0
H  H50  1  0.07962195  0.71362562  0.56308058  1  0.40701  0  0.300832  0.290073  0  0.965545  0
H  H51  1  0.00830452  0.64881745  0.65464027  1  0.440169  0  0.30251  0.287943  0  0.966291  0
H  H52  1  0.32302161  0.94245709  0.15445819  1  0.519403  0  0.301305  0.320384  0  0.990236  0
H  H53  1  0.24162666  0.89118108  0.24428126  1  0.434572  0  0.313555  0.306849  0  0.931123  0
H  H54  1  0.53468577  0.89957572  0.15789723  1  0.520506  0  0.302735  0.322413  0  0.989311  0
H  H55  1  0.53323650  0.86389606  0.24861689  1  0.430407  0  0.318159  0.313232  0  0.925726  0
H  H56  1  0.66939990  0.19285837  0.84345647  1  0.467322  0  0.294081  0.301276  0  0.998122  0
H  H57  1  0.73173172  0.27336568  0.79884016  1  0.429469  0  0.302741  0.295448  0  0.951848  0
H  H58  1  0.82838580  0.30797827  0.15691113  1  0.499107  0  0.290685  0.299795  0  1.015339  0
H  H59  1  0.75463014  0.23480283  0.20492008  1  0.422719  0  0.302625  0.294273  0  0.953203  0
H  H60  1  0.47453570  0.96242272  0.84359071  1  0.479222  0  0.295288  0.301549  0  0.995795  0
H  H61  1  0.45204031  0.92726751  0.79878837  1  0.424732  0  0.303544  0.296523  0  0.949254  0
H  H62  1  0.02637648  0.54286635  0.15028914  1  0.490701  0  0.290857  0.301257  0  1.00337  0
H  H63  1  0.05176043  0.57120920  0.19857140  1  0.428801  0  0.300152  0.291392  0  0.953677  0
H  H64  1  0.47273204  0.18958628  0.84485906  1  0.502388  0  0.290523  0.306444  0  1.012271  0
H  H65  1  0.44141890  0.26218415  0.79697088  1  0.418779  0  0.304578  0.296764  0  0.949159  0
H  H66  1  0.02964700  0.31106915  0.15114835  1  0.478164  0  0.295619  0.307914  0  0.997525  0
H  H67  1  0.04896645  0.22813130  0.19833053  1  0.428092  0  0.304575  0.297742  0  0.952567  0
H  H68  1  0.67082910  0.96442251  0.84577415  1  0.493892  0  0.290079  0.302703  0  1.016926  0
H  H69  1  0.74402743  0.93776428  0.79934145  1  0.435046  0  0.303102  0.294982  0  0.952182  0
H  H70  1  0.81993763  0.52193839  0.15762717  1  0.504583  0  0.29063  0.300946  0  1.018439  0
H  H71  1  0.75215303  0.55251045  0.20678200  1  0.423387  0  0.303717  0.296629  0  0.953208  0
C  C72  1  0.41593540  0.91729426  0.99601689  1  1.535725  0  0.213304  0.604367  0  4.151802  0
C  C73  1  0.41775231  0.08713557  0.99771820  1  1.509002  0  0.213258  0.607893  0  4.148163  0
C  C74  1  0.58896470  0.08570549  0.99582234  1  1.525405  0  0.213439  0.606607  0  4.147035  0
C  C75  1  0.58528004  0.91314527  0.99915052  1  1.498178  0  0.21399  0.608703  0  4.142287  0
C  C76  1  0.08937990  0.41656903  0.99818300  1  1.50893  0  0.212747  0.606504  0  4.14857  0
C  C77  1  0.08447745  0.58637612  0.00019477  1  1.542868  0  0.21231  0.604563  0  4.15379  0
C  C78  1  0.90975261  0.57881961  0.00569540  1  1.521693  0  0.209631  0.602241  0  4.153155  0
C  C79  1  0.91300883  0.40965661  0.00641339  1  1.526091  0  0.214037  0.608373  0  4.146772  0
C  C80  1  0.83582523  0.36970398  0.25328659  1  0.43865  0  0.018855  0.057215  0  4.035542  0
C  C81  1  0.79476699  0.33168141  0.33676329  1  0.002058  0  -0.107275  -0.206947  0  4.051004  0
C  C82  1  0.82819756  0.31193361  0.38384142  1  0.036832  0  -0.017711  0.033884  0  4.065128  0
C  C83  1  0.90391620  0.33436887  0.34151405  1  0.344489  0  0.094215  0.117632  0  4.022371  0
C  C84  1  0.94280475  0.37518053  0.25442409  1  1.078758  0  0.224339  0.345814  0  4.041367  0
C  C85  1  0.78754420  0.26748179  0.47219461  1  -0.016935  0  -0.088326  -0.106796  0  4.003742  0
C  C86  1  0.71531686  0.24588940  0.52152603  1  -0.074559  0  -0.085256  -0.122907  0  3.957907  0
C  C87  1  0.60214876  0.17759611  0.65396854  1  0.002087  0  -0.127647  -0.355528  0  3.951365  0
C  C88  1  0.67732524  0.19933865  0.61033916  1  0.025084  0  -0.008748  0.182755  0  4.1407  0
C  C89  1  0.71270277  0.17489113  0.65443159  1  -0.005344  0  -0.137204  -0.367562  0  3.973997  0
C  C90  1  0.67254674  0.12996293  0.73966636  1  1.04029  0  0.217607  0.464167  0  4.10838  0
C  C91  1  0.56441455  0.13213614  0.73967496  1  0.967496  0  0.222364  0.46885  0  4.100278  0
C  C92  1  0.16558125  0.62546506  0.74631945  1  0.392044  0  0.024593  0.063006  0  4.026679  0
C  C93  1  0.20575730  0.67075933  0.66265323  1  0.075603  0  -0.104885  -0.204057  0  4.043681  0
C  C94  1  0.17177421  0.69488902  0.61600856  1  0.122128  0  -0.014885  0.038328  0  4.051641  0
C  C95  1  0.09601302  0.67100686  0.65952638  1  0.347822  0  0.094298  0.116294  0  4.00973  0
C  C96  1  0.05798444  0.62439276  0.74662136  1  1.052747  0  0.226672  0.352782  0  4.031687  0
C  C97  1  0.21187211  0.73940064  0.52730179  1  -0.112847  0  -0.089207  -0.111419  0  3.990843  0
C  C98  1  0.28410945  0.76720794  0.47699801  1  -0.0825  0  -0.083096  -0.116216  0  3.942796  0
C  C99  1  0.39742445  0.82904058  0.34462472  1  -0.001119  0  -0.127804  -0.357083  0  3.952997  0
C  C100  1  0.32224791  0.81011574  0.38788565  1  0.065303  0  -0.007919  0.180874  0  4.133091  0
C  C101  1  0.28747933  0.83324930  0.34307153  1  -0.047487  0  -0.136873  -0.36696  0  3.96782  0
C  C102  1  0.32813262  0.87462876  0.25761484  1  0.97886  0  0.222608  0.4735  0  4.100884  0
C  C103  1  0.43565254  0.86893927  0.25885610  1  0.968172  0  0.226614  0.479819  0  4.095666  0
C  C104  1  0.63669302  0.13589676  0.99393107  1  -0.037635  0  -0.037287  -0.168159  0  3.938097  0
C  C105  1  0.86276465  0.36296224  0.00732207  1  -0.024116  0  -0.036872  -0.167924  0  3.936954  0
C  C106  1  0.69161565  0.19987083  0.92056565  1  0.437712  0  0.10155  0.307011  0  4.071644  0
C  C107  1  0.73307218  0.24433747  0.92589427  1  -0.033876  0  -0.110782  -0.261473  0  3.940971  0
C  C108  1  0.80380586  0.30268719  0.08085442  1  0.42388  0  0.104423  0.31054  0  4.075894  0
C  C109  1  0.75927687  0.26119756  0.07548619  1  0.013225  0  -0.109989  -0.260036  0  3.936076  0
C  C110  1  0.87395164  0.37757256  0.93291029  1  -0.022581  0  -0.092253  -0.072802  0  4.045619  0
C  C111  1  0.83030284  0.33520351  0.92906580  1  -0.00364  0  -0.118101  -0.184841  0  4.039403  0
C  C112  1  0.62676960  0.12030580  0.06826556  1  -0.065569  0  -0.089316  -0.069162  0  4.040465  0
C  C113  1  0.66910860  0.16400124  0.07200470  1  -0.004724  0  -0.115385  -0.181255  0  4.035141  0
C  C114  1  0.72400082  0.22779898  0.99976376  1  -0.024858  0  -0.003747  0.100638  0  4.013896  0
C  C115  1  0.77123310  0.27529586  0.00144085  1  -0.065597  0  -0.005502  0.097316  0  4.014104  0
C  C116  1  0.36966725  0.86951798  0.99389786  1  0.002582  0  -0.037098  -0.16699  0  3.939829  0
C  C117  1  0.13238781  0.63198498  0.00319494  1  -0.026065  0  -0.035256  -0.16241  0  3.933601  0
C  C118  1  0.38154714  0.87931257  0.92032016  1  0.36343  0  0.102383  0.306447  0  4.074348  0
C  C119  1  0.33482468  0.83033332  0.92521835  1  -0.007401  0  -0.11057  -0.261194  0  3.940384  0
C  C120  1  0.12178555  0.62019942  0.07712001  1  0.422501  0  0.099139  0.300764  0  4.068918  0
C  C121  1  0.17025141  0.66662231  0.07313071  1  0.011985  0  -0.110081  -0.25905  0  3.943625  0
C  C122  1  0.19059895  0.69033751  0.92947041  1  -0.032411  0  -0.088518  -0.06854  0  4.042935  0
C  C123  1  0.23714224  0.73603963  0.92678011  1  -0.064015  0  -0.113324  -0.177269  0  4.031088  0
C  C124  1  0.31177564  0.81097973  0.06804312  1  -0.043116  0  -0.088468  -0.067909  0  4.03802  0
C  C125  1  0.26583254  0.76410111  0.07135471  1  -0.010078  0  -0.115818  -0.182314  0  4.034444  0
C  C126  1  0.27655873  0.77318717  0.99882709  1  -0.013923  0  -0.004109  0.099599  0  4.014399  0
C  C127  1  0.22787379  0.72480015  0.99963821  1  -0.02486  0  -0.004877  0.096882  0  4.011869  0
C  C128  1  0.37099878  0.13628055  0.99578269  1  0.035893  0  -0.04075  -0.176985  0  3.943597  0
C  C129  1  0.13381806  0.36495258  0.00145989  1  -0.009174  0  -0.037752  -0.17017  0  3.936822  0
C  C130  1  0.38343845  0.20044028  0.92180745  1  0.415644  0  0.106524  0.315938  0  4.080869  0
C  C131  1  0.33372322  0.24175880  0.92597503  1  -0.014433  0  -0.110139  -0.262179  0  3.939342  0
C  C132  1  0.12002430  0.30016768  0.07564651  1  0.412163  0  0.104668  0.312957  0  4.079622  0
C  C133  1  0.16617402  0.25523887  0.07191914  1  -0.039139  0  -0.111684  -0.26364  0  3.942134  0
C  C134  1  0.19213111  0.37986359  0.92807856  1  -0.014971  0  -0.089647  -0.06912  0  4.04826  0
C  C135  1  0.23707683  0.33531203  0.92585670  1  -0.034709  0  -0.117913  -0.184875  0  4.040353  0
C  C136  1  0.31086110  0.11906806  0.06934374  1  -0.092126  0  -0.094086  -0.073543  0  4.057052  0
C  C137  1  0.26350635  0.16121575  0.07203447  1  -0.003975  0  -0.118627  -0.186234  0  4.04141  0
C  C138  1  0.27407923  0.22419676  0.99899618  1  -0.027447  0  -0.004985  0.101056  0  4.013469  0
C  C139  1  0.22512592  0.27154512  0.99898872  1  -0.01128  0  -0.005429  0.098673  0  4.018262  0
C  C140  1  0.63323973  0.86528972  0.99767428  1  0.023839  0  -0.041112  -0.177456  0  3.941675  0
C  C141  1  0.86100440  0.62615964  0.00806818  1  0.030557  0  -0.038953  -0.168722  0  3.930572  0
C  C142  1  0.68748082  0.87429108  0.92413790  1  0.434781  0  0.107391  0.317198  0  4.073766  0
C  C143  1  0.73169264  0.82693419  0.92922369  1  -0.048574  0  -0.111114  -0.263193  0  3.936309  0
C  C144  1  0.80206107  0.61215435  0.08201355  1  0.432892  0  0.105962  0.314387  0  4.073912  0
C  C145  1  0.75955010  0.66115145  0.07745354  1  -0.045316  0  -0.111091  -0.261218  0  3.933763  0
C  C146  1  0.87402094  0.68872708  0.93426764  1  -0.070491  0  -0.092918  -0.072781  0  4.057327  0
C  C147  1  0.83159292  0.73606190  0.93112231  1  0.00043  0  -0.120316  -0.189342  0  4.046917  0
C  C148  1  0.62621862  0.80874266  0.07155737  1  -0.088433  0  -0.093152  -0.070876  0  4.056029  0
C  C149  1  0.67010836  0.76285106  0.07508867  1  0.021487  0  -0.11886  -0.188058  0  4.04309  0
C  C150  1  0.72470663  0.77139248  0.00265643  1  -0.033188  0  -0.004766  0.101927  0  4.011608  0
C  C151  1  0.77239337  0.72268403  0.00386910  1  -0.014939  0  -0.006523  0.097716  0  4.015322  0
N  N152  1  0.90887281  0.39159189  0.21240775  1  -1.252185  0  -0.342449  -0.30996  0  3.510899  0
N  N153  1  0.59907370  0.10871915  0.78231524  1  -1.304993  0  -0.346243  -0.430856  0  3.3228  0
N  N154  1  0.09250977  0.60291568  0.78823665  1  -1.268301  0  -0.335651  -0.300498  0  3.490182  0
N  N155  1  0.40157511  0.89226206  0.21552652  1  -1.227336  0  -0.340809  -0.424544  0  3.307724  0
N  N156  1  0.01657547  0.39343911  0.21448366  1  -1.213947  0  -0.588867  -0.632675  0  3.320201  0
N  N157  1  0.94514778  0.32066161  0.37775118  1  -1.175066  0  -0.597063  -0.593579  0  3.332698  0
N  N158  1  0.70643599  0.10365069  0.78325161  1  -1.243198  0  -0.584942  -0.63598  0  3.309345  0
N  N159  1  0.49118364  0.11181762  0.78280671  1  -1.294419  0  -0.579162  -0.630335  0  3.320967  0
N  N160  1  0.98441586  0.59790268  0.78736944  1  -1.254049  0  -0.587196  -0.634839  0  3.293754  0
N  N161  1  0.05370950  0.68983638  0.62414270  1  -1.200042  0  -0.6001  -0.599466  0  3.331207  0
N  N162  1  0.29489654  0.89746837  0.21331888  1  -1.260475  0  -0.585821  -0.635099  0  3.29987  0
N  N163  1  0.50866767  0.88663372  0.21636309  1  -1.25737  0  -0.580609  -0.632558  0  3.30459  0
N  N164  1  0.70698768  0.21965323  0.84425675  1  -1.254067  0  -0.606722  -0.635782  0  3.349496  0
N  N165  1  0.78784532  0.28523184  0.15627984  1  -1.259143  0  -0.602931  -0.628958  0  3.35022  0
N  N166  1  0.43598270  0.93538933  0.84421531  1  -1.244691  0  -0.605639  -0.632918  0  3.348821  0
N  N167  1  0.06673855  0.56340049  0.15297117  1  -1.258187  0  -0.606371  -0.637226  0  3.335902  0
N  N168  1  0.44191779  0.22412763  0.84746250  1  -1.255369  0  -0.601454  -0.626339  0  3.36998  0
N  N169  1  0.06466270  0.28040028  0.15041379  1  -1.251226  0  -0.60369  -0.630418  0  3.380728  0
N  N170  1  0.69755250  0.92582604  0.84927535  1  -1.245308  0  -0.602411  -0.624363  0  3.372815  0
N  N171  1  0.78443592  0.55227659  0.15691018  1  -1.277708  0  -0.602406  -0.630416  0  3.36594  0
O  O172  1  0.45956569  0.97845074  0.92781585  1  -1.190327  0  -0.323332  -0.575885  0  2.398871  0
O  O173  1  0.41092982  0.89663719  0.06335192  1  -1.162468  0  -0.310376  -0.53672  0  2.328928  0
O  O174  1  0.39839273  0.02647923  0.06560151  1  -1.196724  0  -0.318758  -0.567039  0  2.371672  0
O  O175  1  0.47567065  0.10725110  0.93085888  1  -1.179698  0  -0.316021  -0.551216  0  2.375275  0
O  O176  1  0.53308863  0.03857317  0.06311478  1  -1.165622  0  -0.31185  -0.540367  0  2.325364  0
O  O177  1  0.60735344  0.09302829  0.92752024  1  -1.190187  0  -0.323144  -0.575222  0  2.396195  0
O  O178  1  0.58852623  0.96035085  0.93197865  1  -1.175648  0  -0.316457  -0.550068  0  2.372342  0
O  O179  1  0.54284659  0.90578489  0.06696161  1  -1.188729  0  -0.318945  -0.568572  0  2.361846  0
O  O180  1  0.04432515  0.40878181  0.06619871  1  -1.188331  0  -0.321798  -0.573716  0  2.387313  0
O  O181  1  0.09727645  0.46565725  0.92977803  1  -1.165596  0  -0.314034  -0.539499  0  2.309349  0
O  O182  1  0.10232854  0.59671692  0.93172859  1  -1.161233  0  -0.316052  -0.542242  0  2.31559  0
O  O183  1  0.02715158  0.53846933  0.06782599  1  -1.185597  0  -0.321754  -0.5655  0  2.371884  0
O  O184  1  0.96475456  0.59925599  0.93724284  1  -1.182233  0  -0.321913  -0.560287  0  2.326747  0
O  O185  1  0.89353015  0.51904760  0.07376000  1  -1.180389  0  -0.320353  -0.553137  0  2.367817  0
O  O186  1  0.90952672  0.38810558  0.07411539  1  -1.170253  0  -0.317475  -0.548527  0  2.356031  0
O  O187  1  0.95769866  0.46878668  0.93869286  1  -1.193541  0  -0.315468  -0.562101  0  2.349495  0
