# generated using pymatgen
data_CdH4C5N2O5
_symmetry_space_group_name_H-M   'P 1'
_cell_length_a   6.45414068
_cell_length_b   10.06799388
_cell_length_c   10.59602272
_cell_angle_alpha   89.99994912
_cell_angle_beta   104.87144128
_cell_angle_gamma   89.99965882
_symmetry_Int_Tables_number   1
_chemical_formula_structural   CdH4C5N2O5
_chemical_formula_sum   'Cd4 H16 C20 N8 O20'
_cell_volume   665.46920511
_cell_formula_units_Z   4
loop_
 _symmetry_equiv_pos_site_id
 _symmetry_equiv_pos_as_xyz
  1  'x, y, z'
loop_
 _atom_site_type_symbol
 _atom_site_label
 _atom_site_symmetry_multiplicity
 _atom_site_fract_x
 _atom_site_fract_y
 _atom_site_fract_z
 _atom_site_occupancy
 _atom_site_hle17_bader_spin_density
 _atom_site_hle17_ddec_charge
 _atom_site_hle17_ddec_spin_density
 _atom_site_hle17_ddec_sum_bond_order
 _atom_site_hle17_magmom
 _atom_site_hse06_10hf_bader_spin_density
 _atom_site_hse06_10hf_ddec_charge
 _atom_site_hse06_10hf_ddec_spin_density
 _atom_site_hse06_10hf_ddec_sum_bond_order
 _atom_site_hse06_10hf_magmom
 _atom_site_hse06_bader_spin_density
 _atom_site_hse06_ddec_charge
 _atom_site_hse06_ddec_spin_density
 _atom_site_hse06_ddec_sum_bond_order
 _atom_site_hse06_magmom
 _atom_site_pbe_bader_spin_density
 _atom_site_pbe_cm5_charge
 _atom_site_pbe_ddec_charge
 _atom_site_pbe_ddec_spin_density
 _atom_site_pbe_ddec_sum_bond_order
 _atom_site_pbe_magmom
Cd  Cd0  1  0.12516409  0.57079463  0.16811646  1  0  1.28548  0  1.52818  0  0  1.100094  0  1.96554  0  0  1.157376  0  1.90982  0  0  0.809889  1.055902  0  2.006323  0
Cd  Cd1  1  0.37484581  0.07079476  0.33188078  1  0  1.285478  0  1.528218  0  0  1.100111  0  1.965575  0  0  1.157387  0  1.909862  0  0  0.809902  1.055927  0  2.006366  0
Cd  Cd2  1  0.87483624  0.42920460  0.83187875  1  0  1.285517  0  1.528312  0  0  1.100129  0  1.965698  0  0  1.15741  0  1.909977  0  0  0.809921  1.055939  0  2.006475  0
Cd  Cd3  1  0.62515439  0.92920744  0.66812196  1  0  1.28549  0  1.528231  0  0  1.100092  0  1.965652  0  0  1.157377  0  1.909931  0  0  0.809901  1.055908  0  2.006446  0
H  H4  1  0.35639720  0.62895436  0.96889511  1  0  0.437311  0  0.86511  0  0  0.402717  0  0.934519  0  0  0.414154  0  0.917917  0  0  0.289014  0.394109  0  0.946998  0
H  H5  1  0.14360330  0.12895367  0.53109781  1  0  0.437388  0  0.865016  0  0  0.40279  0  0.934426  0  0  0.414227  0  0.917824  0  0  0.289041  0.394189  0  0.946894  0
H  H6  1  0.64360310  0.37104387  0.03110199  1  0  0.437334  0  0.865084  0  0  0.402734  0  0.934495  0  0  0.414171  0  0.917894  0  0  0.289035  0.394126  0  0.946974  0
H  H7  1  0.85639691  0.87104356  0.46890399  1  0  0.43738  0  0.865032  0  0  0.402802  0  0.934413  0  0  0.414238  0  0.917812  0  0  0.289056  0.394198  0  0.946886  0
H  H8  1  0.54135486  0.62734931  0.10631173  1  0  0.433114  0  0.858282  0  0  0.401161  0  0.925399  0  0  0.411248  0  0.910774  0  0  0.295388  0.393644  0  0.936341  0
H  H9  1  0.95865111  0.12735701  0.39368125  1  0  0.433189  0  0.858166  0  0  0.401245  0  0.925276  0  0  0.411331  0  0.910652  0  0  0.295447  0.39373  0  0.936221  0
H  H10  1  0.45864866  0.37264495  0.89368494  1  0  0.433092  0  0.858308  0  0  0.401144  0  0.925402  0  0  0.411232  0  0.910777  0  0  0.295382  0.393627  0  0.936345  0
H  H11  1  0.04135072  0.87264619  0.60631987  1  0  0.433171  0  0.858185  0  0  0.401201  0  0.925316  0  0  0.411286  0  0.910694  0  0  0.295418  0.39369  0  0.93625  0
H  H12  1  0.23809513  0.42629569  0.66713534  1  0  0.321061  0  0.916587  0  0  0.295408  0  0.985677  0  0  0.305376  0  0.977145  0  0  0.308915  0.288  0  0.992169  0
H  H13  1  0.26191175  0.92629190  0.83286876  1  0  0.321108  0  0.91659  0  0  0.29546  0  0.985659  0  0  0.305428  0  0.977128  0  0  0.308944  0.288054  0  0.99215  0
H  H14  1  0.76190195  0.57370354  0.33286218  1  0  0.321065  0  0.916579  0  0  0.29539  0  0.985661  0  0  0.305358  0  0.977131  0  0  0.308901  0.287986  0  0.992151  0
H  H15  1  0.73809961  0.07370236  0.16713863  1  0  0.321161  0  0.916601  0  0  0.295452  0  0.985723  0  0  0.30542  0  0.977192  0  0  0.30891  0.28804  0  0.992214  0
H  H16  1  0.19360665  0.33937687  0.43587668  1  0  0.105805  0  0.976295  0  0  0.112834  0  1.041861  0  0  0.116128  0  1.037958  0  0  0.133604  0.110381  0  1.04481  0
H  H17  1  0.30639874  0.83937514  0.06412811  1  0  0.105845  0  0.976262  0  0  0.112838  0  1.041865  0  0  0.11613  0  1.037966  0  0  0.133624  0.110385  0  1.044811  0
H  H18  1  0.80640005  0.66062732  0.56412240  1  0  0.105801  0  0.976173  0  0  0.112781  0  1.041819  0  0  0.11607  0  1.037926  0  0  0.133617  0.110325  0  1.044762  0
H  H19  1  0.69360771  0.16062706  0.93588414  1  0  0.105848  0  0.976255  0  0  0.112776  0  1.041924  0  0  0.116065  0  1.038031  0  0  0.133614  0.11032  0  1.044868  0
C  C20  1  0.22481733  0.44245294  0.46529501  1  0  0.259395  0  3.636425  0  0  0.191493  0  3.919968  0  0  0.206212  0  3.931648  0  0  0.15303  0.181775  0  3.911567  0
C  C21  1  0.27518381  0.94245036  0.03470806  1  0  0.259382  0  3.636538  0  0  0.191533  0  3.920039  0  0  0.206253  0  3.931721  0  0  0.153018  0.181825  0  3.91163  0
C  C22  1  0.77518293  0.55754529  0.53470397  1  0  0.259564  0  3.636135  0  0  0.19162  0  3.919734  0  0  0.206341  0  3.931412  0  0  0.153033  0.181914  0  3.911314  0
C  C23  1  0.72482271  0.05754886  0.96530042  1  0  0.259384  0  3.636312  0  0  0.19151  0  3.919836  0  0  0.206232  0  3.931511  0  0  0.153  0.181813  0  3.911414  0
C  C24  1  0.27766336  0.65699707  0.46312542  1  0  -0.00081  0  3.714965  0  0  -0.007379  0  3.973294  0  0  -0.008681  0  3.992718  0  0  0.075326  -0.006769  0  3.960403  0
C  C25  1  0.22232958  0.15699309  0.03687183  1  0  -0.000602  0  3.714778  0  0  -0.007241  0  3.973174  0  0  -0.00854  0  3.992597  0  0  0.075341  -0.006642  0  3.960298  0
C  C26  1  0.72233215  0.34300712  0.53686995  1  0  -0.00058  0  3.714488  0  0  -0.007239  0  3.972925  0  0  -0.008541  0  3.992348  0  0  0.075391  -0.006632  0  3.960051  0
C  C27  1  0.77766905  0.84300613  0.96312877  1  0  -0.000699  0  3.714739  0  0  -0.007339  0  3.973143  0  0  -0.00864  0  3.992566  0  0  0.075309  -0.006735  0  3.960273  0
C  C28  1  0.28292632  0.62173675  0.59160250  1  0  0.01407  0  3.645184  0  0  9e-05  0  3.907864  0  0  -0.000835  0  3.925688  0  0  0.088055  0.000403  0  3.896172  0
C  C29  1  0.21707251  0.12173345  0.90839770  1  0  0.0141  0  3.645129  0  0  0.000162  0  3.907779  0  0  -0.000762  0  3.9256  0  0  0.088072  0.000483  0  3.896089  0
C  C30  1  0.71706766  0.37826545  0.40838884  1  0  0.014002  0  3.645398  0  0  -8e-06  0  3.908074  0  0  -0.000932  0  3.925897  0  0  0.087992  0.0003  0  3.896398  0
C  C31  1  0.78293087  0.87826279  0.09160650  1  0  0.014035  0  3.645334  0  0  4e-05  0  3.907952  0  0  -0.000887  0  3.925779  0  0  0.088041  0.000356  0  3.896273  0
C  C32  1  0.30902082  0.78206863  0.39632465  1  0  0.662614  0  3.905018  0  0  0.607808  0  4.198145  0  0  0.644363  0  4.189099  0  0  0.21119  0.582792  0  4.203558  0
C  C33  1  0.19097241  0.28206769  0.10367348  1  0  0.662452  0  3.904998  0  0  0.60768  0  4.198119  0  0  0.644236  0  4.189067  0  0  0.211111  0.582667  0  4.203532  0
C  C34  1  0.69098104  0.21793357  0.60367458  1  0  0.662558  0  3.904722  0  0  0.607792  0  4.197853  0  0  0.644348  0  4.188801  0  0  0.21114  0.582767  0  4.203286  0
C  C35  1  0.80902144  0.71793649  0.89632445  1  0  0.662484  0  3.904935  0  0  0.607716  0  4.198044  0  0  0.644269  0  4.188994  0  0  0.211132  0.582698  0  4.203464  0
C  C36  1  0.29349909  0.69397152  0.71560993  1  0  0.659455  0  3.927251  0  0  0.601438  0  4.236215  0  0  0.63559  0  4.226708  0  0  0.213605  0.578348  0  4.241163  0
C  C37  1  0.20650703  0.19396838  0.78439045  1  0  0.65944  0  3.927207  0  0  0.601406  0  4.236184  0  0  0.635557  0  4.226679  0  0  0.213587  0.578308  0  4.241143  0
C  C38  1  0.70648990  0.30603167  0.28439004  1  0  0.659552  0  3.927396  0  0  0.601552  0  4.236303  0  0  0.635702  0  4.226799  0  0  0.213678  0.578461  0  4.241258  0
C  C39  1  0.79349804  0.80602489  0.21560931  1  0  0.659586  0  3.927391  0  0  0.601556  0  4.236344  0  0  0.635708  0  4.226842  0  0  0.213608  0.578457  0  4.241308  0
N  N40  1  0.23870451  0.54367173  0.38695077  1  0  -0.437083  0  3.261365  0  0  -0.367721  0  3.55159  0  0  -0.39046  0  3.569516  0  0  -0.35717  -0.350862  0  3.538578  0
N  N41  1  0.26128953  0.04366952  0.11304958  1  0  -0.437155  0  3.261389  0  0  -0.367792  0  3.551609  0  0  -0.390532  0  3.569537  0  0  -0.357153  -0.350936  0  3.538611  0
N  N42  1  0.76129720  0.45632948  0.61305694  1  0  -0.43727  0  3.261281  0  0  -0.367862  0  3.551532  0  0  -0.390596  0  3.569446  0  0  -0.357161  -0.351004  0  3.538523  0
N  N43  1  0.73870909  0.95633169  0.88695102  1  0  -0.437107  0  3.261255  0  0  -0.367747  0  3.551466  0  0  -0.390483  0  3.569387  0  0  -0.357124  -0.350893  0  3.538464  0
N  N44  1  0.25086407  0.48620336  0.58841551  1  0  -0.291414  0  3.426874  0  0  -0.227162  0  3.662903  0  0  -0.243705  0  3.678275  0  0  -0.365476  -0.215948  0  3.653007  0
N  N45  1  0.24913900  0.98620054  0.91158698  1  0  -0.291536  0  3.427  0  0  -0.227306  0  3.663014  0  0  -0.243849  0  3.678385  0  0  -0.365509  -0.216093  0  3.653119  0
N  N46  1  0.74912985  0.51379388  0.41157866  1  0  -0.291516  0  3.426894  0  0  -0.227111  0  3.662785  0  0  -0.243655  0  3.678157  0  0  -0.365452  -0.215906  0  3.652887  0
N  N47  1  0.75087072  0.01379570  0.08842203  1  0  -0.291552  0  3.426978  0  0  -0.227097  0  3.662767  0  0  -0.243641  0  3.678139  0  0  -0.365442  -0.21588  0  3.652872  0
O  O48  1  0.25450238  0.78355568  0.27328040  1  0  -0.625499  0  2.021076  0  0  -0.567269  0  2.272595  0  0  -0.596261  0  2.264229  0  0  -0.307135  -0.546678  0  2.277784  0
O  O49  1  0.24548928  0.28355542  0.22671559  1  0  -0.62538  0  2.021124  0  0  -0.567193  0  2.27267  0  0  -0.596191  0  2.264325  0  0  -0.307084  -0.5466  0  2.277859  0
O  O50  1  0.74549463  0.21644553  0.72672088  1  0  -0.62549  0  2.021033  0  0  -0.567252  0  2.272508  0  0  -0.596251  0  2.264172  0  0  -0.307132  -0.546653  0  2.2777  0
O  O51  1  0.75450465  0.71644977  0.77327857  1  0  -0.625448  0  2.021085  0  0  -0.567208  0  2.272534  0  0  -0.596218  0  2.264225  0  0  -0.307095  -0.546611  0  2.277725  0
O  O52  1  0.38617088  0.63519032  0.06633653  1  0  -0.858595  0  1.891954  0  0  -0.791822  0  2.097209  0  0  -0.815134  0  2.063521  0  0  -0.590105  -0.774739  0  2.122298  0
O  O53  1  0.11382876  0.13519534  0.43365805  1  0  -0.858703  0  1.891797  0  0  -0.79196  0  2.097036  0  0  -0.815271  0  2.063351  0  0  -0.590189  -0.774879  0  2.122122  0
O  O54  1  0.61383421  0.36480692  0.93366229  1  0  -0.858584  0  1.891967  0  0  -0.791792  0  2.097232  0  0  -0.815101  0  2.063545  0  0  -0.590116  -0.774706  0  2.12232  0
O  O55  1  0.88616830  0.86481183  0.56634040  1  0  -0.858691  0  1.891792  0  0  -0.791911  0  2.097128  0  0  -0.81522  0  2.06344  0  0  -0.590183  -0.774834  0  2.122213  0
O  O56  1  0.39238942  0.88419504  0.46356478  1  0  -0.677706  0  2.125227  0  0  -0.590133  0  2.392396  0  0  -0.62406  0  2.378696  0  0  -0.326946  -0.565565  0  2.401198  0
O  O57  1  0.10760927  0.38419449  0.03642945  1  0  -0.677732  0  2.125171  0  0  -0.590164  0  2.392333  0  0  -0.62409  0  2.37863  0  0  -0.326942  -0.56559  0  2.401132  0
O  O58  1  0.60761574  0.11580219  0.53643028  1  0  -0.677775  0  2.125137  0  0  -0.590222  0  2.392308  0  0  -0.624152  0  2.378608  0  0  -0.326944  -0.565645  0  2.401112  0
O  O59  1  0.89238623  0.61580474  0.96356592  1  0  -0.677695  0  2.125176  0  0  -0.590132  0  2.392336  0  0  -0.624057  0  2.378635  0  0  -0.326943  -0.565558  0  2.401137  0
O  O60  1  0.30430687  0.82185994  0.71493415  1  0  -0.687129  0  2.086184  0  0  -0.61693  0  2.32816  0  0  -0.644097  0  2.316379  0  0  -0.324128  -0.596715  0  2.335662  0
O  O61  1  0.19569791  0.32185683  0.78506780  1  0  -0.687119  0  2.086114  0  0  -0.616946  0  2.328119  0  0  -0.644117  0  2.316353  0  0  -0.324159  -0.59672  0  2.335617  0
O  O62  1  0.69569498  0.17814524  0.28506603  1  0  -0.687199  0  2.086079  0  0  -0.616964  0  2.328011  0  0  -0.644133  0  2.316238  0  0  -0.324166  -0.596742  0  2.335515  0
O  O63  1  0.80430237  0.67813941  0.21493023  1  0  -0.687183  0  2.086186  0  0  -0.616977  0  2.328167  0  0  -0.644148  0  2.316389  0  0  -0.324146  -0.596749  0  2.335661  0
O  O64  1  0.28085739  0.62248060  0.81080579  1  0  -0.600088  0  1.964203  0  0  -0.544636  0  2.193045  0  0  -0.567216  0  2.181724  0  0  -0.307092  -0.52811  0  2.20067  0
O  O65  1  0.21915589  0.12248246  0.68919487  1  0  -0.600116  0  1.964241  0  0  -0.544626  0  2.193053  0  0  -0.567206  0  2.181733  0  0  -0.307027  -0.528098  0  2.200679  0
O  O66  1  0.71912038  0.37752160  0.18919235  1  0  -0.600129  0  1.964306  0  0  -0.54468  0  2.193121  0  0  -0.567261  0  2.1818  0  0  -0.307092  -0.528151  0  2.200749  0
O  O67  1  0.78085399  0.87751081  0.31080567  1  0  -0.600126  0  1.964215  0  0  -0.544735  0  2.19316  0  0  -0.567297  0  2.181797  0  0  -0.307068  -0.528205  0  2.200789  0
