# generated using pymatgen
data_AgH11C13N2O3
_symmetry_space_group_name_H-M   'P 1'
_cell_length_a   7.19670254
_cell_length_b   10.72904754
_cell_length_c   16.61122004
_cell_angle_alpha   107.80282533
_cell_angle_beta   89.99961589
_cell_angle_gamma   89.99996548
_symmetry_Int_Tables_number   1
_chemical_formula_structural   AgH11C13N2O3
_chemical_formula_sum   'Ag4 H44 C52 N8 O12'
_cell_volume   1221.19593185
_cell_formula_units_Z   4
loop_
 _symmetry_equiv_pos_site_id
 _symmetry_equiv_pos_as_xyz
  1  'x, y, z'
loop_
 _atom_site_type_symbol
 _atom_site_label
 _atom_site_symmetry_multiplicity
 _atom_site_fract_x
 _atom_site_fract_y
 _atom_site_fract_z
 _atom_site_occupancy
 _atom_site_hle17_bader_spin_density
 _atom_site_hle17_ddec_charge
 _atom_site_hle17_ddec_spin_density
 _atom_site_hle17_ddec_sum_bond_order
 _atom_site_hle17_magmom
 _atom_site_hse06_10hf_bader_spin_density
 _atom_site_hse06_10hf_ddec_charge
 _atom_site_hse06_10hf_ddec_spin_density
 _atom_site_hse06_10hf_ddec_sum_bond_order
 _atom_site_hse06_10hf_magmom
 _atom_site_hse06_bader_spin_density
 _atom_site_hse06_ddec_charge
 _atom_site_hse06_ddec_spin_density
 _atom_site_hse06_ddec_sum_bond_order
 _atom_site_hse06_magmom
 _atom_site_pbe_bader_spin_density
 _atom_site_pbe_cm5_charge
 _atom_site_pbe_ddec_charge
 _atom_site_pbe_ddec_spin_density
 _atom_site_pbe_ddec_sum_bond_order
 _atom_site_pbe_magmom
Ag  Ag0  1  0.21368000  0.95127157  0.83557454  1  0  0.566728  0  1.321006  0  0  0.429665  0  1.742793  0  0  0.462282  0  1.6971  0  0  0.458185  0.407143  0  1.774054  0
Ag  Ag1  1  0.71367451  0.04871759  0.66442433  1  0  0.566693  0  1.321067  0  0  0.429623  0  1.742871  0  0  0.462245  0  1.697176  0  0  0.458177  0.407097  0  1.774132  0
Ag  Ag2  1  0.78633246  0.04871638  0.16442257  1  0  0.56669  0  1.321064  0  0  0.429667  0  1.742879  0  0  0.462297  0  1.697129  0  0  0.458194  0.407153  0  1.774091  0
Ag  Ag3  1  0.28633100  0.95128699  0.33557303  1  0  0.566701  0  1.32102  0  0  0.429691  0  1.742863  0  0  0.462309  0  1.697174  0  0  0.458182  0.407162  0  1.774133  0
H  H4  1  0.04074391  0.69842521  0.84002180  1  0  0.078114  0  0.955542  0  0  0.086254  0  1.023092  0  0  0.087936  0  1.022143  0  0  0.113476  0.084942  0  1.024004  0
H  H5  1  0.54074525  0.30157901  0.65998594  1  0  0.078085  0  0.955518  0  0  0.086199  0  1.023096  0  0  0.087888  0  1.022163  0  0  0.113444  0.084885  0  1.024011  0
H  H6  1  0.95924493  0.30157941  0.15998640  1  0  0.078104  0  0.955533  0  0  0.086206  0  1.023123  0  0  0.087897  0  1.022165  0  0  0.113421  0.084895  0  1.024007  0
H  H7  1  0.45923941  0.69842459  0.34001062  1  0  0.078051  0  0.955614  0  0  0.086161  0  1.023181  0  0  0.087848  0  1.022242  0  0  0.113421  0.084848  0  1.024093  0
H  H8  1  0.97640365  0.56981760  0.93912858  1  0  0.095681  0  0.958325  0  0  0.108228  0  1.015949  0  0  0.110529  0  1.016192  0  0  0.106286  0.10667  0  1.015713  0
H  H9  1  0.47640122  0.43019651  0.56088405  1  0  0.095547  0  0.95836  0  0  0.108135  0  1.015948  0  0  0.110437  0  1.016188  0  0  0.106215  0.106578  0  1.015715  0
H  H10  1  0.02358379  0.43019584  0.06088317  1  0  0.095613  0  0.958386  0  0  0.108191  0  1.015976  0  0  0.110491  0  1.01622  0  0  0.106262  0.106633  0  1.015741  0
H  H11  1  0.52358066  0.56980611  0.43911173  1  0  0.095607  0  0.958197  0  0  0.108143  0  1.015849  0  0  0.110445  0  1.016087  0  0  0.106243  0.106586  0  1.015614  0
H  H12  1  0.05620951  0.67148056  0.09371193  1  0  0.090501  0  0.947035  0  0  0.105886  0  1.001885  0  0  0.10799  0  1.000383  0  0  0.108388  0.104286  0  1.003051  0
H  H13  1  0.55619871  0.32852822  0.40629624  1  0  0.090556  0  0.947137  0  0  0.10595  0  1.001964  0  0  0.108055  0  1.000446  0  0  0.108414  0.104349  0  1.003118  0
H  H14  1  0.94379044  0.32853384  0.90629518  1  0  0.090538  0  0.947045  0  0  0.105919  0  1.001889  0  0  0.108023  0  1.000388  0  0  0.108395  0.104315  0  1.003063  0
H  H15  1  0.44378873  0.67147049  0.59369937  1  0  0.09054  0  0.947152  0  0  0.105993  0  1.001893  0  0  0.108091  0  1.000403  0  0  0.108428  0.104389  0  1.003063  0
H  H16  1  0.19740013  0.89240594  0.13986108  1  0  0.108839  0  0.980281  0  0  0.11754  0  1.045977  0  0  0.120718  0  1.044373  0  0  0.102844  0.115181  0  1.04742  0
H  H17  1  0.69739020  0.10760156  0.36014402  1  0  0.108811  0  0.98026  0  0  0.117538  0  1.04594  0  0  0.120717  0  1.044337  0  0  0.10283  0.115187  0  1.047373  0
H  H18  1  0.80261094  0.10760257  0.86014187  1  0  0.108781  0  0.980323  0  0  0.117538  0  1.045952  0  0  0.120717  0  1.044375  0  0  0.102855  0.115176  0  1.047426  0
H  H19  1  0.30261114  0.89240204  0.63985315  1  0  0.108735  0  0.980364  0  0  0.117496  0  1.045953  0  0  0.120672  0  1.044378  0  0  0.102828  0.115146  0  1.047417  0
H  H20  1  0.28828138  0.08594551  0.98470664  1  0  0.083491  0  0.991447  0  0  0.09161  0  1.068885  0  0  0.095477  0  1.064946  0  0  0.090677  0.088684  0  1.071942  0
H  H21  1  0.78829008  0.91405427  0.51529410  1  0  0.083469  0  0.991498  0  0  0.091583  0  1.06895  0  0  0.095445  0  1.065016  0  0  0.090667  0.088653  0  1.072007  0
H  H22  1  0.71173108  0.91404929  0.01529001  1  0  0.083542  0  0.991424  0  0  0.091644  0  1.068871  0  0  0.095506  0  1.064939  0  0  0.090691  0.088722  0  1.071933  0
H  H23  1  0.21172655  0.08595716  0.48470581  1  0  0.083579  0  0.991527  0  0  0.091704  0  1.068941  0  0  0.095583  0  1.064966  0  0  0.090722  0.088782  0  1.07198  0
H  H24  1  0.33189237  0.06776791  0.16569058  1  0  0.085604  0  0.984996  0  0  0.093784  0  1.055521  0  0  0.096483  0  1.053727  0  0  0.095145  0.091861  0  1.056749  0
H  H25  1  0.83190588  0.93223146  0.33430893  1  0  0.08559  0  0.985079  0  0  0.093764  0  1.055605  0  0  0.096461  0  1.053814  0  0  0.095169  0.09184  0  1.056835  0
H  H26  1  0.66811036  0.93222786  0.83430506  1  0  0.085682  0  0.985012  0  0  0.093841  0  1.05553  0  0  0.096535  0  1.053768  0  0  0.0952  0.091913  0  1.056788  0
H  H27  1  0.16809963  0.06776432  0.66568912  1  0  0.085662  0  0.984971  0  0  0.093799  0  1.05553  0  0  0.096494  0  1.053768  0  0  0.095163  0.091869  0  1.056794  0
H  H28  1  0.49572494  0.22701899  0.26245370  1  0  0.089123  0  0.966848  0  0  0.100248  0  1.031583  0  0  0.102689  0  1.030272  0  0  0.096594  0.098543  0  1.032459  0
H  H29  1  0.99574282  0.77297516  0.23754792  1  0  0.089155  0  0.966877  0  0  0.100276  0  1.031584  0  0  0.102714  0  1.03029  0  0  0.096615  0.098559  0  1.032492  0
H  H30  1  0.50427362  0.77296700  0.73754183  1  0  0.089156  0  0.966914  0  0  0.100275  0  1.031614  0  0  0.102712  0  1.03033  0  0  0.096584  0.098539  0  1.032545  0
H  H31  1  0.00426685  0.22702063  0.76245374  1  0  0.089083  0  0.966894  0  0  0.100228  0  1.031574  0  0  0.102662  0  1.030295  0  0  0.096593  0.098536  0  1.032462  0
H  H32  1  0.66589550  0.43992725  0.30837201  1  0  0.08497  0  0.965411  0  0  0.096028  0  1.027372  0  0  0.098329  0  1.027165  0  0  0.097129  0.09446  0  1.027355  0
H  H33  1  0.16590209  0.56006267  0.19162433  1  0  0.084907  0  0.965377  0  0  0.095945  0  1.027353  0  0  0.098244  0  1.027161  0  0  0.097115  0.094377  0  1.02735  0
H  H34  1  0.33409750  0.56006265  0.69162609  1  0  0.084987  0  0.965329  0  0  0.095983  0  1.027352  0  0  0.098281  0  1.02716  0  0  0.097138  0.094415  0  1.027345  0
H  H35  1  0.83410064  0.43993115  0.80837334  1  0  0.084935  0  0.965369  0  0  0.095994  0  1.027327  0  0  0.098294  0  1.027131  0  0  0.097103  0.094426  0  1.027322  0
H  H36  1  0.67386093  0.58100817  0.21420349  1  0  0.086783  0  0.974698  0  0  0.093637  0  1.042534  0  0  0.095769  0  1.042755  0  0  0.095166  0.092067  0  1.042514  0
H  H37  1  0.17386895  0.41898566  0.28579780  1  0  0.086808  0  0.974725  0  0  0.093658  0  1.04258  0  0  0.095798  0  1.042762  0  0  0.095144  0.092094  0  1.042525  0
H  H38  1  0.32612790  0.41898371  0.78579981  1  0  0.086858  0  0.974618  0  0  0.093707  0  1.04246  0  0  0.095841  0  1.042679  0  0  0.095202  0.092138  0  1.042441  0
H  H39  1  0.82613100  0.58101404  0.71420403  1  0  0.086859  0  0.974642  0  0  0.093668  0  1.042514  0  0  0.0958  0  1.042735  0  0  0.095179  0.092099  0  1.042495  0
H  H40  1  0.52309716  0.50755053  0.07395240  1  0  0.088308  0  0.953311  0  0  0.099171  0  1.01357  0  0  0.102435  0  1.011323  0  0  0.098699  0.097069  0  1.014623  0
H  H41  1  0.02310436  0.49244753  0.42604955  1  0  0.088301  0  0.953214  0  0  0.099124  0  1.013539  0  0  0.102393  0  1.01127  0  0  0.098684  0.097026  0  1.014567  0
H  H42  1  0.47689724  0.49244625  0.92605005  1  0  0.088296  0  0.953212  0  0  0.09913  0  1.01352  0  0  0.102396  0  1.011273  0  0  0.098675  0.09703  0  1.01457  0
H  H43  1  0.97689837  0.50755217  0.57395227  1  0  0.088288  0  0.953316  0  0  0.099148  0  1.013582  0  0  0.102412  0  1.011335  0  0  0.098679  0.097045  0  1.014635  0
H  H44  1  0.36929523  0.29061700  0.02397678  1  0  0.095309  0  0.971756  0  0  0.107054  0  1.033272  0  0  0.109505  0  1.032667  0  0  0.097015  0.105273  0  1.033789  0
H  H45  1  0.86930255  0.70938230  0.47602260  1  0  0.095268  0  0.971841  0  0  0.107041  0  1.033331  0  0  0.109486  0  1.032733  0  0  0.097001  0.105258  0  1.033846  0
H  H46  1  0.63070888  0.70937682  0.97602088  1  0  0.095314  0  0.971811  0  0  0.107043  0  1.033326  0  0  0.109493  0  1.032723  0  0  0.097021  0.105265  0  1.03384  0
H  H47  1  0.13069879  0.29061642  0.52397663  1  0  0.095272  0  0.971847  0  0  0.10705  0  1.03336  0  0  0.109496  0  1.032736  0  0  0.097006  0.10527  0  1.033847  0
C  C48  1  0.07375850  0.73784773  0.90704412  1  0  0.134894  0  3.721263  0  0  0.103467  0  3.967992  0  0  0.111143  0  3.988933  0  0  0.045655  0.098174  0  3.954258  0
C  C49  1  0.57375534  0.26215935  0.59296108  1  0  0.134955  0  3.721205  0  0  0.103573  0  3.967901  0  0  0.111229  0  3.988856  0  0  0.045681  0.098276  0  3.95417  0
C  C50  1  0.92624284  0.26215492  0.09296009  1  0  0.134961  0  3.721295  0  0  0.103646  0  3.967952  0  0  0.1113  0  3.988894  0  0  0.045775  0.098353  0  3.9542  0
C  C51  1  0.42623627  0.73784424  0.40703428  1  0  0.134896  0  3.721173  0  0  0.10361  0  3.967834  0  0  0.111273  0  3.988779  0  0  0.045756  0.098314  0  3.954097  0
C  C52  1  0.03850862  0.66666224  0.96261757  1  0  -0.124037  0  3.74305  0  0  -0.134011  0  3.988969  0  0  -0.141734  0  4.011438  0  0  -0.085371  -0.129271  0  3.973978  0
C  C53  1  0.53850905  0.33334492  0.53738895  1  0  -0.123858  0  3.743138  0  0  -0.133874  0  3.989041  0  0  -0.141595  0  4.011515  0  0  -0.085373  -0.129135  0  3.97405  0
C  C54  1  0.96148716  0.33334335  0.03738962  1  0  -0.12393  0  3.743239  0  0  -0.133966  0  3.989127  0  0  -0.141686  0  4.011603  0  0  -0.085418  -0.129227  0  3.974134  0
C  C55  1  0.46148395  0.66666162  0.46260759  1  0  -0.123915  0  3.743045  0  0  -0.133903  0  3.988948  0  0  -0.141622  0  4.011424  0  0  -0.085478  -0.129164  0  3.973954  0
C  C56  1  0.08364463  0.72294669  0.04769914  1  0  0.008352  0  3.735256  0  0  -0.009836  0  3.979972  0  0  -0.005109  0  3.997706  0  0  -0.066864  -0.012644  0  3.967746  0
C  C57  1  0.58364289  0.27706202  0.45230593  1  0  0.008097  0  3.735325  0  0  -0.010104  0  3.980112  0  0  -0.005374  0  3.997813  0  0  -0.066858  -0.012912  0  3.967858  0
C  C58  1  0.91635393  0.27706477  0.95230740  1  0  0.008126  0  3.735208  0  0  -0.010066  0  3.979971  0  0  -0.005339  0  3.997706  0  0  -0.066866  -0.012873  0  3.967742  0
C  C59  1  0.41635845  0.72294451  0.54769001  1  0  0.008121  0  3.735455  0  0  -0.010114  0  3.980192  0  0  -0.005389  0  3.997925  0  0  -0.066806  -0.012923  0  3.96797  0
C  C60  1  0.16238323  0.84685453  0.07369869  1  0  -0.159323  0  3.689531  0  0  -0.175577  0  3.936883  0  0  -0.183675  0  3.957169  0  0  -0.087841  -0.170225  0  3.923442  0
C  C61  1  0.66238059  0.15315499  0.42630691  1  0  -0.159221  0  3.689633  0  0  -0.175537  0  3.937011  0  0  -0.183625  0  3.957264  0  0  -0.087842  -0.170183  0  3.923526  0
C  C62  1  0.83762367  0.15315300  0.92630467  1  0  -0.159129  0  3.689572  0  0  -0.175442  0  3.936863  0  0  -0.18354  0  3.957166  0  0  -0.087811  -0.17009  0  3.92343  0
C  C63  1  0.33761381  0.84684958  0.57369045  1  0  -0.159182  0  3.689656  0  0  -0.175469  0  3.936998  0  0  -0.183564  0  3.957298  0  0  -0.087867  -0.170129  0  3.923558  0
C  C64  1  0.19654097  0.91421160  0.01463088  1  0  0.249821  0  3.77854  0  0  0.250045  0  4.009815  0  0  0.259677  0  4.031857  0  0  0.112729  0.243586  0  3.99457  0
C  C65  1  0.69654580  0.08579686  0.48537201  1  0  0.249812  0  3.778681  0  0  0.250081  0  4.009901  0  0  0.259714  0  4.031934  0  0  0.112768  0.243622  0  3.994638  0
C  C66  1  0.80346593  0.08579299  0.98536949  1  0  0.249788  0  3.778687  0  0  0.250018  0  4.009982  0  0  0.259648  0  4.032024  0  0  0.112711  0.24356  0  3.994737  0
C  C67  1  0.30346387  0.91420968  0.51462755  1  0  0.250076  0  3.778379  0  0  0.250323  0  4.009702  0  0  0.259955  0  4.031737  0  0  0.112856  0.243865  0  3.994454  0
C  C68  1  0.27823963  0.04423380  0.03713157  1  0  -0.152336  0  3.744743  0  0  -0.172361  0  3.99744  0  0  -0.178325  0  4.019601  0  0  -0.098471  -0.168207  0  3.982358  0
C  C69  1  0.77824281  0.95576764  0.46286790  1  0  -0.152288  0  3.744724  0  0  -0.172317  0  3.997401  0  0  -0.178273  0  4.01956  0  0  -0.098432  -0.168161  0  3.982315  0
C  C70  1  0.72177005  0.95576296  0.96286727  1  0  -0.152336  0  3.744619  0  0  -0.172335  0  3.997317  0  0  -0.178293  0  4.019482  0  0  -0.098478  -0.16817  0  3.982201  0
C  C71  1  0.22176965  0.04423792  0.53712845  1  0  -0.152549  0  3.744915  0  0  -0.172532  0  3.997564  0  0  -0.178515  0  4.019752  0  0  -0.098538  -0.168359  0  3.982419  0
C  C72  1  0.33972689  0.11277953  0.11499687  1  0  -0.083711  0  3.733802  0  0  -0.10626  0  3.989713  0  0  -0.106092  0  4.00914  0  0  -0.087719  -0.106186  0  3.976306  0
C  C73  1  0.83973409  0.88721786  0.38500102  1  0  -0.083783  0  3.733846  0  0  -0.106317  0  3.989736  0  0  -0.106151  0  4.009166  0  0  -0.087792  -0.106255  0  3.976349  0
C  C74  1  0.66027167  0.88721427  0.88499718  1  0  -0.08389  0  3.733804  0  0  -0.106439  0  3.989676  0  0  -0.106278  0  4.009134  0  0  -0.087819  -0.106368  0  3.976306  0
C  C75  1  0.16026586  0.11277694  0.61499683  1  0  -0.083792  0  3.733733  0  0  -0.106371  0  3.989629  0  0  -0.10621  0  4.009084  0  0  -0.087798  -0.106304  0  3.976261  0
C  C76  1  0.42242564  0.24273272  0.14003283  1  0  0.073677  0  3.826887  0  0  0.094221  0  4.055491  0  0  0.09322  0  4.081118  0  0  -0.020442  0.094592  0  4.038081  0
C  C77  1  0.92243470  0.75726354  0.35996761  1  0  0.073748  0  3.826781  0  0  0.094308  0  4.055365  0  0  0.093305  0  4.080993  0  0  -0.020415  0.094674  0  4.037976  0
C  C78  1  0.57757292  0.75726012  0.85996283  1  0  0.073768  0  3.82703  0  0  0.094372  0  4.055546  0  0  0.093368  0  4.081183  0  0  -0.020354  0.094739  0  4.038142  0
C  C79  1  0.07756247  0.24273225  0.64003225  1  0  0.073658  0  3.826882  0  0  0.094323  0  4.055341  0  0  0.093321  0  4.080971  0  0  -0.020391  0.094686  0  4.037957  0
C  C80  1  0.50439587  0.28841039  0.22090279  1  0  -0.131739  0  3.750198  0  0  -0.148411  0  3.997792  0  0  -0.151194  0  4.018337  0  0  -0.096953  -0.146496  0  3.983693  0
C  C81  1  0.00440379  0.71158673  0.27909904  1  0  -0.131822  0  3.750349  0  0  -0.148481  0  3.997885  0  0  -0.151268  0  4.018453  0  0  -0.09701  -0.146565  0  3.983839  0
C  C82  1  0.49560408  0.71158049  0.77909370  1  0  -0.131903  0  3.750724  0  0  -0.14858  0  3.998248  0  0  -0.151368  0  4.018823  0  0  -0.097027  -0.146646  0  3.984193  0
C  C83  1  0.99559477  0.28840906  0.72090202  1  0  -0.13172  0  3.750307  0  0  -0.148426  0  3.997835  0  0  -0.151213  0  4.018411  0  0  -0.096985  -0.146529  0  3.983776  0
C  C84  1  0.59576942  0.40862235  0.24733193  1  0  -0.070204  0  3.775905  0  0  -0.083236  0  4.025171  0  0  -0.085643  0  4.047637  0  0  -0.095035  -0.081291  0  4.009677  0
C  C85  1  0.09577088  0.59137066  0.25266763  1  0  -0.070042  0  3.775873  0  0  -0.083056  0  4.025097  0  0  -0.085463  0  4.047576  0  0  -0.094962  -0.081116  0  4.009631  0
C  C86  1  0.40423053  0.59136658  0.75266538  1  0  -0.070022  0  3.775892  0  0  -0.083007  0  4.025121  0  0  -0.085412  0  4.0476  0  0  -0.094933  -0.081064  0  4.009639  0
C  C87  1  0.90422629  0.40862414  0.74733143  1  0  -0.070157  0  3.775933  0  0  -0.083202  0  4.025172  0  0  -0.085609  0  4.047653  0  0  -0.095014  -0.081261  0  4.009712  0
C  C88  1  0.60230613  0.48725578  0.19429961  1  0  -0.057546  0  3.748593  0  0  -0.073138  0  3.999957  0  0  -0.074647  0  4.021731  0  0  -0.089349  -0.071939  0  3.984781  0
C  C89  1  0.10231099  0.51274113  0.30570129  1  0  -0.057762  0  3.748684  0  0  -0.073333  0  4.000041  0  0  -0.074836  0  4.021772  0  0  -0.089432  -0.072131  0  3.984823  0
C  C90  1  0.39768827  0.51273903  0.80570186  1  0  -0.057768  0  3.748661  0  0  -0.073325  0  3.999984  0  0  -0.074833  0  4.02176  0  0  -0.089495  -0.072127  0  3.984811  0
C  C91  1  0.89768617  0.48725661  0.69429955  1  0  -0.057671  0  3.748615  0  0  -0.073196  0  3.999948  0  0  -0.074702  0  4.021722  0  0  -0.089393  -0.071998  0  3.984778  0
C  C92  1  0.51816405  0.44465190  0.11453122  1  0  -0.068038  0  3.779852  0  0  -0.081176  0  4.030362  0  0  -0.083077  0  4.050997  0  0  -0.09164  -0.079914  0  4.015625  0
C  C93  1  0.01816905  0.55534911  0.38547254  1  0  -0.067856  0  3.779787  0  0  -0.080957  0  4.030304  0  0  -0.082859  0  4.050915  0  0  -0.091498  -0.07969  0  4.015533  0
C  C94  1  0.48183590  0.55534585  0.88547083  1  0  -0.067905  0  3.779863  0  0  -0.081036  0  4.030391  0  0  -0.08294  0  4.051028  0  0  -0.091521  -0.079774  0  4.015657  0
C  C95  1  0.98183367  0.44465157  0.61452948  1  0  -0.067924  0  3.779923  0  0  -0.081061  0  4.030408  0  0  -0.082962  0  4.051042  0  0  -0.091517  -0.079797  0  4.015667  0
C  C96  1  0.43046442  0.32343811  0.08704724  1  0  -0.108022  0  3.700092  0  0  -0.125519  0  3.938989  0  0  -0.12847  0  3.962135  0  0  -0.089108  -0.123204  0  3.923285  0
C  C97  1  0.93046856  0.67656107  0.41295495  1  0  -0.108043  0  3.700333  0  0  -0.12559  0  3.939236  0  0  -0.128538  0  3.962388  0  0  -0.089154  -0.123273  0  3.92353  0
C  C98  1  0.56953553  0.67655963  0.91295239  1  0  -0.108116  0  3.70026  0  0  -0.125621  0  3.939164  0  0  -0.128573  0  3.962312  0  0  -0.089179  -0.123309  0  3.923468  0
C  C99  1  0.06952861  0.32343667  0.58704529  1  0  -0.107997  0  3.700289  0  0  -0.125581  0  3.939191  0  0  -0.128525  0  3.96233  0  0  -0.089154  -0.123264  0  3.923474  0
N  N100  1  0.15023496  0.85797511  0.93183128  1  0  -0.360123  0  3.310897  0  0  -0.269613  0  3.571648  0  0  -0.292681  0  3.591334  0  0  -0.341807  -0.253715  0  3.557693  0
N  N101  1  0.65024200  0.14202791  0.56817470  1  0  -0.360043  0  3.31068  0  0  -0.269564  0  3.571405  0  0  -0.292628  0  3.591097  0  0  -0.341779  -0.253665  0  3.557442  0
N  N102  1  0.84976499  0.14202362  0.06817095  1  0  -0.360098  0  3.310899  0  0  -0.269644  0  3.571634  0  0  -0.292707  0  3.591315  0  0  -0.341807  -0.253746  0  3.557668  0
N  N103  1  0.34977046  0.85798059  0.43182524  1  0  -0.360089  0  3.310611  0  0  -0.269771  0  3.571516  0  0  -0.292838  0  3.591204  0  0  -0.34184  -0.253872  0  3.557553  0
N  N104  1  0.43492902  0.16780575  0.80995824  1  0  0.684922  0  4.120461  0  0  0.726905  0  4.385784  0  0  0.741505  0  4.414445  0  0  0.091254  0.707123  0  4.380029  0
N  N105  1  0.93493092  0.83219177  0.69004343  1  0  0.684998  0  4.120381  0  0  0.726901  0  4.385836  0  0  0.741636  0  4.414309  0  0  0.091265  0.707119  0  4.380082  0
N  N106  1  0.56507093  0.83219102  0.19004301  1  0  0.685109  0  4.120335  0  0  0.727013  0  4.385791  0  0  0.741785  0  4.414213  0  0  0.091329  0.707232  0  4.380035  0
N  N107  1  0.06506625  0.16781576  0.30995933  1  0  0.684871  0  4.120473  0  0  0.71245  0  4.406018  0  0  0.741557  0  4.414351  0  0  0.091351  0.707207  0  4.379895  0
O  O108  1  0.31952015  0.21814177  0.86705639  1  0  -0.439424  0  1.757584  0  0  -0.430349  0  1.967472  0  0  -0.439959  0  1.967266  0  0  -0.172356  -0.420388  0  1.971723  0
O  O109  1  0.81952019  0.78185404  0.63294588  1  0  -0.439413  0  1.757482  0  0  -0.430334  0  1.967427  0  0  -0.439995  0  1.96717  0  0  -0.172357  -0.42037  0  1.971672  0
O  O110  1  0.68048535  0.78185208  0.13294850  1  0  -0.439427  0  1.757446  0  0  -0.430371  0  1.967421  0  0  -0.440046  0  1.967152  0  0  -0.172398  -0.420413  0  1.971675  0
O  O111  1  0.18047976  0.21815643  0.36705564  1  0  -0.439288  0  1.75756  0  0  -0.425302  0  1.973381  0  0  -0.439868  0  1.967222  0  0  -0.172313  -0.420304  0  1.971667  0
O  O112  1  0.56345746  0.23193913  0.78998227  1  0  -0.436668  0  1.812222  0  0  -0.418577  0  2.035913  0  0  -0.430723  0  2.036446  0  0  -0.166375  -0.406543  0  2.038719  0
O  O113  1  0.06345667  0.76806112  0.71002102  1  0  -0.436735  0  1.812339  0  0  -0.418615  0  2.036036  0  0  -0.430801  0  2.036506  0  0  -0.166404  -0.406584  0  2.038846  0
O  O114  1  0.43654249  0.76806156  0.21002096  1  0  -0.436769  0  1.812322  0  0  -0.418646  0  2.036025  0  0  -0.430848  0  2.036487  0  0  -0.166407  -0.406612  0  2.038833  0
O  O115  1  0.93653355  0.23194153  0.28998318  1  0  -0.436687  0  1.812312  0  0  -0.413748  0  2.04189  0  0  -0.430796  0  2.036532  0  0  -0.166445  -0.40663  0  2.038794  0
O  O116  1  0.42309340  0.04289477  0.76891773  1  0  -0.513927  0  1.896715  0  0  -0.475673  0  2.163888  0  0  -0.494323  0  2.156638  0  0  -0.219912  -0.459593  0  2.172256  0
O  O117  1  0.92309320  0.95710472  0.73108075  1  0  -0.513959  0  1.896722  0  0  -0.475659  0  2.163902  0  0  -0.494353  0  2.156604  0  0  -0.219901  -0.45958  0  2.172272  0
O  O118  1  0.57690654  0.95710491  0.23107747  1  0  -0.514027  0  1.89679  0  0  -0.475724  0  2.163975  0  0  -0.494427  0  2.15665  0  0  -0.219926  -0.459641  0  2.172336  0
O  O119  1  0.07690814  0.04290281  0.26892141  1  0  -0.513952  0  1.896713  0  0  -0.471062  0  2.169262  0  0  -0.494443  0  2.156711  0  0  -0.219959  -0.459724  0  2.172323  0
