# generated using pymatgen
data_CdH12C14(NO)4
_symmetry_space_group_name_H-M   'P 1'
_cell_length_a   11.14794690
_cell_length_b   12.20514972
_cell_length_c   13.46496291
_cell_angle_alpha   91.51476897
_cell_angle_beta   89.96915803
_cell_angle_gamma   117.18852415
_symmetry_Int_Tables_number   1
_chemical_formula_structural   CdH12C14(NO)4
_chemical_formula_sum   'Cd4 H48 C56 N16 O16'
_cell_volume   1628.93819209
_cell_formula_units_Z   4
loop_
 _symmetry_equiv_pos_site_id
 _symmetry_equiv_pos_as_xyz
  1  'x, y, z'
loop_
 _atom_site_type_symbol
 _atom_site_label
 _atom_site_symmetry_multiplicity
 _atom_site_fract_x
 _atom_site_fract_y
 _atom_site_fract_z
 _atom_site_occupancy
 _atom_site_hle17_bader_spin_density
 _atom_site_hle17_ddec_charge
 _atom_site_hle17_ddec_spin_density
 _atom_site_hle17_ddec_sum_bond_order
 _atom_site_hle17_magmom
 _atom_site_hse06_10hf_bader_spin_density
 _atom_site_hse06_10hf_ddec_charge
 _atom_site_hse06_10hf_ddec_spin_density
 _atom_site_hse06_10hf_ddec_sum_bond_order
 _atom_site_hse06_10hf_magmom
 _atom_site_hse06_bader_spin_density
 _atom_site_hse06_ddec_charge
 _atom_site_hse06_ddec_spin_density
 _atom_site_hse06_ddec_sum_bond_order
 _atom_site_hse06_magmom
 _atom_site_pbe_bader_spin_density
 _atom_site_pbe_cm5_charge
 _atom_site_pbe_ddec_charge
 _atom_site_pbe_ddec_spin_density
 _atom_site_pbe_ddec_sum_bond_order
 _atom_site_pbe_magmom
Cd  Cd0  1  0.09832099  0.55771643  0.38075810  1  0  1.106852  0  1.693852  0  0  0.909653  0  2.14185  0  0  0.971916  0  2.088936  0  0  0.761014  0.865404  0  2.177918  0
Cd  Cd1  1  0.54096275  0.44231321  0.11922559  1  0  1.107246  0  1.691979  0  0  0.909854  0  2.139774  0  0  0.972183  0  2.086858  0  0  0.761124  0.865707  0  2.176141  0
Cd  Cd2  1  0.90168056  0.44228278  0.61924286  1  0  1.106819  0  1.693892  0  0  0.909607  0  2.141903  0  0  0.971875  0  2.088987  0  0  0.761018  0.865361  0  2.177968  0
Cd  Cd3  1  0.45903658  0.55768875  0.88077172  1  0  1.107254  0  1.691989  0  0  0.909845  0  2.139817  0  0  0.972174  0  2.086901  0  0  0.761122  0.8657  0  2.176186  0
H  H4  1  0.01002158  0.26985816  0.39866272  1  0  0.089666  0  0.949918  0  0  0.095611  0  1.018854  0  0  0.098124  0  1.016506  0  0  0.119819  0.093629  0  1.020783  0
H  H5  1  0.74055339  0.73017646  0.10106352  1  0  0.090091  0  0.948497  0  0  0.095453  0  1.018324  0  0  0.097972  0  1.015976  0  0  0.119903  0.093326  0  1.020473  0
H  H6  1  0.98998088  0.73014289  0.60133679  1  0  0.089666  0  0.949925  0  0  0.095626  0  1.01884  0  0  0.09814  0  1.01649  0  0  0.119828  0.093644  0  1.020769  0
H  H7  1  0.25945267  0.26982459  0.89893599  1  0  0.090045  0  0.948491  0  0  0.09543  0  1.0183  0  0  0.09795  0  1.015949  0  0  0.119862  0.093301  0  1.020452  0
H  H8  1  0.79548354  0.54604502  0.33503012  1  0  0.095408  0  0.946742  0  0  0.101496  0  1.013656  0  0  0.104181  0  1.011278  0  0  0.118747  0.099404  0  1.015498  0
H  H9  1  0.24943174  0.45388947  0.16516247  1  0  0.09595  0  0.946267  0  0  0.10193  0  1.013158  0  0  0.104694  0  1.010711  0  0  0.118944  0.099655  0  1.015273  0
H  H10  1  0.20451485  0.45395327  0.66496934  1  0  0.095422  0  0.946747  0  0  0.101512  0  1.013656  0  0  0.104193  0  1.011291  0  0  0.118757  0.099419  0  1.015496  0
H  H11  1  0.75056712  0.54610976  0.83483923  1  0  0.095942  0  0.946275  0  0  0.10192  0  1.013175  0  0  0.104686  0  1.010724  0  0  0.118943  0.099647  0  1.015287  0
H  H12  1  0.69265811  0.68941381  0.32658418  1  0  0.128501  0  0.956815  0  0  0.139121  0  1.011401  0  0  0.142742  0  1.010065  0  0  0.112214  0.136431  0  1.01253  0
H  H13  1  0.00323888  0.31047985  0.17353401  1  0  0.127727  0  0.957018  0  0  0.139059  0  1.010697  0  0  0.14271  0  1.009346  0  0  0.11208  0.13628  0  1.012035  0
H  H14  1  0.30734032  0.31058632  0.67341606  1  0  0.128492  0  0.956855  0  0  0.139126  0  1.011414  0  0  0.142748  0  1.010078  0  0  0.112227  0.136437  0  1.012542  0
H  H15  1  0.99676045  0.68952029  0.82646846  1  0  0.127737  0  0.956966  0  0  0.139075  0  1.01064  0  0  0.142726  0  1.009289  0  0  0.112087  0.136297  0  1.011976  0
H  H16  1  0.17774262  0.83593486  0.38887071  1  0  0.100058  0  0.949252  0  0  0.105629  0  1.016966  0  0  0.108947  0  1.013785  0  0  0.120908  0.103175  0  1.019288  0
H  H17  1  0.34194797  0.16416501  0.11099133  1  0  0.100324  0  0.948199  0  0  0.105186  0  1.016638  0  0  0.108569  0  1.01341  0  0  0.12084  0.102583  0  1.019137  0
H  H18  1  0.82225532  0.16406251  0.61112947  1  0  0.100032  0  0.949261  0  0  0.105576  0  1.017006  0  0  0.108894  0  1.013826  0  0  0.120902  0.103122  0  1.019327  0
H  H19  1  0.65805227  0.83583697  0.88900894  1  0  0.100301  0  0.948215  0  0  0.105159  0  1.016668  0  0  0.108543  0  1.01344  0  0  0.12082  0.102555  0  1.019166  0
H  H20  1  0.37387823  0.73283480  0.07484395  1  0  0.115071  0  0.918514  0  0  0.131063  0  0.975081  0  0  0.134039  0  0.973095  0  0  0.102891  0.129018  0  0.976484  0
H  H21  1  0.64077554  0.26702886  0.42504731  1  0  0.115374  0  0.918263  0  0  0.130725  0  0.975332  0  0  0.133739  0  0.973369  0  0  0.102898  0.128633  0  0.976702  0
H  H22  1  0.62611842  0.26716718  0.92515707  1  0  0.115088  0  0.918477  0  0  0.131023  0  0.975097  0  0  0.13401  0  0.97312  0  0  0.102865  0.128978  0  0.9765  0
H  H23  1  0.35921619  0.73297403  0.57495299  1  0  0.11533  0  0.918321  0  0  0.130676  0  0.975397  0  0  0.133691  0  0.973435  0  0  0.102857  0.128586  0  0.976768  0
H  H24  1  0.54582030  0.83454985  0.08333805  1  0  0.104901  0  0.909212  0  0  0.124569  0  0.959768  0  0  0.126542  0  0.958943  0  0  0.103213  0.123185  0  0.960457  0
H  H25  1  0.71115014  0.16544179  0.41661481  1  0  0.104251  0  0.909481  0  0  0.123812  0  0.960072  0  0  0.125831  0  0.959291  0  0  0.102939  0.122327  0  0.960843  0
H  H26  1  0.45417719  0.16544844  0.91666141  1  0  0.104933  0  0.909195  0  0  0.124598  0  0.959723  0  0  0.1266  0  0.958884  0  0  0.103227  0.123215  0  0.960408  0
H  H27  1  0.28884295  0.83456203  0.58338550  1  0  0.104205  0  0.909435  0  0  0.123729  0  0.960058  0  0  0.125753  0  0.959269  0  0  0.102879  0.122248  0  0.960826  0
H  H28  1  0.50145659  0.42667514  0.39732675  1  0  0.122027  0  0.948515  0  0  0.132077  0  1.004528  0  0  0.1355  0  1.003503  0  0  0.113394  0.129673  0  1.005326  0
H  H29  1  0.07534856  0.57362184  0.10224939  1  0  0.121695  0  0.949277  0  0  0.131878  0  1.005121  0  0  0.13542  0  1.003949  0  0  0.113152  0.129311  0  1.006142  0
H  H30  1  0.49854361  0.57332316  0.60267568  1  0  0.121995  0  0.948403  0  0  0.132031  0  1.004449  0  0  0.135455  0  1.003422  0  0  0.113368  0.129627  0  1.005249  0
H  H31  1  0.92465164  0.42637646  0.89775229  1  0  0.12168  0  0.94929  0  0  0.131858  0  1.005142  0  0  0.135401  0  1.003969  0  0  0.113147  0.129292  0  1.006162  0
H  H32  1  0.39229200  0.56734260  0.40218083  1  0  0.091691  0  0.928734  0  0  0.099957  0  0.990369  0  0  0.102402  0  0.988282  0  0  0.122327  0.098138  0  0.991876  0
H  H33  1  0.82547197  0.43284593  0.09759993  1  0  0.091395  0  0.928831  0  0  0.099788  0  0.990484  0  0  0.10222  0  0.988386  0  0  0.122228  0.097868  0  0.992193  0
H  H34  1  0.60771180  0.43265753  0.59781866  1  0  0.091777  0  0.928718  0  0  0.100041  0  0.990358  0  0  0.102485  0  0.988269  0  0  0.122366  0.098223  0  0.991865  0
H  H35  1  0.17452780  0.56715330  0.90240326  1  0  0.091419  0  0.92888  0  0  0.099818  0  0.990522  0  0  0.102248  0  0.988422  0  0  0.122255  0.097897  0  0.992232  0
H  H36  1  0.53080863  0.84916786  0.27088538  1  0  0.099838  0  0.920858  0  0  0.116567  0  0.975911  0  0  0.118925  0  0.974787  0  0  0.097999  0.114798  0  0.976917  0
H  H37  1  0.68171853  0.15067826  0.22907083  1  0  0.099389  0  0.920709  0  0  0.115573  0  0.976536  0  0  0.117899  0  0.975386  0  0  0.097692  0.113914  0  0.977424  0
H  H38  1  0.46919473  0.15083318  0.72911116  1  0  0.099806  0  0.920808  0  0  0.116518  0  0.97592  0  0  0.118896  0  0.974774  0  0  0.09796  0.114753  0  0.976914  0
H  H39  1  0.31828034  0.84932097  0.77093162  1  0  0.099374  0  0.920754  0  0  0.115618  0  0.976539  0  0  0.117947  0  0.975387  0  0  0.0977  0.113959  0  0.977427  0
H  H40  1  0.42100523  0.89422136  0.21029731  1  0  0.095754  0  0.920571  0  0  0.113934  0  0.975914  0  0  0.115617  0  0.975398  0  0  0.10067  0.112863  0  0.976126  0
H  H41  1  0.52671329  0.10546823  0.28960180  1  0  0.095662  0  0.920206  0  0  0.113893  0  0.975607  0  0  0.115552  0  0.975073  0  0  0.100947  0.112819  0  0.975867  0
H  H42  1  0.57899770  0.10578062  0.78970223  1  0  0.095728  0  0.920609  0  0  0.113944  0  0.975927  0  0  0.115626  0  0.975414  0  0  0.100688  0.112872  0  0.976134  0
H  H43  1  0.47328201  0.89453282  0.71039846  1  0  0.095666  0  0.920205  0  0  0.11391  0  0.975623  0  0  0.115569  0  0.975087  0  0  0.100968  0.112837  0  0.975877  0
H  H44  1  0.84293663  0.91823394  0.35322738  1  0  0.111618  0  0.926103  0  0  0.119664  0  0.987551  0  0  0.123351  0  0.983987  0  0  0.114999  0.116916  0  0.990227  0
H  H45  1  0.92464610  0.08165138  0.14640176  1  0  0.111569  0  0.925149  0  0  0.119632  0  0.986708  0  0  0.123334  0  0.983126  0  0  0.114918  0.11688  0  0.989409  0
H  H46  1  0.15706449  0.08176620  0.64677360  1  0  0.111638  0  0.926054  0  0  0.119675  0  0.987511  0  0  0.123362  0  0.983945  0  0  0.115009  0.116928  0  0.990185  0
H  H47  1  0.07535366  0.91834784  0.85360069  1  0  0.111553  0  0.925124  0  0  0.119619  0  0.986685  0  0  0.123321  0  0.983102  0  0  0.11491  0.116866  0  0.989388  0
H  H48  1  0.35392072  0.19805572  0.39141359  1  0  0.114763  0  0.927999  0  0  0.123486  0  0.988853  0  0  0.126706  0  0.985707  0  0  0.116913  0.121052  0  0.991298  0
H  H49  1  0.15636040  0.80234780  0.10825695  1  0  0.114259  0  0.928137  0  0  0.122613  0  0.989257  0  0  0.125832  0  0.98612  0  0  0.116915  0.120173  0  0.991665  0
H  H50  1  0.64607991  0.80194165  0.60858659  1  0  0.11476  0  0.927995  0  0  0.123485  0  0.988847  0  0  0.126705  0  0.9857  0  0  0.116924  0.121052  0  0.991292  0
H  H51  1  0.84364384  0.19765141  0.89174253  1  0  0.114267  0  0.92818  0  0  0.122641  0  0.989278  0  0  0.12586  0  0.986141  0  0  0.116923  0.120202  0  0.991685  0
C  C52  1  0.17068878  0.21803720  0.39544678  1  0  0.094086  0  3.831613  0  0  0.104002  0  4.084166  0  0  0.099008  0  4.111102  0  0  0.086165  0.107138  0  4.066027  0
C  C53  1  0.95303750  0.78208908  0.10434500  1  0  0.093582  0  3.834155  0  0  0.103324  0  4.086587  0  0  0.098398  0  4.113409  0  0  0.086196  0.106398  0  4.068491  0
C  C54  1  0.82931141  0.78196108  0.60455194  1  0  0.094149  0  3.831485  0  0  0.104052  0  4.084061  0  0  0.099056  0  4.111002  0  0  0.086167  0.107188  0  4.065921  0
C  C55  1  0.04696358  0.21790920  0.89565297  1  0  0.093557  0  3.834342  0  0  0.103347  0  4.086731  0  0  0.098418  0  4.11356  0  0  0.086258  0.106421  0  4.068635  0
C  C56  1  0.11877008  0.30290959  0.39932259  1  0  0.076314  0  3.687245  0  0  0.03647  0  3.939991  0  0  0.041797  0  3.961038  0  0  0.057051  0.033247  0  3.925707  0
C  C57  1  0.81624629  0.69712192  0.10038133  1  0  0.076329  0  3.685237  0  0  0.036814  0  3.938181  0  0  0.04212  0  3.95921  0  0  0.056605  0.033408  0  3.924421  0
C  C58  1  0.88122921  0.69708869  0.60067613  1  0  0.076286  0  3.687262  0  0  0.036433  0  3.939997  0  0  0.04176  0  3.961045  0  0  0.057043  0.033213  0  3.925711  0
C  C59  1  0.18375528  0.30287913  0.89961744  1  0  0.076434  0  3.685194  0  0  0.036888  0  3.938124  0  0  0.042195  0  3.959157  0  0  0.056673  0.033482  0  3.924363  0
C  C60  1  0.85757523  0.64512096  0.34690292  1  0  0.147879  0  3.641448  0  0  0.112947  0  3.898381  0  0  0.12043  0  3.917214  0  0  0.057007  0.108018  0  3.88558  0
C  C61  1  0.21252136  0.35484573  0.15321781  1  0  0.147459  0  3.639095  0  0  0.11274  0  3.895975  0  0  0.120149  0  3.914861  0  0  0.056835  0.107906  0  3.883475  0
C  C62  1  0.14242453  0.35487827  0.65309879  1  0  0.14788  0  3.641432  0  0  0.112941  0  3.898372  0  0  0.120423  0  3.917202  0  0  0.05699  0.108015  0  3.885569  0
C  C63  1  0.78747797  0.64515441  0.84678391  1  0  0.14743  0  3.639153  0  0  0.112704  0  3.896045  0  0  0.120115  0  3.914921  0  0  0.056821  0.107869  0  3.883541  0
C  C64  1  0.80013122  0.72580287  0.34302844  1  0  -0.116729  0  3.710807  0  0  -0.124293  0  3.958567  0  0  -0.132505  0  3.981538  0  0  -0.079241  -0.118909  0  3.943082  0
C  C65  1  0.07433062  0.27407846  0.15702845  1  0  -0.115566  0  3.710468  0  0  -0.123688  0  3.95811  0  0  -0.131965  0  3.981183  0  0  -0.078683  -0.118262  0  3.942755  0
C  C66  1  0.19986764  0.27419635  0.65697252  1  0  -0.116694  0  3.710982  0  0  -0.124265  0  3.95873  0  0  -0.132479  0  3.981701  0  0  -0.079227  -0.11888  0  3.943246  0
C  C67  1  0.92566916  0.72592261  0.84297255  1  0  -0.115612  0  3.710427  0  0  -0.123728  0  3.958079  0  0  -0.132004  0  3.981147  0  0  -0.078677  -0.118301  0  3.942723  0
C  C68  1  0.02091447  0.89295753  0.37366141  1  0  0.105527  0  3.818643  0  0  0.11135  0  4.078129  0  0  0.107178  0  4.104091  0  0  0.085616  0.113922  0  4.060674  0
C  C69  1  0.12807859  0.10712330  0.12621994  1  0  0.105051  0  3.819622  0  0  0.110829  0  4.079063  0  0  0.10664  0  4.105085  0  0  0.085462  0.113506  0  4.061489  0
C  C70  1  0.97908434  0.10703800  0.62633948  1  0  0.105556  0  3.818529  0  0  0.111346  0  4.078053  0  0  0.10718  0  4.104009  0  0  0.085628  0.113918  0  4.060604  0
C  C71  1  0.87192164  0.89287866  0.87377810  1  0  0.104973  0  3.819642  0  0  0.110791  0  4.079048  0  0  0.106603  0  4.105068  0  0  0.085472  0.113468  0  4.061474  0
C  C72  1  0.32230126  0.72203355  0.28074411  1  0  0.677188  0  3.875886  0  0  0.632497  0  4.175454  0  0  0.665706  0  4.171024  0  0  0.187768  0.609813  0  4.17783  0
C  C73  1  0.60030097  0.27770356  0.21914825  1  0  0.676422  0  3.876292  0  0  0.632174  0  4.175256  0  0  0.665359  0  4.170817  0  0  0.18772  0.609491  0  4.177585  0
C  C74  1  0.67770259  0.27797028  0.71925768  1  0  0.677119  0  3.875988  0  0  0.632389  0  4.175667  0  0  0.665597  0  4.171239  0  0  0.187656  0.609698  0  4.178042  0
C  C75  1  0.39969562  0.72229470  0.78084601  1  0  0.676573  0  3.875936  0  0  0.632279  0  4.17498  0  0  0.665466  0  4.170534  0  0  0.187789  0.609596  0  4.177311  0
C  C76  1  0.07033781  0.80634268  0.37629606  1  0  0.068524  0  3.655885  0  0  0.029809  0  3.904696  0  0  0.034196  0  3.924966  0  0  0.056379  0.027069  0  3.890961  0
C  C77  1  0.26417265  0.19378089  0.12366539  1  0  0.068159  0  3.654212  0  0  0.030286  0  3.902897  0  0  0.034658  0  3.923015  0  0  0.05632  0.027628  0  3.889452  0
C  C78  1  0.92966192  0.19365469  0.62370486  1  0  0.068584  0  3.655729  0  0  0.029907  0  3.904544  0  0  0.034293  0  3.924813  0  0  0.056397  0.027167  0  3.890811  0
C  C79  1  0.73582803  0.80622017  0.87633487  1  0  0.068229  0  3.654153  0  0  0.030346  0  3.902836  0  0  0.034719  0  3.922947  0  0  0.056382  0.027687  0  3.88939  0
C  C80  1  0.46218728  0.76338360  0.12436737  1  0  -0.237077  0  3.704112  0  0  -0.277602  0  3.958992  0  0  -0.282282  0  3.966263  0  0  -0.165533  -0.27439  0  3.953846  0
C  C81  1  0.69864282  0.23652778  0.37555058  1  0  -0.236767  0  3.703979  0  0  -0.276107  0  3.958364  0  0  -0.28106  0  3.965932  0  0  -0.165411  -0.272754  0  3.953173  0
C  C82  1  0.53780845  0.23661652  0.87563064  1  0  -0.237189  0  3.704178  0  0  -0.27761  0  3.959002  0  0  -0.28236  0  3.966353  0  0  -0.165561  -0.274406  0  3.95386  0
C  C83  1  0.30135337  0.76347328  0.62444968  1  0  -0.236689  0  3.703825  0  0  -0.275938  0  3.958182  0  0  -0.280892  0  3.965754  0  0  -0.165314  -0.272593  0  3.953003  0
C  C84  1  0.39233852  0.38904350  0.40045541  1  0  -0.103651  0  3.717465  0  0  -0.114974  0  3.970041  0  0  -0.122905  0  3.992402  0  0  -0.075628  -0.110017  0  3.955207  0
C  C85  1  0.00383868  0.61121572  0.09916440  1  0  -0.103375  0  3.716656  0  0  -0.114926  0  3.968967  0  0  -0.122961  0  3.991346  0  0  -0.075162  -0.109775  0  3.954065  0
C  C86  1  0.60766524  0.61095295  0.59954475  1  0  -0.10358  0  3.717387  0  0  -0.114868  0  3.969953  0  0  -0.122798  0  3.992315  0  0  -0.075551  -0.109909  0  3.955117  0
C  C87  1  0.99616423  0.38878442  0.90083658  1  0  -0.103279  0  3.716653  0  0  -0.114836  0  3.969  0  0  -0.122871  0  3.991375  0  0  -0.075129  -0.109686  0  3.954098  0
C  C88  1  0.33217114  0.46746404  0.40272669  1  0  0.145827  0  3.656718  0  0  0.112553  0  3.911195  0  0  0.119892  0  3.929858  0  0  0.061156  0.108035  0  3.898336  0
C  C89  1  0.86521056  0.53269565  0.09695930  1  0  0.146073  0  3.65655  0  0  0.112316  0  3.911772  0  0  0.119685  0  3.930461  0  0  0.060637  0.107551  0  3.899176  0
C  C90  1  0.66783175  0.53253425  0.59727351  1  0  0.14563  0  3.657001  0  0  0.112329  0  3.911491  0  0  0.119667  0  3.930154  0  0  0.061031  0.10781  0  3.898631  0
C  C91  1  0.13479012  0.46730542  0.90304244  1  0  0.146024  0  3.65656  0  0  0.112263  0  3.911771  0  0  0.119636  0  3.930454  0  0  0.0606  0.107499  0  3.899176  0
C  C92  1  0.44067586  0.81491791  0.22287301  1  0  -0.229347  0  3.720954  0  0  -0.271518  0  3.977595  0  0  -0.276468  0  3.986566  0  0  -0.166091  -0.268089  0  3.971285  0
C  C93  1  0.62569803  0.18486026  0.27706278  1  0  -0.228495  0  3.720567  0  0  -0.27053  0  3.977143  0  0  -0.275282  0  3.985977  0  0  -0.166046  -0.2673  0  3.970908  0
C  C94  1  0.55932661  0.18508314  0.77712650  1  0  -0.229238  0  3.720852  0  0  -0.271468  0  3.977583  0  0  -0.276421  0  3.986575  0  0  -0.166045  -0.268025  0  3.971241  0
C  C95  1  0.37430001  0.81514450  0.72293978  1  0  -0.228539  0  3.720435  0  0  -0.270668  0  3.977097  0  0  -0.275424  0  3.98593  0  0  -0.16612  -0.267437  0  3.970866  0
C  C96  1  0.88243631  0.85155730  0.35635803  1  0  -0.056473  0  3.670347  0  0  -0.086188  0  3.920996  0  0  -0.083988  0  3.940145  0  0  -0.058908  -0.087161  0  3.907753  0
C  C97  1  0.03087835  0.14838472  0.14347596  1  0  -0.056646  0  3.670301  0  0  -0.086495  0  3.921355  0  0  -0.084304  0  3.940551  0  0  -0.059229  -0.087689  0  3.908257  0
C  C98  1  0.11756393  0.14844468  0.64364299  1  0  -0.056554  0  3.670394  0  0  -0.086252  0  3.921058  0  0  -0.084051  0  3.940206  0  0  -0.05896  -0.087223  0  3.907815  0
C  C99  1  0.96912143  0.85161633  0.85652429  1  0  -0.056535  0  3.670149  0  0  -0.086408  0  3.921209  0  0  -0.084216  0  3.940406  0  0  -0.059204  -0.087601  0  3.908113  0
C  C100  1  0.31120257  0.26240050  0.39618455  1  0  -0.052213  0  3.654917  0  0  -0.079156  0  3.898808  0  0  -0.076459  0  3.918085  0  0  -0.054373  -0.080839  0  3.886044  0
C  C101  1  0.04929432  0.73785839  0.10350568  1  0  -0.05117  0  3.65381  0  0  -0.077273  0  3.897083  0  0  -0.074599  0  3.916371  0  0  -0.053861  -0.078755  0  3.884119  0
C  C102  1  0.68879719  0.73759871  0.60381493  1  0  -0.05222  0  3.654873  0  0  -0.079172  0  3.898771  0  0  -0.076475  0  3.918047  0  0  -0.054393  -0.080855  0  3.886005  0
C  C103  1  0.95070676  0.26213990  0.89649303  1  0  -0.051275  0  3.653894  0  0  -0.077427  0  3.89719  0  0  -0.074749  0  3.916471  0  0  -0.053932  -0.07891  0  3.884227  0
C  C104  1  0.49286588  0.65537944  0.13580443  1  0  0.691544  0  3.850359  0  0  0.643204  0  4.152229  0  0  0.677097  0  4.145637  0  0  0.197814  0.620103  0  4.155739  0
C  C105  1  0.83730589  0.34462375  0.36409874  1  0  0.691856  0  3.84938  0  0  0.642692  0  4.152369  0  0  0.676623  0  4.145781  0  0  0.198308  0.619523  0  4.156121  0
C  C106  1  0.50713118  0.34461977  0.86419431  1  0  0.69156  0  3.850212  0  0  0.6432  0  4.152092  0  0  0.677106  0  4.145509  0  0  0.197847  0.620097  0  4.155601  0
C  C107  1  0.16268670  0.65537550  0.63590816  1  0  0.692047  0  3.849274  0  0  0.642834  0  4.152296  0  0  0.676763  0  4.145708  0  0  0.198428  0.619667  0  4.156051  0
N  N108  1  0.19743475  0.42475773  0.40260270  1  0  -0.321705  0  3.260303  0  0  -0.245207  0  3.52751  0  0  -0.26583  0  3.548009  0  0  -0.323784  -0.231142  0  3.51306  0
N  N109  1  0.77308265  0.57527264  0.09709987  1  0  -0.322178  0  3.26034  0  0  -0.245148  0  3.52681  0  0  -0.265807  0  3.547351  0  0  -0.323861  -0.231387  0  3.513089  0
N  N110  1  0.80256501  0.57524149  0.59739752  1  0  -0.321644  0  3.260426  0  0  -0.245131  0  3.527636  0  0  -0.265756  0  3.548141  0  0  -0.323771  -0.231067  0  3.513184  0
N  N111  1  0.22691982  0.42472842  0.90290187  1  0  -0.322213  0  3.260301  0  0  -0.245174  0  3.526784  0  0  -0.265829  0  3.547311  0  0  -0.323896  -0.231414  0  3.513069  0
N  N112  1  0.11934646  0.01675779  0.38695989  1  0  -0.147194  0  2.998873  0  0  -0.129303  0  3.285069  0  0  -0.128861  0  3.294045  0  0  -0.145489  -0.129695  0  3.279252  0
N  N113  1  0.10282306  0.98343367  0.11279580  1  0  -0.146938  0  2.999265  0  0  -0.128919  0  3.285395  0  0  -0.128485  0  3.294392  0  0  -0.145917  -0.129406  0  3.279647  0
N  N114  1  0.88065376  0.98324235  0.61304035  1  0  -0.147191  0  2.998873  0  0  -0.129288  0  3.28507  0  0  -0.12885  0  3.294048  0  0  -0.145501  -0.129681  0  3.279256  0
N  N115  1  0.89717986  0.01656830  0.88720299  1  0  -0.146945  0  2.999273  0  0  -0.128932  0  3.285403  0  0  -0.128502  0  3.294403  0  0  -0.14597  -0.129419  0  3.279657  0
N  N116  1  0.99029423  0.68501461  0.36325503  1  0  -0.319362  0  3.250765  0  0  -0.242143  0  3.518041  0  0  -0.26284  0  3.539837  0  0  -0.321616  -0.22798  0  3.503016  0
N  N117  1  0.30546636  0.31509019  0.13680054  1  0  -0.319135  0  3.24936  0  0  -0.242234  0  3.516589  0  0  -0.262894  0  3.538359  0  0  -0.321713  -0.228501  0  3.502148  0
N  N118  1  0.00970462  0.31498461  0.63674518  1  0  -0.319369  0  3.250643  0  0  -0.242146  0  3.517917  0  0  -0.262841  0  3.53971  0  0  -0.321591  -0.22798  0  3.50289  0
N  N119  1  0.69453386  0.68490995  0.86320044  1  0  -0.319114  0  3.249292  0  0  -0.242206  0  3.516516  0  0  -0.262872  0  3.538304  0  0  -0.321733  -0.228482  0  3.502098  0
N  N120  1  0.07249232  0.09369076  0.38666996  1  0  -0.148758  0  3.025774  0  0  -0.12963  0  3.314528  0  0  -0.129727  0  3.325577  0  0  -0.146149  -0.129639  0  3.307364  0
N  N121  1  0.97907809  0.90631732  0.11335255  1  0  -0.149072  0  3.027362  0  0  -0.129993  0  3.316303  0  0  -0.130127  0  3.327352  0  0  -0.146198  -0.129892  0  3.309072  0
N  N122  1  0.92750969  0.90630936  0.61332804  1  0  -0.148789  0  3.025673  0  0  -0.12966  0  3.314428  0  0  -0.129754  0  3.325476  0  0  -0.146139  -0.129667  0  3.307263  0
N  N123  1  0.02092394  0.09368464  0.88664327  1  0  -0.149029  0  3.027481  0  0  -0.129972  0  3.316423  0  0  -0.130108  0  3.327477  0  0  -0.146189  -0.12987  0  3.309194  0
O  O124  1  0.49263458  0.59437127  0.05580566  1  0  -0.694798  0  2.097665  0  0  -0.614244  0  2.374831  0  0  -0.648409  0  2.363526  0  0  -0.348366  -0.589746  0  2.381442  0
O  O125  1  0.89795615  0.40560813  0.44410866  1  0  -0.694891  0  2.096367  0  0  -0.614345  0  2.374074  0  0  -0.648455  0  2.362711  0  0  -0.349444  -0.590367  0  2.380892  0
O  O126  1  0.50736293  0.40562884  0.94419012  1  0  -0.694816  0  2.097611  0  0  -0.614281  0  2.374794  0  0  -0.648445  0  2.363483  0  0  -0.348372  -0.589781  0  2.381404  0
O  O127  1  0.10204050  0.59439385  0.55589161  1  0  -0.695132  0  2.096209  0  0  -0.614596  0  2.373976  0  0  -0.648709  0  2.362612  0  0  -0.349582  -0.590618  0  2.380797  0
O  O128  1  0.23061946  0.62846167  0.23423078  1  0  -0.658215  0  1.951954  0  0  -0.592472  0  2.192023  0  0  -0.621892  0  2.183962  0  0  -0.33455  -0.571608  0  2.197009  0
O  O129  1  0.60213423  0.37130114  0.26565265  1  0  -0.658674  0  1.951106  0  0  -0.592944  0  2.19083  0  0  -0.622401  0  2.182788  0  0  -0.334594  -0.571772  0  2.195713  0
O  O130  1  0.76938257  0.37154032  0.76577098  1  0  -0.658117  0  1.952051  0  0  -0.592316  0  2.192073  0  0  -0.621749  0  2.184037  0  0  -0.334451  -0.571454  0  2.197059  0
O  O131  1  0.39786193  0.62869805  0.73434237  1  0  -0.658699  0  1.950998  0  0  -0.59295  0  2.190738  0  0  -0.622404  0  2.182693  0  0  -0.33462  -0.571778  0  2.195621  0
O  O132  1  0.31624848  0.74213181  0.37353106  1  0  -0.66412  0  1.912866  0  0  -0.609513  0  2.147661  0  0  -0.637238  0  2.137087  0  0  -0.350053  -0.590062  0  2.154272  0
O  O133  1  0.57435933  0.25770000  0.12637340  1  0  -0.663108  0  1.913132  0  0  -0.608679  0  2.147683  0  0  -0.636429  0  2.137223  0  0  -0.349491  -0.588924  0  2.154076  0
O  O134  1  0.68375355  0.25787018  0.62646996  1  0  -0.664195  0  1.912856  0  0  -0.609572  0  2.147677  0  0  -0.637294  0  2.137105  0  0  -0.350056  -0.59012  0  2.15429  0
O  O135  1  0.42563771  0.74229736  0.87362455  1  0  -0.663217  0  1.912966  0  0  -0.608757  0  2.147525  0  0  -0.636516  0  2.137075  0  0  -0.349503  -0.588997  0  2.153915  0
O  O136  1  0.51979143  0.62695503  0.21922438  1  0  -0.633642  0  1.900503  0  0  -0.579525  0  2.131553  0  0  -0.605044  0  2.12248  0  0  -0.323565  -0.560924  0  2.137042  0
O  O137  1  0.89273235  0.37308863  0.28065660  1  0  -0.633596  0  1.900077  0  0  -0.579149  0  2.131298  0  0  -0.604635  0  2.122154  0  0  -0.323777  -0.560905  0  2.137168  0
O  O138  1  0.48020471  0.37304234  0.78077432  1  0  -0.633575  0  1.900352  0  0  -0.579439  0  2.131382  0  0  -0.604958  0  2.122305  0  0  -0.323551  -0.560848  0  2.13689  0
O  O139  1  0.10726694  0.62690965  0.71934138  1  0  -0.633516  0  1.900277  0  0  -0.579083  0  2.131571  0  0  -0.604564  0  2.122427  0  0  -0.323752  -0.560841  0  2.137439  0
