# generated using pymatgen
data_Al2H5C12NO12
_symmetry_space_group_name_H-M   'P 1'
_cell_length_a   6.68938857
_cell_length_b   14.78534947
_cell_length_c   16.75918091
_cell_angle_alpha   86.37817547
_cell_angle_beta   89.99916457
_cell_angle_gamma   90.00028466
_symmetry_Int_Tables_number   1
_chemical_formula_structural   Al2H5C12NO12
_chemical_formula_sum   'Al4 H10 C24 N2 O24'
_cell_volume   1654.25531909
_cell_formula_units_Z   2
loop_
 _symmetry_equiv_pos_site_id
 _symmetry_equiv_pos_as_xyz
  1  'x, y, z'
loop_
 _atom_site_type_symbol
 _atom_site_label
 _atom_site_symmetry_multiplicity
 _atom_site_fract_x
 _atom_site_fract_y
 _atom_site_fract_z
 _atom_site_occupancy
 _atom_site_pbe_bader_charge
 _atom_site_pbe_bader_spin_density
 _atom_site_pbe_cm5_charge
 _atom_site_pbe_ddec_charge
 _atom_site_pbe_ddec_spin_density
 _atom_site_pbe_ddec_sum_bond_order
 _atom_site_pbe_magmom
Al  Al0  1  0.11377360  0.49907683  0.50036345  1  2.503108  0  0.403014  1.647499  0  2.573734  0
Al  Al1  1  0.61375652  0.50093187  0.49964684  1  2.502933  0  0.40306  1.647033  0  2.574315  0
Al  Al2  1  0.62877821  0.99996696  0.99943999  1  2.500275  0  0.404179  1.646558  0  2.579171  0
Al  Al3  1  0.12879202  0.00006622  0.00057027  1  2.500759  0  0.40395  1.645744  0  2.580322  0
H  H4  1  0.57492354  0.18165893  0.80272686  1  0.138157  0  0.123832  0.132991  0  0.975507  0
H  H5  1  0.07500606  0.81851449  0.19745162  1  0.134319  0  0.123743  0.132993  0  0.975613  0
H  H6  1  0.03613318  0.18837278  0.79078899  1  0.077533  0  0.11746  0.136902  0  0.983403  0
H  H7  1  0.53624076  0.81162941  0.20918981  1  0.077246  0  0.117432  0.13704  0  0.983092  0
H  H8  1  0.01054749  0.31475257  0.71074199  1  0.149758  0  0.123006  0.156546  0  0.99883  0
H  H9  1  0.51045852  0.68510750  0.28912260  1  0.145797  0  0.122947  0.156397  0  0.998415  0
H  H10  1  0.36609038  0.38062552  0.51598881  1  0.663778  0  0.351552  0.435977  0  0.853953  0
H  H11  1  0.86612263  0.61941934  0.48433772  1  0.66697  0  0.351681  0.436015  0  0.853694  0
H  H12  1  0.37939770  0.11501620  0.01763825  1  0.635881  0  0.360257  0.441133  0  0.837496  0
H  H13  1  0.87941715  0.88500326  0.98240483  1  0.636443  0  0.360136  0.441014  0  0.837812  0
C  C14  1  0.36342900  0.60692507  0.60355529  1  1.681563  0  0.278759  0.702863  0  4.175039  0
C  C15  1  0.86347860  0.39311938  0.39643942  1  1.682473  0  0.278674  0.70269  0  4.174958  0
C  C16  1  0.36188968  0.61088789  0.38813983  1  1.598576  0  0.268783  0.693218  0  4.10147  0
C  C17  1  0.86177996  0.38913097  0.61189075  1  1.595877  0  0.268348  0.692388  0  4.100335  0
C  C18  1  0.71882959  0.20419809  0.77777665  1  -0.048328  0  -0.063458  -0.081595  0  3.95942  0
C  C19  1  0.21892154  0.79592208  0.22234164  1  -0.047608  0  -0.063033  -0.081167  0  3.959997  0
C  C20  1  0.88680985  0.17102369  0.81293693  1  0.043571  0  -0.070995  -0.193445  0  3.835423  0
C  C21  1  0.38684642  0.82901237  0.18710196  1  0.043195  0  -0.07114  -0.193676  0  3.835911  0
C  C22  1  0.71436272  0.26870784  0.70878747  1  0.114317  0  0.098135  0.120801  0  3.928603  0
C  C23  1  0.21452959  0.73144835  0.29135596  1  0.134217  0  0.097991  0.120181  0  3.927901  0
C  C24  1  0.86635151  0.32146229  0.68060451  1  0.086234  0  -0.063318  -0.256813  0  3.785766  0
C  C25  1  0.36642060  0.67854996  0.31940572  1  0.073767  0  -0.06308  -0.256127  0  3.784353  0
C  C26  1  0.87548588  0.16959000  0.16600887  1  0.260412  0  -0.006833  -0.160293  0  3.856905  0
C  C27  1  0.37555397  0.83048553  0.83394098  1  0.263105  0  -0.006753  -0.160002  0  3.85673  0
C  C28  1  0.87156709  0.22219195  0.21945899  1  -0.37182  0  0.000375  0.045761  0  4.232763  0
C  C29  1  0.37169178  0.77788999  0.78050462  1  -0.374994  0  4.8e-05  0.045065  0  4.233341  0
C  C30  1  0.86783195  0.28017386  0.27850340  1  -0.26815  0  -0.004211  0.026619  0  4.227377  0
C  C31  1  0.36791352  0.71987935  0.72148293  1  -0.272222  0  -0.004228  0.026938  0  4.227253  0
C  C32  1  0.86414338  0.33259542  0.33205388  1  0.211606  0  0.006013  -0.128318  0  3.828226  0
C  C33  1  0.36418886  0.66745438  0.66793246  1  0.217113  0  0.006073  -0.128445  0  3.82878  0
C  C34  1  0.37984881  0.89139619  0.11440771  1  1.572862  0  0.262409  0.677483  0  4.110755  0
C  C35  1  0.87984654  0.10862487  0.88561325  1  1.572142  0  0.262357  0.677486  0  4.11072  0
C  C36  1  0.37759649  0.89251608  0.89680500  1  1.683645  0  0.279508  0.711404  0  4.165223  0
C  C37  1  0.87754837  0.10754576  0.10318489  1  1.684908  0  0.279272  0.711124  0  4.165342  0
N  N38  1  0.51217639  0.27487739  0.67123410  1  0.44212  0  0.069121  0.518384  0  4.205728  0
N  N39  1  0.01255192  0.72548766  0.32912102  1  0.416467  0  0.068286  0.517804  0  4.204533  0
O  O40  1  0.53283001  0.58604977  0.41487920  1  -1.238629  0  -0.226497  -0.579811  0  2.306493  0
O  O41  1  0.03267932  0.41385755  0.58503618  1  -1.237028  0  -0.226234  -0.579527  0  2.306269  0
O  O42  1  0.19298093  0.58284450  0.57888476  1  -1.223619  0  -0.221816  -0.569239  0  2.28046  0
O  O43  1  0.69305097  0.41706627  0.42124545  1  -1.223486  0  -0.221702  -0.568888  0  2.280535  0
O  O44  1  0.19313384  0.58296983  0.41437946  1  -1.250002  0  -0.231137  -0.594833  0  2.359769  0
O  O45  1  0.69298177  0.41716959  0.58576880  1  -1.249213  0  -0.231089  -0.5941  0  2.358468  0
O  O46  1  0.03413424  0.41524378  0.42226961  1  -1.21382  0  -0.221591  -0.568261  0  2.284768  0
O  O47  1  0.53408237  0.58490596  0.57762317  1  -1.213447  0  -0.221748  -0.568317  0  2.284773  0
O  O48  1  0.36454286  0.44564028  0.50344735  1  -1.460895  0  -0.44764  -0.999396  0  2.195226  0
O  O49  1  0.86455178  0.55435969  0.49659217  1  -1.463891  0  -0.447639  -0.999215  0  2.195204  0
O  O50  1  0.20797758  0.91693602  0.92231859  1  -1.233187  0  -0.222527  -0.576484  0  2.286929  0
O  O51  1  0.70791056  0.08307609  0.07772135  1  -1.233415  0  -0.222833  -0.576794  0  2.286621  0
O  O52  1  0.54987395  0.91484067  0.08538141  1  -1.248189  0  -0.237327  -0.593837  0  2.303399  0
O  O53  1  0.04990159  0.08514428  0.91459436  1  -1.247784  0  -0.237196  -0.593711  0  2.303072  0
O  O54  1  0.54825236  0.91677238  0.92143975  1  -1.230599  0  -0.223557  -0.578537  0  2.279576  0
O  O55  1  0.04821197  0.08331587  0.07852890  1  -1.230498  0  -0.223308  -0.578154  0  2.279029  0
O  O56  1  0.70923094  0.08497654  0.91369775  1  -1.257182  0  -0.236987  -0.597796  0  2.322452  0
O  O57  1  0.20918957  0.91507552  0.08635117  1  -1.257526  0  -0.236993  -0.597872  0  2.321871  0
O  O58  1  0.37883829  0.05471579  0.99802693  1  -1.434745  0  -0.447344  -0.997324  0  2.190421  0
O  O59  1  0.87883744  0.94530913  0.00200599  1  -1.435328  0  -0.447182  -0.997187  0  2.190652  0
O  O60  1  0.37769467  0.30238839  0.71434847  1  -0.445027  0  -0.112145  -0.314673  0  1.896239  0
O  O61  1  0.49115136  0.24855338  0.60342233  1  -0.440552  0  -0.108602  -0.302979  0  1.887476  0
O  O62  1  0.87765796  0.69805351  0.28615700  1  -0.440842  0  -0.111657  -0.31433  0  1.897857  0
O  O63  1  0.99211598  0.75191442  0.39691605  1  -0.419102  0  -0.108603  -0.302908  0  1.88437  0
