# generated using pymatgen
data_MnH11C12NO9
_symmetry_space_group_name_H-M   'P 1'
_cell_length_a   7.00865248
_cell_length_b   7.24710562
_cell_length_c   13.56153267
_cell_angle_alpha   78.61403830
_cell_angle_beta   77.49352404
_cell_angle_gamma   81.08724445
_symmetry_Int_Tables_number   1
_chemical_formula_structural   MnH11C12NO9
_chemical_formula_sum   'Mn2 H22 C24 N2 O18'
_cell_volume   654.69970939
_cell_formula_units_Z   2
loop_
 _symmetry_equiv_pos_site_id
 _symmetry_equiv_pos_as_xyz
  1  'x, y, z'
loop_
 _atom_site_type_symbol
 _atom_site_label
 _atom_site_symmetry_multiplicity
 _atom_site_fract_x
 _atom_site_fract_y
 _atom_site_fract_z
 _atom_site_occupancy
 _atom_site_hle17_ddec_charge
 _atom_site_hle17_ddec_spin_density
 _atom_site_hle17_ddec_sum_bond_order
 _atom_site_hle17_magmom
 _atom_site_hse06_10hf_ddec_charge
 _atom_site_hse06_10hf_ddec_spin_density
 _atom_site_hse06_10hf_ddec_sum_bond_order
 _atom_site_hse06_10hf_magmom
 _atom_site_hse06_ddec_charge
 _atom_site_hse06_ddec_spin_density
 _atom_site_hse06_ddec_sum_bond_order
 _atom_site_hse06_magmom
 _atom_site_pbe_cm5_charge
 _atom_site_pbe_ddec_charge
 _atom_site_pbe_ddec_spin_density
 _atom_site_pbe_ddec_sum_bond_order
 _atom_site_pbe_magmom
Mn  Mn0  1  0.03541909  0.32269290  0.42362411  1  1.270451  4.792285  1.716674  4.693  1.111617  4.718363  2.221216  4.557  1.170828  4.758651  2.144295  4.615  0.603184  1.066474  4.675829  2.277148  4.497
Mn  Mn1  1  0.96458208  0.67728277  0.57638948  1  1.270306  4.792249  1.717536  4.693  1.111507  4.718365  2.22198  4.557  1.170633  4.758661  2.145212  4.615  0.603052  1.066373  4.675807  2.277928  4.497
H  H2  1  0.84075449  0.52955825  0.03019356  1  0.116642  -3e-05  0.96218  0.0  0.119643  1.2e-05  1.032552  0.0  0.124033  4e-06  1.028898  0.0  0.109142  0.116494  2.4e-05  1.035247  0.0
H  H3  1  0.15925441  0.47045282  0.96979629  1  0.116506  -2.3e-05  0.962419  0.0  0.119631  1.3e-05  1.032677  0.0  0.124016  4e-06  1.029035  0.0  0.109147  0.116481  2.4e-05  1.035372  0.0
H  H4  1  0.54593940  0.67556921  0.95833213  1  0.112007  6.5e-05  0.939105  0.0  0.122305  0.000219  0.998331  0.0  0.12575  0.000147  0.996362  0.0  0.112088  0.119734  0.000297  0.999975  0.0
H  H5  1  0.45404738  0.32443068  0.04166503  1  0.111958  6.9e-05  0.939183  0.0  0.122241  0.000219  0.998449  0.0  0.125685  0.000147  0.996482  0.0  0.112116  0.119676  0.000297  1.000092  0.0
H  H6  1  0.31612893  0.93665850  0.22533241  1  0.13448  -0.000184  0.938438  0.0  0.142784  -0.000189  0.999923  0.0  0.146991  -0.000213  0.996769  0.0  0.118443  0.13961  -0.000156  1.002429  0.0
H  H7  1  0.68384398  0.06332163  0.77468238  1  0.134457  -0.000201  0.938463  0.0  0.142813  -0.000189  0.999921  0.0  0.147025  -0.000213  0.99676  0.0  0.118448  0.139636  -0.000156  1.002427  0.0
H  H8  1  0.58037921  0.09238159  0.30352305  1  0.134505  -0.000274  0.927414  0.0  0.148216  0.000128  0.983955  0.0  0.151413  -4.3e-05  0.981587  0.0  0.126806  0.145894  0.000321  0.985743  0.001
H  H9  1  0.41963417  0.90764069  0.69649242  1  0.134503  -0.000261  0.92747  0.0  0.148232  0.000129  0.984022  0.0  0.151434  -4.2e-05  0.981641  0.0  0.126793  0.145906  0.000323  0.985813  0.001
H  H10  1  0.81266032  0.98729505  0.24432468  1  0.132327  0.000217  0.92156  0.0  0.143632  0.000645  0.981432  0.001  0.146669  0.000435  0.979302  0.001  0.1272  0.141569  0.000888  0.98305  0.001
H  H11  1  0.18734871  0.01271458  0.75567415  1  0.132304  0.000225  0.921694  0.0  0.143648  0.000645  0.981536  0.001  0.14667  0.000435  0.979422  0.001  0.127203  0.14158  0.000889  0.983161  0.001
H  H12  1  0.32310335  0.89448514  0.39024096  1  0.128056  -0.000449  0.91928  0.0  0.136164  -0.000278  0.98483  0.0  0.139065  -0.000384  0.982747  0.0  0.126692  0.133963  -0.000158  0.986579  0.0
H  H13  1  0.67687169  0.10547660  0.60976150  1  0.127978  -0.000452  0.91927  0.0  0.136083  -0.000278  0.984839  0.0  0.139001  -0.000385  0.982765  0.0  0.126681  0.133887  -0.000158  0.986581  0.0
H  H14  1  0.47436376  0.77223267  0.47856314  1  0.138214  -0.000437  0.933916  0.0  0.146462  -0.000297  0.997253  0.0  0.149793  -0.00041  0.99566  0.0  0.127832  0.143907  -0.000155  0.998652  0.0
H  H15  1  0.52564965  0.22776418  0.52143729  1  0.138301  -0.000432  0.933825  0.0  0.146518  -0.000297  0.997194  0.0  0.149865  -0.00041  0.995608  0.0  0.127828  0.14396  -0.000155  0.998596  0.0
H  H16  1  0.73201185  0.68045803  0.34311554  1  0.291442  -0.000716  0.915217  0.0  0.26666  -0.000636  0.983583  0.0  0.277166  -0.000713  0.975926  0.0  0.314178  0.259296  -0.000548  0.988899  0.0
H  H17  1  0.26799510  0.31955730  0.65687483  1  0.291662  -0.000714  0.915043  0.0  0.26673  -0.000637  0.983603  0.0  0.27723  -0.000714  0.975956  0.0  0.314196  0.259365  -0.000548  0.988918  0.0
H  H18  1  0.08887838  0.91970840  0.93817756  1  0.396926  2e-06  0.89896  0.0  0.36491  1.5e-05  0.978547  0.0  0.378087  1e-05  0.964072  0.0  0.304931  0.355661  2.2e-05  0.988215  0.0
H  H19  1  0.91110792  0.08029576  0.06181479  1  0.39692  2e-06  0.89895  0.0  0.364912  1.5e-05  0.978497  0.0  0.378087  1e-05  0.964045  0.0  0.30493  0.355662  2.2e-05  0.988165  0.0
H  H20  1  0.21226864  0.33090167  0.23275091  1  0.41475  -0.000121  0.892495  0.0  0.384143  0.000577  0.9559  0.001  0.396088  0.000343  0.938702  0.001  0.287476  0.375778  0.000783  0.967876  0.001
H  H21  1  0.78770645  0.66914927  0.76724885  1  0.414864  -0.00012  0.892382  0.0  0.384273  0.000578  0.955749  0.001  0.396215  0.000344  0.938556  0.001  0.287543  0.375912  0.000784  0.967718  0.001
H  H22  1  0.36430138  0.33521452  0.30709470  1  0.40905  0.000355  0.902789  0.0  0.379952  0.001273  0.964398  0.001  0.39083  0.00098  0.948623  0.001  0.290147  0.372336  0.001526  0.975375  0.001
H  H23  1  0.63569098  0.66481370  0.69288561  1  0.409211  0.000352  0.902604  0.0  0.380135  0.001272  0.964153  0.001  0.391011  0.00098  0.948379  0.001  0.290244  0.372521  0.001525  0.975129  0.001
C  C24  1  0.92260278  0.54256546  0.21397565  1  0.662921  0.002937  3.851888  0.003  0.607125  0.00618  4.155303  0.006  0.64215  0.004169  4.146953  0.004  0.221366  0.582692  0.008815  4.160911  0.008
C  C25  1  0.07738970  0.45747403  0.78602190  1  0.662743  0.002954  3.852314  0.003  0.606893  0.006184  4.155939  0.006  0.641925  0.004174  4.147576  0.004  0.221179  0.582453  0.008826  4.161552  0.008
C  C26  1  0.74661542  0.64491485  0.16988128  1  -0.108452  0.000494  3.673091  0.001  -0.099966  0.00076  3.919107  0.001  -0.105376  0.000417  3.937432  0.0  -0.005707  -0.096594  0.00128  3.907437  0.001
C  C27  1  0.25336584  0.35512048  0.83011795  1  -0.108224  0.000559  3.67306  0.001  -0.099936  0.000761  3.919295  0.001  -0.105342  0.000414  3.937616  0.0  -0.005691  -0.096564  0.001282  3.907627  0.001
C  C28  1  0.72624324  0.61796534  0.07336244  1  -0.04241  0.000626  3.684521  0.001  -0.06739  0.001073  3.94195  0.001  -0.067381  0.000773  3.958954  0.001  -0.072283  -0.06745  0.001677  3.930698  0.001
C  C29  1  0.27375295  0.38204156  0.92663663  1  -0.042347  0.000567  3.684865  0.0  -0.067414  0.001074  3.942399  0.001  -0.067406  0.000776  3.959396  0.001  -0.072302  -0.067477  0.00168  3.931157  0.001
C  C30  1  0.56007726  0.69901572  0.03308957  1  -0.04906  -0.000114  3.686118  0.0  -0.079452  0.000208  3.942049  0.0  -0.079284  -2.7e-05  3.960896  0.0  -0.072291  -0.079537  0.000458  3.929466  0.0
C  C31  1  0.43991474  0.30098982  0.96690200  1  -0.048964  -7e-05  3.686387  0.0  -0.079364  0.000209  3.942379  0.0  -0.079199  -3.3e-05  3.961226  0.0  -0.072343  -0.07946  0.000458  3.92981  0.0
C  C32  1  0.41031864  0.81015566  0.08903010  1  -0.058239  0.000323  3.775198  0.0  -0.036994  0.00071  4.015025  0.001  -0.044687  0.000464  4.038529  0.0  -0.010667  -0.032007  0.001385  3.99946  0.001
C  C33  1  0.58967643  0.18984842  0.91096571  1  -0.058389  0.000283  3.775249  0.0  -0.037099  0.000711  4.015141  0.001  -0.044787  0.000468  4.038641  0.0  -0.010654  -0.032113  0.001389  3.999582  0.001
C  C34  1  0.43028200  0.84449957  0.18411318  1  -0.125368  -0.000272  3.669626  0.0  -0.162452  7.9e-05  3.924823  0.0  -0.163476  -0.000149  3.942676  0.0  -0.076253  -0.161891  0.000283  3.913419  0.0
C  C35  1  0.56968217  0.15549341  0.81589017  1  -0.125257  -0.00012  3.669886  0.0  -0.162483  7.7e-05  3.925048  0.0  -0.163512  -0.000152  3.942901  0.0  -0.076238  -0.161925  0.000283  3.913648  0.0
C  C36  1  0.59539374  0.76033862  0.22343476  1  0.162554  0.00034  3.670215  0.0  0.153913  0.0007  3.921051  0.001  0.15816  0.000468  3.942638  0.0  0.090298  0.15062  0.001207  3.906972  0.001
C  C37  1  0.40458037  0.23969534  0.77656393  1  0.162392  0.000271  3.670578  0.0  0.154034  0.000702  3.921128  0.001  0.158285  0.000471  3.942707  0.0  0.09034  0.150739  0.00121  3.907047  0.001
C  C38  1  0.22696902  0.89112095  0.05108951  1  0.661474  -1.1e-05  3.803977  0.0  0.607777  9.6e-05  4.104827  0.0  0.641595  1e-05  4.096832  0.0  0.242626  0.584657  0.000378  4.11  0.0
C  C39  1  0.77301581  0.10888320  0.94890964  1  0.661784  -1.6e-05  3.803774  0.0  0.60799  9.7e-05  4.104735  0.0  0.641805  9e-06  4.096741  0.0  0.242725  0.584869  0.000379  4.109912  0.0
C  C40  1  0.69789989  0.97567019  0.31377240  1  -0.166451  0.002872  3.498071  0.003  -0.22286  0.003586  3.741145  0.003  -0.224327  0.002606  3.743938  0.002  -0.058621  -0.221918  0.00461  3.739457  0.004
C  C41  1  0.30208915  0.02433534  0.68622835  1  -0.166475  0.002831  3.498248  0.003  -0.222892  0.003587  3.741332  0.003  -0.224341  0.002601  3.744113  0.002  -0.058689  -0.221942  0.00461  3.73965  0.004
C  C42  1  0.79252102  0.98684093  0.40305745  1  0.729055  0.012141  3.842888  0.014  0.676937  0.019385  4.145315  0.019  0.712847  0.014869  4.136562  0.016  0.237185  0.65179  0.024172  4.150301  0.023
C  C43  1  0.20747853  0.01311070  0.59695146  1  0.728641  0.012161  3.842447  0.014  0.676473  0.019396  4.145079  0.019  0.712374  0.014879  4.136325  0.016  0.237119  0.65132  0.024187  4.15007  0.023
C  C44  1  0.43333947  0.77270685  0.40486329  1  -0.173967  0.000357  3.521889  0.001  -0.232712  0.000996  3.77214  0.001  -0.234484  0.000489  3.776358  0.001  -0.060269  -0.231414  0.001536  3.769491  0.001
C  C45  1  0.56664955  0.22728593  0.59514174  1  -0.173941  0.000354  3.521674  0.001  -0.232688  0.000995  3.771845  0.001  -0.234561  0.000493  3.776191  0.001  -0.060272  -0.23139  0.001536  3.76921  0.001
C  C46  1  0.35688148  0.58554087  0.40838235  1  0.701694  0.003582  3.829221  0.004  0.647117  0.007942  4.135763  0.008  0.68126  0.005545  4.128857  0.006  0.228859  0.623526  0.010472  4.139614  0.01
C  C47  1  0.64315511  0.41443170  0.59162910  1  0.702134  0.00359  3.828512  0.004  0.647721  0.007947  4.13476  0.008  0.681897  0.005547  4.127822  0.006  0.229034  0.624105  0.010481  4.138642  0.01
N  N48  1  0.61601283  0.79182079  0.32454896  1  -0.103132  0.000804  3.395968  0.001  -0.026417  0.001512  3.606325  0.002  -0.038147  0.001027  3.622146  0.001  -0.330419  -0.018361  0.002049  3.595556  0.002
N  N49  1  0.38396695  0.20818906  0.67545163  1  -0.103318  0.000808  3.396187  0.001  -0.026548  0.001513  3.606468  0.002  -0.038255  0.001029  3.622292  0.001  -0.330427  -0.018497  0.002051  3.595707  0.002
O  O50  1  0.05981519  0.45753168  0.15758057  1  -0.579064  0.001774  1.933634  0.002  -0.526321  0.004086  2.146807  0.005  -0.550538  0.002808  2.138149  0.004  -0.295124  -0.509563  0.005913  2.152607  0.007
O  O51  1  0.94020141  0.54255298  0.84239852  1  -0.57892  0.001769  1.933792  0.002  -0.526123  0.004089  2.146904  0.005  -0.55033  0.002808  2.138239  0.004  -0.29496  -0.509378  0.005919  2.152706  0.007
O  O52  1  0.91914407  0.54781019  0.30945116  1  -0.64805  0.025361  2.08247  0.014  -0.582143  0.030393  2.343386  0.016  -0.612533  0.027615  2.330459  0.014  -0.307424  -0.560366  0.03295  2.351988  0.018
O  O53  1  0.08089147  0.45221059  0.69053914  1  -0.648231  0.025368  2.082811  0.014  -0.582206  0.030403  2.343779  0.016  -0.612592  0.027623  2.330859  0.014  -0.307431  -0.5604  0.032957  2.352345  0.018
O  O54  1  0.86682899  0.13866457  0.39335972  1  -0.653793  0.038146  2.068587  0.024  -0.590135  0.047816  2.349262  0.029  -0.621438  0.042133  2.332299  0.024  -0.309853  -0.56667  0.053394  2.360057  0.034
O  O55  1  0.13308461  0.86130877  0.60670733  1  -0.653543  0.038147  2.068455  0.024  -0.589808  0.047819  2.349059  0.029  -0.621097  0.042137  2.332106  0.024  -0.309718  -0.566349  0.053397  2.359859  0.034
O  O56  1  0.78873102  0.84868919  0.47657841  1  -0.660063  0.033404  2.070479  0.02  -0.596452  0.042682  2.346981  0.025  -0.625987  0.037636  2.330603  0.021  -0.306525  -0.57456  0.047526  2.357557  0.029
O  O57  1  0.21138483  0.15116688  0.52337301  1  -0.659722  0.033366  2.069906  0.02  -0.596328  0.042651  2.346674  0.025  -0.625829  0.037607  2.330245  0.021  -0.306631  -0.574437  0.047496  2.357248  0.029
O  O58  1  0.47250962  0.46024059  0.36696474  1  -0.598643  0.003509  1.976137  0.004  -0.543242  0.006827  2.193933  0.008  -0.567749  0.005115  2.187028  0.006  -0.292771  -0.525957  0.008653  2.198138  0.01
O  O59  1  0.52755455  0.53977293  0.63301504  1  -0.598714  0.003504  1.976344  0.004  -0.543482  0.006832  2.194145  0.008  -0.567998  0.005116  2.187258  0.006  -0.292836  -0.52619  0.008659  2.198345  0.01
O  O60  1  0.17756291  0.56839990  0.45337238  1  -0.686923  0.051875  2.106203  0.027  -0.608401  0.065466  2.395004  0.035  -0.642283  0.060084  2.37778  0.031  -0.298975  -0.583358  0.070406  2.406249  0.039
O  O61  1  0.82251795  0.43155526  0.54666621  1  -0.687296  0.051903  2.105839  0.027  -0.608701  0.065485  2.394411  0.035  -0.642644  0.060105  2.377245  0.031  -0.299044  -0.583609  0.070423  2.405643  0.039
O  O62  1  0.09064021  0.98343598  0.10378203  1  -0.562255  1.3e-05  1.997686  0.0  -0.511824  0.000104  2.214509  0.0  -0.534146  3.7e-05  2.205292  0.0  -0.281527  -0.496739  0.000291  2.220798  0.0
O  O63  1  0.90933243  0.01657252  0.89621506  1  -0.562346  1e-05  1.997788  0.0  -0.511872  0.000104  2.214653  0.0  -0.534194  3.8e-05  2.205434  0.0  -0.28155  -0.496786  0.000292  2.220943  0.0
O  O64  1  0.22041982  0.85691924  0.96015572  1  -0.532434  6.2e-05  2.10869  0.0  -0.481416  0.00019  2.330316  0.0  -0.504717  0.000122  2.317758  0.0  -0.314577  -0.465382  0.000339  2.338395  0.0
O  O65  1  0.77955556  0.14307789  0.03984669  1  -0.532457  6e-05  2.108448  0.0  -0.48142  0.00019  2.330122  0.0  -0.504722  0.000122  2.317587  0.0  -0.314563  -0.465388  0.000339  2.338203  0.0
O  O66  1  0.27222398  0.25670101  0.29197143  1  -0.848282  0.031025  1.881453  0.021  -0.791206  0.039342  2.0768  0.026  -0.816151  0.034954  2.041041  0.022  -0.57513  -0.772265  0.043498  2.101304  0.03
O  O67  1  0.72777891  0.74328606  0.70801571  1  -0.848485  0.031045  1.881458  0.021  -0.791444  0.039367  2.076901  0.026  -0.81637  0.034977  2.041138  0.022  -0.575266  -0.772509  0.043525  2.1014  0.03
