# generated using pymatgen
data_ZnH17C26N5O8
_symmetry_space_group_name_H-M   'P 1'
_cell_length_a   17.15537742
_cell_length_b   18.31971100
_cell_length_c   19.55272852
_cell_angle_alpha   92.32879776
_cell_angle_beta   88.92529035
_cell_angle_gamma   96.62805711
_symmetry_Int_Tables_number   1
_chemical_formula_structural   ZnH17C26N5O8
_chemical_formula_sum   'Zn2 H34 C52 N10 O16'
_cell_volume   6098.33675393
_cell_formula_units_Z   2
loop_
 _symmetry_equiv_pos_site_id
 _symmetry_equiv_pos_as_xyz
  1  'x, y, z'
loop_
 _atom_site_type_symbol
 _atom_site_label
 _atom_site_symmetry_multiplicity
 _atom_site_fract_x
 _atom_site_fract_y
 _atom_site_fract_z
 _atom_site_occupancy
 _atom_site_pbe_bader_charge
 _atom_site_pbe_bader_spin_density
 _atom_site_pbe_cm5_charge
 _atom_site_pbe_ddec_charge
 _atom_site_pbe_ddec_spin_density
 _atom_site_pbe_ddec_sum_bond_order
 _atom_site_pbe_magmom
Zn  Zn0  1  0.49251262  0.42497744  0.50334186  1  1.281934  0  0.679141  0.842062  0  2.38851  0
Zn  Zn1  1  0.50911339  0.58382634  0.50405555  1  1.290878  0  0.674948  0.838457  0  2.387085  0
H  H2  1  0.26876297  0.60496388  0.55495913  1  0.095799  0  0.104198  0.106982  0  1.001255  0
H  H3  1  0.72604531  0.39644212  0.57336343  1  0.08163  0  0.104585  0.108303  0  1.000005  0
H  H4  1  0.75421292  0.62671685  0.53350717  1  0.088793  0  0.103339  0.109788  0  1.00144  0
H  H5  1  0.24969245  0.37558330  0.49569818  1  0.089998  0  0.101246  0.103978  0  1.0058  0
H  H6  1  0.00773474  0.57995805  0.58139896  1  0.075581  0  0.098732  0.093652  0  1.013494  0
H  H7  1  0.99476832  0.41100351  0.57177277  1  0.03517  0  0.100167  0.097255  0  1.005324  0
H  H8  1  0.10886490  0.36164480  0.53189013  1  0.008211  0  0.099467  0.096646  0  0.999898  0
H  H9  1  0.89672918  0.63361684  0.55922518  1  0.064991  0  0.09931  0.097343  0  1.001056  0
H  H10  1  0.86785257  0.40207075  0.59911657  1  0.055398  0  0.101034  0.100967  0  1.002225  0
H  H11  1  0.12948809  0.59203106  0.59289697  1  0.040435  0  0.099319  0.096855  0  1.008134  0
H  H12  1  0.55973339  0.60317880  0.72186934  1  0.106807  0  0.113022  0.121173  0  0.983594  0
H  H13  1  0.44386925  0.39657976  0.28878527  1  0.07566  0  0.106593  0.108898  0  0.997848  0
H  H14  1  0.56923331  0.59784359  0.84864629  1  0.079903  0  0.10535  0.105356  0  0.999439  0
H  H15  1  0.43462905  0.39333494  0.16195193  1  0.065803  0  0.106858  0.105012  0  0.996677  0
H  H16  1  0.40218186  0.40242318  0.84333264  1  0.111297  0  0.114414  0.126331  0  0.988743  0
H  H17  1  0.59989829  0.58954055  0.15669511  1  0.098834  0  0.115499  0.125836  0  0.993361  0
H  H18  1  0.37130716  0.46002379  0.94916394  1  0.054693  0  0.104652  0.105085  0  0.996161  0
H  H19  1  0.63196410  0.52605549  0.05527958  1  0.101711  0  0.103985  0.103993  0  0.996743  0
H  H20  1  0.38397885  0.45678148  0.07432453  1  0.043531  0  0.103487  0.102  0  0.999952  0
H  H21  1  0.61921530  0.52917079  0.93016496  1  0.061916  0  0.104976  0.104346  0  0.998103  0
H  H22  1  0.54183768  0.31879225  0.59378395  1  0.123575  0  0.125486  0.104655  0  0.976191  0
H  H23  1  0.43132058  0.69364528  0.57714264  1  0.125846  0  0.123365  0.103219  0  0.984647  0
H  H24  1  0.55588324  0.18435819  0.59052903  1  0.085025  0  0.109921  0.122717  0  0.990617  0
H  H25  1  0.41774824  0.82774722  0.57184253  1  0.078707  0  0.107239  0.119704  0  0.997558  0
H  H26  1  0.37033240  0.05115380  0.49040100  1  0.130827  0  0.124587  0.138785  0  0.977793  0
H  H27  1  0.62767945  0.95733440  0.50931215  1  0.113467  0  0.123579  0.136571  0  0.981664  0
H  H28  1  0.35775769  0.16992842  0.37963915  1  0.429308  0  0.307411  0.294298  0  0.951777  0
H  H29  1  0.41539444  0.10178328  0.38664947  1  0.417866  0  0.301225  0.293717  0  0.962439  0
H  H30  1  0.66694339  0.83013326  0.39792694  1  0.455123  0  0.312358  0.303072  0  0.943637  0
H  H31  1  0.61196843  0.90196481  0.40024358  1  0.41847  0  0.304694  0.29609  0  0.961531  0
H  H32  1  0.39380561  0.28353441  0.36192288  1  0.431956  0  0.309647  0.301111  0  0.946815  0
H  H33  1  0.38381907  0.35506358  0.42096053  1  0.499561  0  0.30435  0.326717  0  0.976273  0
H  H34  1  0.64063407  0.71577917  0.37917043  1  0.467937  0  0.29959  0.294979  0  0.983757  0
H  H35  1  0.63456317  0.65057967  0.43947271  1  0.513707  0  0.30428  0.319557  0  0.968863  0
C  C36  1  0.52331618  0.49709936  0.37162128  1  1.668851  0  0.211692  0.591245  0  4.213961  0
C  C37  1  0.47880381  0.50980975  0.63508391  1  1.645009  0  0.215033  0.593038  0  4.193758  0
C  C38  1  0.35111793  0.50058338  0.49907916  1  1.537747  0  0.214518  0.596123  0  4.165792  0
C  C39  1  0.64817567  0.50613071  0.52951085  1  1.543866  0  0.216851  0.596197  0  4.159492  0
C  C40  1  0.26709099  0.49170458  0.52081603  1  -0.020697  0  -0.020707  -0.038711  0  3.970245  0
C  C41  1  0.73192765  0.51076961  0.54999452  1  -0.009226  0  -0.02183  -0.041551  0  3.97229  0
C  C42  1  0.23277592  0.55209691  0.54958883  1  -0.037464  0  -0.080937  -0.079867  0  3.988181  0
C  C43  1  0.76424827  0.44804952  0.57021858  1  -0.080414  0  -0.082494  -0.084518  0  3.988651  0
C  C44  1  0.15481065  0.54442161  0.57059432  1  -0.040773  0  -0.089851  -0.132394  0  3.970318  0
C  C45  1  0.84360434  0.45155795  0.58440525  1  0.015252  0  -0.090916  -0.136151  0  3.969391  0
C  C46  1  0.10781802  0.47614592  0.56281949  1  -0.036103  0  -0.007382  0.119743  0  4.040987  0
C  C47  1  0.89338922  0.51801304  0.57851608  1  0.013751  0  -0.008858  0.118324  0  4.048252  0
C  C48  1  0.14391943  0.41521658  0.53685637  1  -0.018104  0  -0.089827  -0.135515  0  3.97321  0
C  C49  1  0.85913093  0.58153101  0.56261430  1  -0.101902  0  -0.092481  -0.141364  0  3.987067  0
C  C50  1  0.22222569  0.42282055  0.51595610  1  0.028024  0  -0.082359  -0.077994  0  3.986957  0
C  C51  1  0.77989189  0.57799181  0.54797230  1  -0.00701  0  -0.085144  -0.084759  0  3.996621  0
C  C52  1  0.02335393  0.46757425  0.57505141  1  -0.001079  0  -0.089461  -0.130992  0  3.995686  0
C  C53  1  0.97847783  0.52366722  0.58148375  1  -0.099363  0  -0.090977  -0.131424  0  4.001842  0
C  C54  1  0.52528452  0.56000039  0.74973119  1  -0.006371  0  -0.075388  -0.070327  0  3.973932  0
C  C55  1  0.47821449  0.43823358  0.25905868  1  -0.008446  0  -0.077651  -0.078901  0  3.975137  0
C  C56  1  0.53094746  0.55612366  0.82021234  1  -0.067365  0  -0.086447  -0.134407  0  3.982498  0
C  C57  1  0.47253637  0.43720726  0.18812708  1  0.013388  0  -0.079943  -0.120068  0  3.968397  0
C  C58  1  0.48698067  0.49965206  0.85560398  1  0.065292  0  -0.000139  0.089264  0  4.007293  0
C  C59  1  0.51581011  0.49128672  0.14935337  1  0.012199  0  -0.000393  0.083679  0  4.005594  0
C  C60  1  0.43647702  0.44770379  0.81809273  1  -0.033919  0  -0.082252  -0.188599  0  3.944832  0
C  C61  1  0.56569353  0.54593421  0.18419645  1  -0.000928  0  -0.0756  -0.17334  0  3.934588  0
C  C62  1  0.43144808  0.45273020  0.74764247  1  0.155187  0  0.085709  0.073659  0  3.934538  0
C  C63  1  0.57095207  0.54540429  0.25499976  1  0.225371  0  0.08529  0.063261  0  3.934615  0
C  C64  1  0.47588164  0.50796927  0.71165592  1  0.003231  0  -0.006787  -0.070757  0  3.934644  0
C  C65  1  0.52711193  0.49282972  0.29448347  1  -0.071143  0  0.002204  -0.046306  0  3.908718  0
C  C66  1  0.42891530  0.47332538  0.97213440  1  -0.036773  0  -0.088748  -0.124028  0  3.991416  0
C  C67  1  0.57435928  0.51256090  0.03234690  1  -0.06425  0  -0.089642  -0.126147  0  3.997107  0
C  C68  1  0.43610567  0.47144504  0.04277039  1  0.021123  0  -0.089418  -0.126539  0  3.994828  0
C  C69  1  0.56715877  0.51437954  0.96176645  1  -0.039195  0  -0.088162  -0.124789  0  3.994559  0
C  C70  1  0.50886249  0.49143614  0.07427431  1  -0.032479  0  -0.009329  0.063295  0  4.010138  0
C  C71  1  0.49420940  0.49534045  0.93030957  1  -0.079991  0  -0.005805  0.06553  0  4.008711  0
C  C72  1  0.51545333  0.28145537  0.55370538  1  0.481183  0  0.037607  0.096187  0  3.981609  0
C  C73  1  0.46823181  0.72936428  0.54351303  1  0.466451  0  0.028828  0.08101  0  4.005602  0
C  C74  1  0.52371789  0.20752200  0.55078795  1  0.018918  0  -0.102198  -0.199452  0  4.041943  0
C  C75  1  0.46053450  0.80294005  0.53933762  1  -0.013523  0  -0.107927  -0.206048  0  4.064768  0
C  C76  1  0.48927286  0.16229858  0.49677488  1  -0.036148  0  -0.012311  -0.005492  0  4.023953  0
C  C77  1  0.50937249  0.84598721  0.49378676  1  0.010183  0  -0.0176  -0.017304  0  4.030359  0
C  C78  1  0.44602954  0.19374598  0.44803035  1  0.454187  0  0.09584  0.120876  0  4.027995  0
C  C79  1  0.56488738  0.81248441  0.45374847  1  0.418493  0  0.100824  0.133268  0  4.026682  0
C  C80  1  0.43871851  0.27053797  0.45558799  1  1.026256  0  0.2316  0.364499  0  4.0348  0
C  C81  1  0.57073325  0.73596636  0.46247616  1  1.058731  0  0.232476  0.364722  0  4.021912  0
C  C82  1  0.42805572  0.03177034  0.49023281  1  -0.062411  0  -0.072759  -0.173386  0  3.947263  0
C  C83  1  0.57100685  0.97656499  0.50062582  1  -0.003497  0  -0.071659  -0.170733  0  3.94501  0
C  C84  1  0.43282351  0.95641897  0.48642268  1  0.265077  0  0.085775  0.04071  0  3.907422  0
C  C85  1  0.56693374  0.05189677  0.49906402  1  0.168901  0  0.083442  0.037551  0  3.90675  0
C  C86  1  0.50392208  0.92580407  0.49167388  1  0.002048  0  0.011694  0.062826  0  3.969039  0
C  C87  1  0.49578122  0.08241679  0.49397848  1  0.087685  0  0.011857  0.061464  0  3.967278  0
N  N88  1  0.47500308  0.31256158  0.50599785  1  -1.258109  0  -0.334357  -0.302395  0  3.490911  0
N  N89  1  0.52176659  0.69642297  0.50504636  1  -1.256322  0  -0.337925  -0.304169  0  3.496683  0
N  N90  1  0.41208653  0.15671042  0.39050352  1  -1.195769  0  -0.598026  -0.600398  0  3.324562  0
N  N91  1  0.61288645  0.84716015  0.40440133  1  -1.20321  0  -0.590516  -0.586477  0  3.333874  0
N  N92  1  0.39102107  0.30072594  0.41181322  1  -1.22477  0  -0.587474  -0.640336  0  3.303325  0
N  N93  1  0.62971296  0.70410799  0.42921676  1  -1.265707  0  -0.586554  -0.633936  0  3.317566  0
N  N94  1  0.35817957  0.90911212  0.47439572  1  0.406753  0  0.055899  0.509896  0  4.235927  0
N  N95  1  0.64277474  0.09927699  0.50119305  1  0.418554  0  0.056069  0.510979  0  4.230228  0
N  N96  1  0.37473502  0.39730573  0.71239203  1  0.434701  0  0.05711  0.523486  0  4.229301  0
N  N97  1  0.62700802  0.60164682  0.28846473  1  0.369903  0  0.059257  0.522391  0  4.196613  0
O  O98  1  0.52615173  0.43727119  0.40141261  1  -1.156257  0  -0.314437  -0.539758  0  2.30406  0
O  O99  1  0.50425744  0.57077452  0.60960664  1  -1.159498  0  -0.310647  -0.538445  0  2.310166  0
O  O100  1  0.51334065  0.55958878  0.39853022  1  -1.155691  0  -0.314696  -0.545261  0  2.317246  0
O  O101  1  0.45850351  0.44925482  0.60267560  1  -1.167774  0  -0.310996  -0.541177  0  2.352987  0
O  O102  1  0.38075661  0.44402495  0.47374576  1  -1.19576  0  -0.327623  -0.582498  0  2.355746  0
O  O103  1  0.62454832  0.56410898  0.50663075  1  -1.180716  0  -0.318891  -0.561914  0  2.362009  0
O  O104  1  0.38956410  0.56379161  0.50842043  1  -1.164878  0  -0.311658  -0.538996  0  2.336  0
O  O105  1  0.60566380  0.44489760  0.53588192  1  -1.174263  0  -0.314871  -0.544566  0  2.326887  0
O  O106  1  0.35798701  0.86171265  0.42758183  1  -0.434697  0  -0.118356  -0.307112  0  1.872143  0
O  O107  1  0.30110372  0.92202501  0.51084505  1  -0.439844  0  -0.136472  -0.330473  0  1.849398  0
O  O108  1  0.65331781  0.14780072  0.45877212  1  -0.446883  0  -0.118282  -0.309351  0  1.877728  0
O  O109  1  0.69071541  0.08539353  0.54410776  1  -0.442447  0  -0.137465  -0.331136  0  1.845617  0
O  O110  1  0.31684405  0.41978404  0.68734293  1  -0.448064  0  -0.126471  -0.317426  0  1.886417  0
O  O111  1  0.38775365  0.33226587  0.71385045  1  -0.450078  0  -0.147418  -0.345698  0  1.854486  0
O  O112  1  0.66973300  0.58121159  0.33251305  1  -0.445264  0  -0.118251  -0.309443  0  1.901195  0
O  O113  1  0.62880533  0.66618113  0.27017393  1  -0.462092  0  -0.14686  -0.355903  0  1.872166  0
