# generated using pymatgen
data_CdH20C22(NO2)2
_symmetry_space_group_name_H-M   'P 1'
_cell_length_a   9.85781289
_cell_length_b   10.59033896
_cell_length_c   10.55789326
_cell_angle_alpha   81.89746986
_cell_angle_beta   65.19982655
_cell_angle_gamma   70.92720190
_symmetry_Int_Tables_number   1
_chemical_formula_structural   CdH20C22(NO2)2
_chemical_formula_sum   'Cd2 H40 C44 N4 O8'
_cell_volume   945.63105609
_cell_formula_units_Z   2
loop_
 _symmetry_equiv_pos_site_id
 _symmetry_equiv_pos_as_xyz
  1  'x, y, z'
loop_
 _atom_site_type_symbol
 _atom_site_label
 _atom_site_symmetry_multiplicity
 _atom_site_fract_x
 _atom_site_fract_y
 _atom_site_fract_z
 _atom_site_occupancy
 _atom_site_hle17_bader_spin_density
 _atom_site_hle17_ddec_charge
 _atom_site_hle17_ddec_spin_density
 _atom_site_hle17_ddec_sum_bond_order
 _atom_site_hle17_magmom
 _atom_site_hse06_10hf_bader_spin_density
 _atom_site_hse06_10hf_ddec_charge
 _atom_site_hse06_10hf_ddec_spin_density
 _atom_site_hse06_10hf_ddec_sum_bond_order
 _atom_site_hse06_10hf_magmom
 _atom_site_hse06_bader_spin_density
 _atom_site_hse06_ddec_charge
 _atom_site_hse06_ddec_spin_density
 _atom_site_hse06_ddec_sum_bond_order
 _atom_site_hse06_magmom
 _atom_site_pbe_bader_spin_density
 _atom_site_pbe_cm5_charge
 _atom_site_pbe_ddec_charge
 _atom_site_pbe_ddec_spin_density
 _atom_site_pbe_ddec_sum_bond_order
 _atom_site_pbe_magmom
Cd  Cd0  1  0.47128335  0.63985446  0.37192450  1  0  1.107928  0  1.699338  0  0  0.910716  0  2.146791  0  0  0.971716  0  2.093948  0  0  0.766968  0.867367  0  2.182386  0
Cd  Cd1  1  0.52871751  0.36014563  0.62807421  1  0  1.107918  0  1.699333  0  0  0.910711  0  2.146784  0  0  0.971712  0  2.093938  0  0  0.766975  0.867366  0  2.18239  0
H  H2  1  0.42696210  0.48332484  0.16369612  1  0  0.074195  0  0.967313  0  0  0.081659  0  1.034574  0  0  0.083217  0  1.034242  0  0  0.112234  0.080286  0  1.035513  0
H  H3  1  0.57303800  0.51667424  0.83630493  1  0  0.074224  0  0.967323  0  0  0.081693  0  1.034576  0  0  0.083251  0  1.034243  0  0  0.112233  0.080318  0  1.035514  0
H  H4  1  0.56512810  0.29528122  0.99227346  1  0  0.125935  0  0.973223  0  0  0.13128  0  1.039963  0  0  0.134886  0  1.039112  0  0  0.106371  0.128532  0  1.041162  0
H  H5  1  0.43487381  0.70471586  0.00772715  1  0  0.125942  0  0.973215  0  0  0.131289  0  1.039962  0  0  0.134896  0  1.039109  0  0  0.106376  0.128538  0  1.041164  0
H  H6  1  0.97964889  0.24953204  0.06338012  1  0  0.099435  0  0.980047  0  0  0.110726  0  1.042725  0  0  0.112869  0  1.043505  0  0  0.102122  0.108869  0  1.042973  0
H  H7  1  0.02035233  0.75046704  0.93661953  1  0  0.099441  0  0.980013  0  0  0.110719  0  1.042702  0  0  0.112878  0  1.043464  0  0  0.102119  0.10886  0  1.042962  0
H  H8  1  0.82490080  0.43746017  0.23107709  1  0  0.079597  0  0.933905  0  0  0.089026  0  0.996508  0  0  0.091151  0  0.994993  0  0  0.114428  0.087192  0  0.998215  0
H  H9  1  0.17510152  0.56253892  0.76892024  1  0  0.079592  0  0.933908  0  0  0.08902  0  0.996525  0  0  0.091144  0  0.995011  0  0  0.11443  0.08719  0  0.99822  0
H  H10  1  0.78662436  0.11675140  0.88436820  1  0  0.09266  0  0.934973  0  0  0.109988  0  0.994562  0  0  0.111572  0  0.993841  0  0  0.100745  0.109364  0  0.994228  0
H  H11  1  0.21337575  0.88324768  0.11563379  1  0  0.092658  0  0.934986  0  0  0.109962  0  0.994595  0  0  0.111547  0  0.993873  0  0  0.100727  0.109336  0  0.994258  0
H  H12  1  0.91676399  0.05221965  0.96898258  1  0  0.066965  0  0.960981  0  0  0.085479  0  1.022739  0  0  0.086252  0  1.022831  0  0  0.089678  0.084854  0  1.022855  0
H  H13  1  0.08323758  0.94777843  0.03101802  1  0  0.067013  0  0.960984  0  0  0.085519  0  1.022744  0  0  0.086292  0  1.022837  0  0  0.089691  0.084891  0  1.02286  0
H  H14  1  0.95702116  0.23789854  0.71508467  1  0  0.105892  0  0.923091  0  0  0.125989  0  0.977392  0  0  0.127083  0  0.977365  0  0  0.103916  0.124944  0  0.977878  0
H  H15  1  0.04297748  0.76210154  0.28491682  1  0  0.105904  0  0.923086  0  0  0.125975  0  0.97741  0  0  0.127065  0  0.977384  0  0  0.103895  0.12493  0  0.977899  0
H  H16  1  0.08011357  0.20631358  0.80624250  1  0  0.090121  0  0.956936  0  0  0.103346  0  1.02394  0  0  0.105809  0  1.022103  0  0  0.094021  0.102028  0  1.024417  0
H  H17  1  0.91988765  0.79368550  0.19375716  1  0  0.090116  0  0.956949  0  0  0.103332  0  1.023956  0  0  0.105795  0  1.022118  0  0  0.094018  0.10201  0  1.024438  0
H  H18  1  0.92617245  0.99371095  0.66446451  1  0  0.106446  0  0.967793  0  0  0.117431  0  1.027903  0  0  0.119728  0  1.028854  0  0  0.106131  0.115644  0  1.027864  0
H  H19  1  0.07382539  0.00628815  0.33553458  1  0  0.106429  0  0.967839  0  0  0.117415  0  1.027946  0  0  0.119711  0  1.028898  0  0  0.106118  0.115624  0  1.027905  0
H  H20  1  0.10706786  0.79075817  0.52257474  1  0  0.087031  0  0.947814  0  0  0.094395  0  1.01215  0  0  0.096705  0  1.010741  0  0  0.115754  0.092343  0  1.013878  0
H  H21  1  0.89293035  0.20923992  0.47742719  1  0  0.087026  0  0.947847  0  0  0.094396  0  1.012165  0  0  0.096694  0  1.010786  0  0  0.115756  0.092347  0  1.013898  0
H  H22  1  0.48699166  0.83588000  0.56579475  1  0  0.074059  0  0.948872  0  0  0.08321  0  1.015373  0  0  0.085092  0  1.013883  0  0  0.114164  0.081502  0  1.017351  0
H  H23  1  0.51300731  0.16411909  0.43420580  1  0  0.074029  0  0.948874  0  0  0.08318  0  1.015383  0  0  0.085065  0  1.013895  0  0  0.114152  0.081471  0  1.01736  0
H  H24  1  0.32179085  0.04341201  0.70793521  1  0  0.11815  0  0.97474  0  0  0.127693  0  1.034049  0  0  0.130626  0  1.034114  0  0  0.106195  0.125341  0  1.034867  0
H  H25  1  0.67820631  0.95658908  0.29206483  1  0  0.118157  0  0.974701  0  0  0.12769  0  1.034021  0  0  0.130623  0  1.034086  0  0  0.106188  0.125339  0  1.034843  0
H  H26  1  0.94520263  0.58316951  0.45399409  1  0  0.115411  0  0.966168  0  0  0.127983  0  1.033017  0  0  0.130143  0  1.03205  0  0  0.102837  0.126329  0  1.033943  0
H  H27  1  0.05479645  0.41683256  0.54600789  1  0  0.115434  0  0.966223  0  0  0.128014  0  1.033048  0  0  0.130173  0  1.03208  0  0  0.102842  0.126364  0  1.033975  0
H  H28  1  0.77554191  0.70256576  0.44409265  1  0  0.118544  0  0.938051  0  0  0.132795  0  0.998767  0  0  0.135518  0  0.997176  0  0  0.100963  0.13099  0  0.999621  0
H  H29  1  0.22445906  0.29743731  0.55590749  1  0  0.118548  0  0.9381  0  0  0.132798  0  0.998811  0  0  0.135521  0  0.99722  0  0  0.100967  0.130996  0  0.999665  0
H  H30  1  0.87522301  0.50461210  0.74106260  1  0  0.096607  0  0.970432  0  0  0.107605  0  1.030958  0  0  0.110895  0  1.029126  0  0  0.09905  0.105338  0  1.032156  0
H  H31  1  0.12477452  0.49538799  0.25894028  1  0  0.096603  0  0.970428  0  0  0.1076  0  1.030957  0  0  0.11089  0  1.029124  0  0  0.099047  0.105335  0  1.032153  0
H  H32  1  0.82159462  0.61009730  0.95763239  1  0  0.090127  0  0.955336  0  0  0.102777  0  1.013384  0  0  0.105324  0  1.013199  0  0  0.097169  0.100959  0  1.013813  0
H  H33  1  0.17840333  0.38990478  0.04236908  1  0  0.090085  0  0.95527  0  0  0.102729  0  1.013339  0  0  0.105279  0  1.013147  0  0  0.09714  0.100913  0  1.013764  0
H  H34  1  0.64505425  0.99619855  0.79620750  1  0  0.096156  0  1.000145  0  0  0.10497  0  1.06528  0  0  0.10821  0  1.063457  0  0  0.095218  0.102792  0  1.066224  0
H  H35  1  0.35494404  0.00380253  0.20379303  1  0  0.09619  0  1.000161  0  0  0.104988  0  1.065307  0  0  0.10823  0  1.063487  0  0  0.095209  0.102808  0  1.066252  0
H  H36  1  0.69824280  0.88996487  0.57942095  1  0  0.077952  0  0.98936  0  0  0.089113  0  1.053563  0  0  0.091091  0  1.054388  0  0  0.090653  0.087775  0  1.053069  0
H  H37  1  0.30175584  0.11003522  0.42058053  1  0  0.077937  0  0.989353  0  0  0.089094  0  1.053565  0  0  0.091071  0  1.05439  0  0  0.090647  0.087757  0  1.053067  0
H  H38  1  0.61513491  0.97885402  0.03193613  1  0  0.114748  0  0.933337  0  0  0.130458  0  0.994335  0  0  0.132578  0  0.993622  0  0  0.104913  0.128996  0  0.994814  0
H  H39  1  0.38486486  0.02114606  0.96806586  1  0  0.114745  0  0.933311  0  0  0.130476  0  0.994285  0  0  0.132594  0  0.993568  0  0  0.10491  0.129011  0  0.994763  0
H  H40  1  0.79693614  0.87888604  0.03417680  1  0  0.092626  0  0.959607  0  0  0.107002  0  1.025864  0  0  0.109117  0  1.024438  0  0  0.094001  0.105557  0  1.026761  0
H  H41  1  0.20306585  0.12111403  0.96582241  1  0  0.09265  0  0.959584  0  0  0.107015  0  1.025872  0  0  0.109134  0  1.024435  0  0  0.094013  0.10557  0  1.026766  0
C  C42  1  0.54993133  0.42892119  0.13785538  1  0  0.131882  0  3.718938  0  0  0.102182  0  3.968628  0  0  0.109474  0  3.988575  0  0  0.043857  0.097545  0  3.955316  0
C  C43  1  0.45006991  0.57107788  0.86214711  1  0  0.131718  0  3.71893  0  0  0.102002  0  3.968634  0  0  0.109291  0  3.988583  0  0  0.04378  0.097367  0  3.95532  0
C  C44  1  0.62710363  0.32433327  0.04266383  1  0  -0.177243  0  3.681355  0  0  -0.191735  0  3.921799  0  0  -0.200481  0  3.943537  0  0  -0.085933  -0.185987  0  3.907944  0
C  C45  1  0.37289605  0.67566382  0.95733861  1  0  -0.17712  0  3.681406  0  0  -0.191641  0  3.921847  0  0  -0.200388  0  3.943585  0  0  -0.085892  -0.185893  0  3.907989  0
C  C46  1  0.78487686  0.25626978  0.01246342  1  0  0.159225  0  3.70914  0  0  0.177183  0  3.941589  0  0  0.181698  0  3.964685  0  0  0.014153  0.174168  0  3.925978  0
C  C47  1  0.21512394  0.74372730  0.98753858  1  0  0.159156  0  3.709278  0  0  0.17717  0  3.941658  0  0  0.181685  0  3.964757  0  0  0.014164  0.174153  0  3.926046  0
C  C48  1  0.85745813  0.29861734  0.08089484  1  0  -0.182836  0  3.715507  0  0  -0.200101  0  3.961191  0  0  -0.208685  0  3.984539  0  0  -0.090166  -0.194611  0  3.946174  0
C  C49  1  0.14254309  0.70138173  0.91910576  1  0  -0.18287  0  3.715491  0  0  -0.200147  0  3.961181  0  0  -0.208743  0  3.984519  0  0  -0.090206  -0.194662  0  3.946168  0
C  C50  1  0.77194178  0.40373261  0.17505744  1  0  0.129445  0  3.731822  0  0  0.096768  0  3.991001  0  0  0.104323  0  4.009589  0  0  0.041766  0.091975  0  3.978592  0
C  C51  1  0.22806056  0.59626646  0.82494272  1  0  0.129395  0  3.731852  0  0  0.096701  0  3.991032  0  0  0.104258  0  4.009625  0  0  0.041734  0.091915  0  3.978624  0
C  C52  1  0.87046750  0.14010258  0.91336098  1  0  -0.145019  0  3.67228  0  0  -0.187382  0  3.91995  0  0  -0.188447  0  3.930829  0  0  -0.153787  -0.186492  0  3.911854  0
C  C53  1  0.12953294  0.85989550  0.08663913  1  0  -0.145056  0  3.672327  0  0  -0.187412  0  3.919949  0  0  -0.188479  0  3.930826  0  0  -0.153781  -0.186521  0  3.91185  0
C  C54  1  0.00700732  0.16373324  0.78041686  1  0  -0.168644  0  3.659993  0  0  -0.212096  0  3.908437  0  0  -0.213858  0  3.918838  0  0  -0.157957  -0.210479  0  3.900502  0
C  C55  1  0.99299167  0.83626584  0.21958558  1  0  -0.168591  0  3.660061  0  0  -0.212004  0  3.908411  0  0  -0.213763  0  3.918814  0  0  -0.15792  -0.21039  0  3.900476  0
C  C56  1  0.10915801  0.03742578  0.69829539  1  0  0.160324  0  3.703485  0  0  0.175857  0  3.942745  0  0  0.181097  0  3.964779  0  0  0.016275  0.172123  0  3.927622  0
C  C57  1  0.89084017  0.96257233  0.30170276  1  0  0.16032  0  3.703345  0  0  0.175924  0  3.942494  0  0  0.181166  0  3.964522  0  0  0.016317  0.172195  0  3.927363  0
C  C58  1  0.04971975  0.96332329  0.64564499  1  0  -0.173388  0  3.702423  0  0  -0.189935  0  3.947923  0  0  -0.198677  0  3.970942  0  0  -0.084366  -0.184248  0  3.932878  0
C  C59  1  0.95027888  0.03667679  0.35435649  1  0  -0.173414  0  3.702266  0  0  -0.189997  0  3.947767  0  0  -0.198738  0  3.970784  0  0  -0.084397  -0.184304  0  3.932714  0
C  C60  1  0.14950524  0.84997338  0.56603063  1  0  0.12656  0  3.712633  0  0  0.096581  0  3.965349  0  0  0.104234  0  3.983833  0  0  0.045681  0.092189  0  3.952761  0
C  C61  1  0.85049485  0.15002570  0.43396947  1  0  0.12654  0  3.712647  0  0  0.096568  0  3.965375  0  0  0.104216  0  3.983856  0  0  0.045669  0.092171  0  3.952792  0
C  C62  1  0.36185936  0.87467853  0.58997565  1  0  0.135056  0  3.723824  0  0  0.103692  0  3.977408  0  0  0.111871  0  3.995895  0  0  0.045321  0.098261  0  3.965698  0
C  C63  1  0.63814072  0.12532056  0.41002351  1  0  0.135133  0  3.723868  0  0  0.103753  0  3.977465  0  0  0.111929  0  3.995955  0  0  0.045356  0.09832  0  3.965755  0
C  C64  1  0.26938553  0.98890858  0.67045837  1  0  -0.185655  0  3.702491  0  0  -0.20136  0  3.947564  0  0  -0.209926  0  3.968737  0  0  -0.088793  -0.195857  0  3.934324  0
C  C65  1  0.73061198  0.01109152  0.32954166  1  0  -0.185687  0  3.702506  0  0  -0.201402  0  3.947553  0  0  -0.209967  0  3.968726  0  0  -0.088814  -0.195902  0  3.934319  0
C  C66  1  0.74123621  0.51640265  0.53944578  1  0  0.709282  0  3.833097  0  0  0.662322  0  4.129567  0  0  0.696518  0  4.12242  0  0  0.204048  0.639233  0  4.133158  0
C  C67  1  0.25876395  0.48359943  0.46055104  1  0  0.709322  0  3.833103  0  0  0.66235  0  4.12959  0  0  0.696543  0  4.12244  0  0  0.204067  0.63926  0  4.133186  0
C  C68  1  0.81827803  0.62665240  0.51158450  1  0  -0.318934  0  3.676815  0  0  -0.362177  0  3.916933  0  0  -0.367806  0  3.923005  0  0  -0.16422  -0.357993  0  3.912225  0
C  C69  1  0.18172105  0.37334968  0.48841654  1  0  -0.319025  0  3.676924  0  0  -0.362237  0  3.916985  0  0  -0.367861  0  3.923051  0  0  -0.164258  -0.358064  0  3.912293  0
C  C70  1  0.78977255  0.68935633  0.64414825  1  0  0.117776  0  3.744747  0  0  0.13685  0  3.981941  0  0  0.137049  0  4.007081  0  0  -0.011954  0.136726  0  3.964761  0
C  C71  1  0.21022574  0.31064476  0.35585228  1  0  0.117769  0  3.744715  0  0  0.136824  0  3.981933  0  0  0.137024  0  4.007068  0  0  -0.011956  0.136699  0  3.964763  0
C  C72  1  0.82646451  0.61275838  0.75184058  1  0  -0.127162  0  3.751343  0  0  -0.145671  0  3.99762  0  0  -0.148305  0  4.018636  0  0  -0.09799  -0.143882  0  3.983958  0
C  C73  1  0.17353413  0.38724171  0.24816091  1  0  -0.127158  0  3.751443  0  0  -0.145666  0  3.997726  0  0  -0.148302  0  4.018743  0  0  -0.097988  -0.143885  0  3.984073  0
C  C74  1  0.79529010  0.67255933  0.87436197  1  0  -0.123225  0  3.747963  0  0  -0.139434  0  3.993097  0  0  -0.141851  0  4.01434  0  0  -0.097289  -0.138241  0  3.980031  0
C  C75  1  0.20470932  0.32744175  0.12564002  1  0  -0.123119  0  3.747974  0  0  -0.139328  0  3.993095  0  0  -0.141744  0  4.014342  0  0  -0.097241  -0.138135  0  3.980028  0
C  C76  1  0.72734074  0.81106952  0.89341052  1  0  0.113448  0  3.758918  0  0  0.130524  0  3.999223  0  0  0.131126  0  4.023125  0  0  -0.015556  0.130217  0  3.983293  0
C  C77  1  0.27265832  0.18893257  0.10658957  1  0  0.113359  0  3.758877  0  0  0.130466  0  3.999167  0  0  0.131062  0  4.023069  0  0  -0.015573  0.130164  0  3.983232  0
C  C78  1  0.69454217  0.88786739  0.78496559  1  0  -0.138831  0  3.768541  0  0  -0.155962  0  4.014061  0  0  -0.158416  0  4.034545  0  0  -0.103959  -0.153777  0  3.999797  0
C  C79  1  0.30545758  0.11213269  0.21503450  1  0  -0.138884  0  3.768481  0  0  -0.156018  0  4.014  0  0  -0.158475  0  4.034487  0  0  -0.103968  -0.153834  0  3.999736  0
C  C80  1  0.72501252  0.82772633  0.66248067  1  0  -0.131437  0  3.768268  0  0  -0.148277  0  4.012423  0  0  -0.151143  0  4.034749  0  0  -0.102186  -0.145945  0  3.997224  0
C  C81  1  0.27498465  0.17227476  0.33752125  1  0  -0.13132  0  3.768121  0  0  -0.148148  0  4.012266  0  0  -0.15101  0  4.034586  0  0  -0.102123  -0.145816  0  3.997066  0
C  C82  1  0.68988454  0.87506542  0.02781517  1  0  -0.306112  0  3.700988  0  0  -0.35261  0  3.947607  0  0  -0.357561  0  3.953991  0  0  -0.162561  -0.349158  0  3.943025  0
C  C83  1  0.31011633  0.12493466  0.97218448  1  0  -0.306135  0  3.700899  0  0  -0.352649  0  3.947533  0  0  -0.357586  0  3.953892  0  0  -0.162595  -0.349197  0  3.942938  0
C  C84  1  0.60569647  0.80054376  0.15602052  1  0  0.674628  0  3.88871  0  0  0.631623  0  4.18514  0  0  0.664306  0  4.179871  0  0  0.188803  0.609527  0  4.187891  0
C  C85  1  0.39430699  0.19945530  0.84398014  1  0  0.674599  0  3.888486  0  0  0.631607  0  4.18493  0  0  0.664282  0  4.179664  0  0  0.188807  0.609518  0  4.187667  0
N  N86  1  0.62001542  0.46833349  0.20369109  1  0  -0.337734  0  3.25897  0  0  -0.262805  0  3.524035  0  0  -0.283717  0  3.544179  0  0  -0.331487  -0.248506  0  3.509592  0
N  N87  1  0.37998613  0.53166460  0.79630763  1  0  -0.337582  0  3.258873  0  0  -0.262614  0  3.523904  0  0  -0.283528  0  3.544052  0  0  -0.331408  -0.248319  0  3.509464  0
N  N88  1  0.30411730  0.80677416  0.53661484  1  0  -0.341443  0  3.266512  0  0  -0.26437  0  3.534631  0  0  -0.285407  0  3.552995  0  0  -0.332103  -0.249988  0  3.521256  0
N  N89  1  0.69588055  0.19322494  0.46338520  1  0  -0.34143  0  3.266523  0  0  -0.264357  0  3.534636  0  0  -0.285391  0  3.552999  0  0  -0.332098  -0.249971  0  3.521259  0
O  O90  1  0.47587837  0.78730368  0.17050974  1  0  -0.649884  0  1.94297  0  0  -0.588241  0  2.17949  0  0  -0.615788  0  2.170176  0  0  -0.333135  -0.569258  0  2.184783  0
O  O91  1  0.52412475  0.21269639  0.82948998  1  0  -0.649834  0  1.942741  0  0  -0.588226  0  2.1793  0  0  -0.615773  0  2.169984  0  0  -0.333147  -0.56927  0  2.184637  0
O  O92  1  0.66851300  0.75388420  0.24323903  1  0  -0.652564  0  1.934019  0  0  -0.593251  0  2.17081  0  0  -0.620714  0  2.161958  0  0  -0.337853  -0.574115  0  2.175683  0
O  O93  1  0.33149079  0.24611387  0.75675880  1  0  -0.652553  0  1.933933  0  0  -0.593249  0  2.170753  0  0  -0.620707  0  2.161889  0  0  -0.337851  -0.574115  0  2.175625  0
O  O94  1  0.63288994  0.53375745  0.49552671  1  0  -0.687581  0  2.082288  0  0  -0.607974  0  2.354445  0  0  -0.641107  0  2.342754  0  0  -0.341399  -0.584496  0  2.361039  0
O  O95  1  0.36711136  0.46624463  0.50447155  1  0  -0.687589  0  2.082268  0  0  -0.607952  0  2.354387  0  0  -0.6411  0  2.34273  0  0  -0.341375  -0.584474  0  2.360982  0
O  O96  1  0.78033116  0.41322372  0.60781551  1  0  -0.640544  0  1.901684  0  0  -0.583881  0  2.130643  0  0  -0.609421  0  2.120816  0  0  -0.324747  -0.56595  0  2.136987  0
O  O97  1  0.21966824  0.58677737  0.39218364  1  0  -0.640558  0  1.901783  0  0  -0.583894  0  2.130756  0  0  -0.609437  0  2.120932  0  0  -0.324753  -0.565959  0  2.137087  0
