# generated using pymatgen
data_CdH12C22(N3O2)2
_symmetry_space_group_name_H-M   'P 1'
_cell_length_a   9.74477100
_cell_length_b   10.44239129
_cell_length_c   10.86126789
_cell_angle_alpha   85.96364094
_cell_angle_beta   65.83052018
_cell_angle_gamma   71.07992374
_symmetry_Int_Tables_number   1
_chemical_formula_structural   CdH12C22(N3O2)2
_chemical_formula_sum   'Cd2 H24 C44 N12 O8'
_cell_volume   951.36946291
_cell_formula_units_Z   2
loop_
 _symmetry_equiv_pos_site_id
 _symmetry_equiv_pos_as_xyz
  1  'x, y, z'
loop_
 _atom_site_type_symbol
 _atom_site_label
 _atom_site_symmetry_multiplicity
 _atom_site_fract_x
 _atom_site_fract_y
 _atom_site_fract_z
 _atom_site_occupancy
 _atom_site_hle17_bader_spin_density
 _atom_site_hle17_ddec_charge
 _atom_site_hle17_ddec_spin_density
 _atom_site_hle17_ddec_sum_bond_order
 _atom_site_hle17_magmom
 _atom_site_hse06_10hf_bader_spin_density
 _atom_site_hse06_10hf_ddec_charge
 _atom_site_hse06_10hf_ddec_spin_density
 _atom_site_hse06_10hf_ddec_sum_bond_order
 _atom_site_hse06_10hf_magmom
 _atom_site_hse06_bader_spin_density
 _atom_site_hse06_ddec_charge
 _atom_site_hse06_ddec_spin_density
 _atom_site_hse06_ddec_sum_bond_order
 _atom_site_hse06_magmom
 _atom_site_pbe_bader_spin_density
 _atom_site_pbe_cm5_charge
 _atom_site_pbe_ddec_charge
 _atom_site_pbe_ddec_spin_density
 _atom_site_pbe_ddec_sum_bond_order
 _atom_site_pbe_magmom
Cd  Cd0  1  0.35114731  0.57531418  0.17206396  1  0  1.101386  0  1.752281  0  0  0.898074  0  2.210638  0  0  0.954775  0  2.160375  0  0  0.79317  0.857697  0  2.244574  0
Cd  Cd1  1  0.64885441  0.42468573  0.82793703  1  0  1.101354  0  1.752344  0  0  0.898033  0  2.210698  0  0  0.954734  0  2.160442  0  0  0.793164  0.857676  0  2.244598  0
H  H2  1  0.67379230  0.83036744  0.22366236  1  0  0.112546  0  0.953393  0  0  0.120047  0  1.020537  0  0  0.124294  0  1.017238  0  0  0.112634  0.116814  0  1.023165  0
H  H3  1  0.32620831  0.16963247  0.77633719  1  0  0.112533  0  0.953377  0  0  0.120037  0  1.020525  0  0  0.124283  0  1.017226  0  0  0.112622  0.116806  0  1.023142  0
H  H4  1  0.34882259  0.25074099  0.09762729  1  0  0.120086  0  0.936034  0  0  0.12637  0  1.00199  0  0  0.131434  0  0.997842  0  0  0.111535  0.122517  0  1.005303  0
H  H5  1  0.65117803  0.74925891  0.90237042  1  0  0.120044  0  0.936045  0  0  0.126336  0  1.001998  0  0  0.131401  0  0.997846  0  0  0.111497  0.122442  0  1.005357  0
H  H6  1  0.50560657  0.43548509  0.38796404  1  0  0.073866  0  0.93696  0  0  0.08479  0  0.99982  0  0  0.087199  0  0.997443  0  0  0.11647  0.084083  0  0.999777  0
H  H7  1  0.49439404  0.56451482  0.61203551  1  0  0.073889  0  0.93696  0  0  0.084811  0  0.999819  0  0  0.087219  0  0.997442  0  0  0.116463  0.084105  0  0.999775  0
H  H8  1  0.47924971  0.25687071  0.55631299  1  0  0.11525  0  0.956581  0  0  0.123837  0  1.015919  0  0  0.127301  0  1.014956  0  0  0.106313  0.120541  0  1.018605  0
H  H9  1  0.52075164  0.74313021  0.44368714  1  0  0.115271  0  0.95658  0  0  0.12386  0  1.015921  0  0  0.127324  0  1.014959  0  0  0.106315  0.120568  0  1.018604  0
H  H10  1  0.25710001  0.15873974  0.60851134  1  0  0.107996  0  0.972725  0  0  0.116225  0  1.036177  0  0  0.119467  0  1.033825  0  0  0.107677  0.113792  0  1.03804  0
H  H11  1  0.74290171  0.84126016  0.39148872  1  0  0.107976  0  0.972742  0  0  0.116201  0  1.036199  0  0  0.119444  0  1.033845  0  0  0.10767  0.113772  0  1.038059  0
H  H12  1  0.05258623  0.64597789  0.07727873  1  0  0.088164  0  0.956545  0  0  0.089343  0  1.031245  0  0  0.093276  0  1.026945  0  0  0.116091  0.086619  0  1.033699  0
H  H13  1  0.94741398  0.35402305  0.92272366  1  0  0.088171  0  0.956559  0  0  0.089345  0  1.03126  0  0  0.093259  0  1.026975  0  0  0.116085  0.08662  0  1.033715  0
H  H14  1  0.80972122  0.57608769  0.13014332  1  0  0.122044  0  0.933579  0  0  0.133073  0  0.988028  0  0  0.136365  0  0.987299  0  0  0.115678  0.13055  0  0.988699  0
H  H15  1  0.19027899  0.42391325  0.86985814  1  0  0.122047  0  0.93358  0  0  0.133078  0  0.988023  0  0  0.136369  0  0.987295  0  0  0.115681  0.130554  0  0.988697  0
H  H16  1  0.75820197  0.40278275  0.29653013  1  0  0.092774  0  0.95161  0  0  0.102468  0  1.016363  0  0  0.105187  0  1.014072  0  0  0.108239  0.101642  0  1.015987  0
H  H17  1  0.24179862  0.59721717  0.70347034  1  0  0.092789  0  0.951593  0  0  0.102478  0  1.016338  0  0  0.105196  0  1.014048  0  0  0.108242  0.101651  0  1.015963  0
H  H18  1  0.83376962  0.25194607  0.46532340  1  0  0.10196  0  0.927103  0  0  0.117124  0  0.979636  0  0  0.119748  0  0.979066  0  0  0.108531  0.114597  0  0.981289  0
H  H19  1  0.16623211  0.74805383  0.53467574  1  0  0.101971  0  0.927067  0  0  0.11714  0  0.979594  0  0  0.119766  0  0.979023  0  0  0.108541  0.114611  0  0.981253  0
H  H20  1  0.02014036  0.16007663  0.57566596  1  0  0.113564  0  0.945378  0  0  0.123188  0  1.005222  0  0  0.126638  0  1.003676  0  0  0.109047  0.120837  0  1.006141  0
H  H21  1  0.97986062  0.83992226  0.42433353  1  0  0.11356  0  0.945338  0  0  0.12318  0  1.005187  0  0  0.12663  0  1.003641  0  0  0.109034  0.12083  0  1.006104  0
H  H22  1  0.07349442  0.93195280  0.18540362  1  0  0.292822  0  0.939402  0  0  0.27042  0  1.007332  0  0  0.280402  0  0.998936  0  0  0.307996  0.262356  0  1.015628  0
H  H23  1  0.92650543  0.06804611  0.81459628  1  0  0.292748  0  0.939476  0  0  0.270395  0  1.00734  0  0  0.280378  0  0.998942  0  0  0.307989  0.262335  0  1.015629  0
H  H24  1  0.95201841  0.14800645  0.13034922  1  0  0.293798  0  0.937725  0  0  0.271577  0  1.003796  0  0  0.281879  0  0.99524  0  0  0.30806  0.263221  0  1.012131  0
H  H25  1  0.04797956  0.85199449  0.86965121  1  0  0.293792  0  0.937731  0  0  0.271562  0  1.003807  0  0  0.281865  0  0.995249  0  0  0.308042  0.263208  0  1.012142  0
C  C26  1  0.40670194  0.80831935  0.21992674  1  0  0.429797  0  3.969977  0  0  0.392407  0  4.252818  0  0  0.416539  0  4.260746  0  0  0.185327  0.376339  0  4.24654  0
C  C27  1  0.59329753  0.19168057  0.78007322  1  0  0.429763  0  3.96995  0  0  0.392386  0  4.252766  0  0  0.41652  0  4.260694  0  0  0.185331  0.376317  0  4.246494  0
C  C28  1  0.21615258  0.05198392  0.15572757  1  0  0.472347  0  3.882299  0  0  0.422686  0  4.17899  0  0  0.449847  0  4.182139  0  0  0.218576  0.403914  0  4.177455  0
C  C29  1  0.78384653  0.94801701  0.84427245  1  0  0.47236  0  3.882384  0  0  0.422709  0  4.179075  0  0  0.449871  0  4.182221  0  0  0.218605  0.403938  0  4.177537  0
C  C30  1  0.45640876  0.92921488  0.19916745  1  0  -0.034477  0  3.743707  0  0  -0.019566  0  3.975654  0  0  -0.022068  0  3.994474  0  0  -0.004359  -0.018935  0  3.963658  0
C  C31  1  0.54359184  0.07078503  0.80083210  1  0  -0.034467  0  3.743693  0  0  -0.019565  0  3.975647  0  0  -0.022062  0  3.994461  0  0  -0.004359  -0.018936  0  3.963655  0
C  C32  1  0.36389144  0.04940580  0.16368584  1  0  -0.05352  0  3.750271  0  0  -0.04075  0  3.988362  0  0  -0.04429  0  4.008324  0  0  -0.004868  -0.037206  0  3.974147  0
C  C33  1  0.63610955  0.95059309  0.83631365  1  0  -0.053569  0  3.750269  0  0  -0.040799  0  3.988375  0  0  -0.044344  0  4.008337  0  0  -0.004874  -0.037254  0  3.974146  0
C  C34  1  0.59939283  0.92439284  0.20274471  1  0  -0.061726  0  3.667988  0  0  -0.094712  0  3.917047  0  0  -0.092496  0  3.931093  0  0  -0.06777  -0.09568  0  3.907757  0
C  C35  1  0.40060815  0.07560605  0.79725478  1  0  -0.061739  0  3.667972  0  0  -0.094729  0  3.917034  0  0  -0.092514  0  3.93108  0  0  -0.067782  -0.095694  0  3.907736  0
C  C36  1  0.41702648  0.16130371  0.13039460  1  0  -0.066539  0  3.664294  0  0  -0.102658  0  3.924611  0  0  -0.101735  0  3.940053  0  0  -0.072095  -0.102684  0  3.914281  0
C  C37  1  0.58297301  0.83869620  0.86960444  1  0  -0.066452  0  3.664291  0  0  -0.102571  0  3.924572  0  0  -0.101654  0  3.940029  0  0  -0.072067  -0.102564  0  3.914257  0
C  C38  1  0.65049727  0.03751415  0.17296152  1  0  -0.055973  0  3.766203  0  0  -0.043681  0  4.004619  0  0  -0.047543  0  4.023697  0  0  -0.006808  -0.040295  0  3.991184  0
C  C39  1  0.34950296  0.96248677  0.82703809  1  0  -0.055919  0  3.766205  0  0  -0.043633  0  4.004632  0  0  -0.047492  0  4.023709  0  0  -0.006783  -0.040244  0  3.991192  0
C  C40  1  0.56020833  0.15685457  0.13458372  1  0  -0.039396  0  3.74782  0  0  -0.028984  0  3.989838  0  0  -0.030165  0  4.00937  0  0  -0.006313  -0.028264  0  3.97634  0
C  C41  1  0.43979115  0.84314534  0.86541532  1  0  -0.039483  0  3.74794  0  0  -0.029058  0  3.989956  0  0  -0.030238  0  4.009483  0  0  -0.006309  -0.028338  0  3.976451  0
C  C42  1  0.80136864  0.03325466  0.17422395  1  0  0.477144  0  3.875758  0  0  0.428911  0  4.166615  0  0  0.456326  0  4.168404  0  0  0.220747  0.409558  0  4.166817  0
C  C43  1  0.19862971  0.96674527  0.82577642  1  0  0.477151  0  3.875778  0  0  0.428899  0  4.166645  0  0  0.456313  0  4.168436  0  0  0.220737  0.409549  0  4.166839  0
C  C44  1  0.62445683  0.26891431  0.09304538  1  0  0.42271  0  3.937736  0  0  0.37809  0  4.237807  0  0  0.398786  0  4.246677  0  0  0.189727  0.364842  0  4.230181  0
C  C45  1  0.37554265  0.73108561  0.90695458  1  0  0.422829  0  3.937608  0  0  0.378187  0  4.237708  0  0  0.398883  0  4.246574  0  0  0.189757  0.364933  0  4.230089  0
C  C46  1  0.41268869  0.38908707  0.41338956  1  0  0.139588  0  3.715904  0  0  0.103864  0  3.977067  0  0  0.111622  0  3.994738  0  0  0.052111  0.09842  0  3.9643  0
C  C47  1  0.58731192  0.61091284  0.58660999  1  0  0.139492  0  3.715995  0  0  0.103771  0  3.977155  0  0  0.111529  0  3.994826  0  0  0.052092  0.098328  0  3.964391  0
C  C48  1  0.39897895  0.28770297  0.50529218  1  0  -0.119946  0  3.730591  0  0  -0.13137  0  3.984767  0  0  -0.138667  0  4.007028  0  0  -0.084147  -0.127574  0  3.971864  0
C  C49  1  0.60102164  0.71229695  0.49470829  1  0  -0.119983  0  3.730665  0  0  -0.131418  0  3.984847  0  0  -0.138717  0  4.007107  0  0  -0.084144  -0.127629  0  3.97195  0
C  C50  1  0.27664563  0.23484590  0.53477670  1  0  -0.040158  0  3.655867  0  0  -0.06462  0  3.900955  0  0  -0.0629  0  3.919818  0  0  -0.060834  -0.065269  0  3.888429  0
C  C51  1  0.72335648  0.76515298  0.46522238  1  0  -0.040065  0  3.655916  0  0  -0.064519  0  3.900974  0  0  -0.062797  0  3.919835  0  0  -0.060795  -0.065168  0  3.888452  0
C  C52  1  0.16924109  0.28374365  0.47276119  1  0  0.03475  0  3.778277  0  0  0.049887  0  4.01158  0  0  0.047502  0  4.036753  0  0  6e-05  0.051153  0  3.994813  0
C  C53  1  0.83075990  0.71625524  0.52723737  1  0  0.034726  0  3.778347  0  0  0.049881  0  4.011604  0  0  0.047495  0  4.036777  0  0  5.2e-05  0.051144  0  3.994844  0
C  C54  1  0.19370484  0.38533882  0.37959811  1  0  0.12558  0  3.76076  0  0  0.119226  0  3.997971  0  0  0.123051  0  4.021372  0  0  0.118108  0.116618  0  3.982256  0
C  C55  1  0.80629615  0.61466006  0.62040045  1  0  0.125452  0  3.760794  0  0  0.119109  0  3.998009  0  0  0.122933  0  4.021411  0  0  0.118024  0.116496  0  3.982299  0
C  C56  1  0.08834259  0.43573941  0.31134651  1  0  0.132812  0  3.748549  0  0  0.125103  0  3.986103  0  0  0.129556  0  4.008456  0  0  0.11849  0.122459  0  3.970794  0
C  C57  1  0.91165802  0.56426050  0.68865211  1  0  0.13285  0  3.748404  0  0  0.125101  0  3.986009  0  0  0.129553  0  4.008364  0  0  0.118472  0.122464  0  3.970691  0
C  C58  1  0.02105421  0.57438255  0.15357997  1  0  0.157927  0  3.670778  0  0  0.12587  0  3.925671  0  0  0.134514  0  3.941781  0  0  0.062333  0.120734  0  3.913521  0
C  C59  1  0.97894488  0.42561839  0.84642098  1  0  0.157961  0  3.670762  0  0  0.125918  0  3.925647  0  0  0.134578  0  3.941763  0  0  0.062351  0.120781  0  3.913499  0
C  C60  1  0.88786595  0.53361035  0.18175756  1  0  -0.105306  0  3.699908  0  0  -0.11829  0  3.953668  0  0  -0.125535  0  3.974754  0  0  -0.073241  -0.11326  0  3.938634  0
C  C61  1  0.11213427  0.46639058  0.81824298  1  0  -0.105307  0  3.699933  0  0  -0.118299  0  3.953685  0  0  -0.125545  0  3.974766  0  0  -0.073235  -0.11327  0  3.938654  0
C  C62  1  0.85779175  0.43918295  0.27607047  1  0  -0.020449  0  3.664682  0  0  -0.049098  0  3.919368  0  0  -0.045593  0  3.93591  0  0  -0.055552  -0.051734  0  3.907109  0
C  C63  1  0.14220885  0.56081697  0.72393000  1  0  -0.020476  0  3.664779  0  0  -0.049105  0  3.919446  0  0  -0.045597  0  3.935986  0  0  -0.055555  -0.051742  0  3.907186  0
C  C64  1  0.95840898  0.38673936  0.34387290  1  0  0.031441  0  3.78041  0  0  0.046442  0  4.015457  0  0  0.04433  0  4.038827  0  0  0.001084  0.047378  0  4.0  0
C  C65  1  0.04159124  0.61326157  0.65612856  1  0  0.031462  0  3.780343  0  0  0.046455  0  4.015424  0  0  0.044343  0  4.038795  0  0  0.0011  0.047395  0  3.999957  0
C  C66  1  0.93536175  0.28696298  0.44095314  1  0  -0.079268  0  3.724698  0  0  -0.106857  0  3.988622  0  0  -0.108786  0  4.009837  0  0  -0.079305  -0.105433  0  3.974394  0
C  C67  1  0.06463773  0.71303694  0.55904682  1  0  -0.079235  0  3.724795  0  0  -0.106825  0  3.988704  0  0  -0.108756  0  4.009921  0  0  -0.079284  -0.105397  0  3.974473  0
C  C68  1  0.03772252  0.23608250  0.50194471  1  0  -0.097919  0  3.72001  0  0  -0.123007  0  3.982034  0  0  -0.126286  0  4.003604  0  0  -0.082772  -0.120232  0  3.966548  0
C  C69  1  0.96227995  0.76391538  0.49805523  1  0  -0.097923  0  3.720147  0  0  -0.12301  0  3.98215  0  0  -0.12629  0  4.003721  0  0  -0.082769  -0.120235  0  3.966662  0
N  N70  1  0.27104058  0.81563899  0.21228701  1  0  -0.382986  0  3.123729  0  0  -0.336594  0  3.410434  0  0  -0.357862  0  3.427471  0  0  -0.277141  -0.321564  0  3.397951  0
N  N71  1  0.72895889  0.18436093  0.78771387  1  0  -0.38293  0  3.123644  0  0  -0.336527  0  3.410344  0  0  -0.357798  0  3.427381  0  0  -0.277124  -0.321496  0  3.397863  0
N  N72  1  0.18113820  0.93472872  0.18321597  1  0  -0.255536  0  3.43572  0  0  -0.202088  0  3.683112  0  0  -0.219884  0  3.6991  0  0  -0.28938  -0.190744  0  3.674408  0
N  N73  1  0.81886128  0.06527120  0.81678307  1  0  -0.255455  0  3.435721  0  0  -0.202059  0  3.683117  0  0  -0.219854  0  3.699104  0  0  -0.289384  -0.190725  0  3.674422  0
N  N74  1  0.84299044  0.14637169  0.13441158  1  0  -0.260312  0  3.433997  0  0  -0.202161  0  3.685234  0  0  -0.220363  0  3.698687  0  0  -0.28293  -0.190508  0  3.678597  0
N  N75  1  0.15700902  0.85362824  0.86559023  1  0  -0.260325  0  3.434091  0  0  -0.202134  0  3.685293  0  0  -0.220338  0  3.698752  0  0  -0.282897  -0.190489  0  3.678661  0
N  N76  1  0.76229687  0.26149590  0.09302837  1  0  -0.294933  0  2.963166  0  0  -0.283866  0  3.254892  0  0  -0.294532  0  3.267643  0  0  -0.236527  -0.276942  0  3.245756  0
N  N77  1  0.23770109  0.73850506  0.90697391  1  0  -0.294982  0  2.963183  0  0  -0.28392  0  3.254907  0  0  -0.294586  0  3.267661  0  0  -0.236563  -0.276994  0  3.245776  0
N  N78  1  0.31385764  0.43579564  0.35259602  1  0  -0.363687  0  3.30256  0  0  -0.291835  0  3.56927  0  0  -0.311152  0  3.588727  0  0  -0.330768  -0.27894  0  3.555763  0
N  N79  1  0.68614335  0.56420325  0.64740254  1  0  -0.363596  0  3.302621  0  0  -0.291738  0  3.569307  0  0  -0.311054  0  3.588765  0  0  -0.330733  -0.278842  0  3.5558  0
N  N80  1  0.11798898  0.52649319  0.21646261  1  0  -0.363775  0  3.251506  0  0  -0.290925  0  3.518107  0  0  -0.310794  0  3.535795  0  0  -0.325724  -0.276831  0  3.505072  0
N  N81  1  0.88201162  0.47350673  0.78353786  1  0  -0.363813  0  3.251534  0  0  -0.290952  0  3.518151  0  0  -0.310819  0  3.535827  0  0  -0.325712  -0.276864  0  3.505119  0
O  O82  1  0.49270685  0.69204973  0.23868186  1  0  -0.629983  0  1.904162  0  0  -0.57565  0  2.142572  0  0  -0.603026  0  2.13586  0  0  -0.349489  -0.556156  0  2.146621  0
O  O83  1  0.50729263  0.30795018  0.76131811  1  0  -0.629978  0  1.90415  0  0  -0.575649  0  2.142549  0  0  -0.603025  0  2.135841  0  0  -0.349494  -0.556155  0  2.146599  0
O  O84  1  0.54679480  0.37724366  0.05039400  1  0  -0.68942  0  2.160646  0  0  -0.601218  0  2.444218  0  0  -0.631541  0  2.432832  0  0  -0.366292  -0.57941  0  2.450647  0
O  O85  1  0.45320430  0.62275728  0.94960602  1  0  -0.689466  0  2.160597  0  0  -0.601238  0  2.444156  0  0  -0.631558  0  2.432766  0  0  -0.366304  -0.579425  0  2.450578  0
O  O86  1  0.12694628  0.15439294  0.12496200  1  0  -0.567629  0  1.954136  0  0  -0.525899  0  2.176545  0  0  -0.548098  0  2.173143  0  0  -0.315138  -0.509358  0  2.179668  0
O  O87  1  0.87305321  0.84560697  0.87503704  1  0  -0.567658  0  1.954243  0  0  -0.525928  0  2.176647  0  0  -0.548132  0  2.173239  0  0  -0.315167  -0.509385  0  2.179759  0
O  O88  1  0.88873228  0.93262475  0.20954528  1  0  -0.577399  0  1.949039  0  0  -0.535195  0  2.173922  0  0  -0.55672  0  2.166809  0  0  -0.316541  -0.519668  0  2.180037  0
O  O89  1  0.11126719  0.06737517  0.79045468  1  0  -0.577383  0  1.949049  0  0  -0.535193  0  2.173931  0  0  -0.556722  0  2.166815  0  0  -0.316538  -0.519671  0  2.180036  0
