# generated using pymatgen
data_CdH14C12NO6
_symmetry_space_group_name_H-M   'P 1'
_cell_length_a   10.92100629
_cell_length_b   11.22207831
_cell_length_c   11.22201479
_cell_angle_alpha   82.98617294
_cell_angle_beta   86.48293738
_cell_angle_gamma   86.48381190
_symmetry_Int_Tables_number   1
_chemical_formula_structural   CdH14C12NO6
_chemical_formula_sum   'Cd4 H56 C48 N4 O24'
_cell_volume   1360.45301428
_cell_formula_units_Z   4
loop_
 _symmetry_equiv_pos_site_id
 _symmetry_equiv_pos_as_xyz
  1  'x, y, z'
loop_
 _atom_site_type_symbol
 _atom_site_label
 _atom_site_symmetry_multiplicity
 _atom_site_fract_x
 _atom_site_fract_y
 _atom_site_fract_z
 _atom_site_occupancy
 _atom_site_hle17_bader_spin_density
 _atom_site_hle17_ddec_charge
 _atom_site_hle17_ddec_spin_density
 _atom_site_hle17_ddec_sum_bond_order
 _atom_site_hle17_magmom
 _atom_site_hse06_10hf_bader_spin_density
 _atom_site_hse06_10hf_ddec_charge
 _atom_site_hse06_10hf_ddec_spin_density
 _atom_site_hse06_10hf_ddec_sum_bond_order
 _atom_site_hse06_10hf_magmom
 _atom_site_hse06_bader_spin_density
 _atom_site_hse06_ddec_charge
 _atom_site_hse06_ddec_spin_density
 _atom_site_hse06_ddec_sum_bond_order
 _atom_site_hse06_magmom
 _atom_site_pbe_bader_spin_density
 _atom_site_pbe_cm5_charge
 _atom_site_pbe_ddec_charge
 _atom_site_pbe_ddec_spin_density
 _atom_site_pbe_ddec_sum_bond_order
 _atom_site_pbe_magmom
Cd  Cd0  1  0.00530730  0.37236610  0.23571008  1  0  1.198631  0  1.593974  0  0  1.016215  0  2.035437  0  0  1.074632  0  1.978509  0  0  0.764284  0.974329  0  2.074702  0
Cd  Cd1  1  0.50530806  0.23570830  0.37237208  1  0  1.198603  0  1.593953  0  0  1.016226  0  2.035384  0  0  1.074641  0  1.978457  0  0  0.764295  0.974347  0  2.074644  0
Cd  Cd2  1  0.40268187  0.76423139  0.53832702  1  0  1.19615  0  1.599022  0  0  1.012865  0  2.042147  0  0  1.070712  0  1.984896  0  0  0.76693  0.971402  0  2.081487  0
Cd  Cd3  1  0.90267803  0.53832993  0.76423224  1  0  1.196202  0  1.598937  0  0  1.012923  0  2.04206  0  0  1.070769  0  1.984809  0  0  0.766946  0.97146  0  2.081399  0
H  H4  1  0.30141060  0.54121748  0.48019396  1  0  0.425217  0  0.869135  0  0  0.395505  0  0.933855  0  0  0.405628  0  0.919157  0  0  0.294118  0.388306  0  0.944306  0
H  H5  1  0.80141304  0.48019509  0.54121559  1  0  0.425234  0  0.869078  0  0  0.395528  0  0.933811  0  0  0.405651  0  0.919113  0  0  0.294121  0.388327  0  0.944264  0
H  H6  1  0.19205462  0.63723058  0.49324423  1  0  0.422718  0  0.874918  0  0  0.392725  0  0.939751  0  0  0.402831  0  0.925068  0  0  0.293061  0.38556  0  0.950156  0
H  H7  1  0.69205522  0.49324477  0.63722876  1  0  0.422743  0  0.874893  0  0  0.392749  0  0.939717  0  0  0.402855  0  0.925034  0  0  0.293065  0.385584  0  0.950125  0
H  H8  1  0.57517701  0.94887043  0.54787952  1  0  0.439022  0  0.859582  0  0  0.402588  0  0.932258  0  0  0.41455  0  0.914874  0  0  0.290796  0.394076  0  0.944606  0
H  H9  1  0.07517855  0.54788102  0.94887044  1  0  0.439061  0  0.859538  0  0  0.402617  0  0.932229  0  0  0.414579  0  0.914845  0  0  0.290817  0.394105  0  0.944578  0
H  H10  1  0.59819471  0.84901801  0.65885786  1  0  0.426616  0  0.815618  0  0  0.411792  0  0.86534  0  0  0.419794  0  0.856568  0  0  0.3245  0.40597  0  0.871864  0
H  H11  1  0.09819554  0.65885944  0.84901761  1  0  0.426613  0  0.815601  0  0  0.411788  0  0.86533  0  0  0.419791  0  0.856553  0  0  0.324481  0.405966  0  0.871852  0
H  H12  1  0.17646727  0.43486551  0.39873551  1  0  0.416333  0  0.893966  0  0  0.384853  0  0.959922  0  0  0.395371  0  0.944727  0  0  0.288158  0.377411  0  0.970665  0
H  H13  1  0.67647808  0.39873747  0.43485404  1  0  0.416303  0  0.894014  0  0  0.384836  0  0.959956  0  0  0.395361  0  0.944749  0  0  0.288147  0.377394  0  0.970699  0
H  H14  1  0.06487138  0.53053028  0.40966101  1  0  0.422032  0  0.879834  0  0  0.3909  0  0.945447  0  0  0.401711  0  0.929736  0  0  0.290633  0.383164  0  0.956676  0
H  H15  1  0.56488132  0.40965900  0.53052331  1  0  0.421971  0  0.879856  0  0  0.390851  0  0.945508  0  0  0.401656  0  0.929804  0  0  0.290622  0.383134  0  0.956726  0
H  H16  1  0.84611662  0.31594605  0.06843190  1  0  0.420554  0  0.890635  0  0  0.387086  0  0.960017  0  0  0.398839  0  0.942972  0  0  0.282961  0.378708  0  0.972155  0
H  H17  1  0.34612155  0.06843182  0.31594580  1  0  0.420523  0  0.890672  0  0  0.387049  0  0.960067  0  0  0.3988  0  0.943026  0  0  0.282965  0.378671  0  0.972202  0
H  H18  1  0.82617532  0.21953453  0.18613505  1  0  0.419335  0  0.89062  0  0  0.386424  0  0.959168  0  0  0.397915  0  0.94247  0  0  0.283374  0.378239  0  0.971033  0
H  H19  1  0.32617824  0.18613707  0.21953639  1  0  0.419187  0  0.890773  0  0  0.386272  0  0.959334  0  0  0.397765  0  0.942632  0  0  0.283329  0.378088  0  0.971198  0
H  H20  1  0.85203446  0.28628478  0.48755897  1  0  0.089934  0  0.963796  0  0  0.099019  0  1.027844  0  0  0.101819  0  1.024567  0  0  0.118457  0.096928  0  1.030206  0
H  H21  1  0.35203078  0.48755852  0.28629068  1  0  0.089937  0  0.963885  0  0  0.099002  0  1.027953  0  0  0.101809  0  1.024677  0  0  0.118424  0.096914  0  1.030315  0
H  H22  1  0.02865212  0.96245847  0.66299023  1  0  0.109378  0  0.925879  0  0  0.12081  0  0.982067  0  0  0.124405  0  0.978695  0  0  0.114893  0.118151  0  0.984549  0
H  H23  1  0.52864669  0.66299020  0.96245374  1  0  0.109328  0  0.925963  0  0  0.12081  0  0.982092  0  0  0.124404  0  0.978721  0  0  0.114872  0.118152  0  0.984573  0
H  H24  1  0.62934047  0.60568092  0.45663993  1  0  0.081799  0  1.000021  0  0  0.08669  0  1.071761  0  0  0.090467  0  1.066919  0  0  0.1152  0.083861  0  1.075383  0
H  H25  1  0.12933798  0.45664118  0.60568827  1  0  0.081783  0  1.000104  0  0  0.086714  0  1.071764  0  0  0.090489  0  1.066924  0  0  0.115218  0.083838  0  1.075441  0
H  H26  1  0.60324921  0.89502862  0.09425284  1  0  0.102927  0  0.982103  0  0  0.114801  0  1.040384  0  0  0.117082  0  1.041159  0  0  0.108938  0.113174  0  1.03996  0
H  H27  1  0.10324860  0.09425983  0.89503424  1  0  0.102918  0  0.982094  0  0  0.114764  0  1.040399  0  0  0.117046  0  1.041176  0  0  0.108963  0.113135  0  1.039977  0
H  H28  1  0.85869930  0.12636134  0.66181626  1  0  0.103641  0  0.975249  0  0  0.116003  0  1.030657  0  0  0.118492  0  1.030961  0  0  0.108862  0.114161  0  1.030754  0
H  H29  1  0.35869712  0.66181697  0.12636911  1  0  0.103619  0  0.97514  0  0  0.115977  0  1.030557  0  0  0.118473  0  1.030859  0  0  0.108904  0.11414  0  1.030649  0
H  H30  1  0.76746981  0.72541718  0.09738647  1  0  0.111056  0  0.932381  0  0  0.121599  0  0.990934  0  0  0.124888  0  0.987777  0  0  0.11666  0.11914  0  0.993305  0
H  H31  1  0.26746809  0.09738857  0.72541934  1  0  0.111084  0  0.932376  0  0  0.121628  0  0.990926  0  0  0.124917  0  0.987769  0  0  0.116665  0.119168  0  0.993297  0
H  H32  1  0.57332147  0.32887974  0.72320248  1  0  0.101254  0  0.978763  0  0  0.112745  0  1.042241  0  0  0.115768  0  1.039975  0  0  0.106612  0.110582  0  1.043843  0
H  H33  1  0.07331884  0.72320571  0.32888213  1  0  0.101307  0  0.978752  0  0  0.1128  0  1.042217  0  0  0.115823  0  1.039953  0  0  0.106661  0.110648  0  1.043792  0
H  H34  1  0.37113799  0.16764993  0.03678628  1  0  0.096681  0  0.976043  0  0  0.109302  0  1.037786  0  0  0.112299  0  1.035621  0  0  0.104645  0.107058  0  1.039491  0
H  H35  1  0.87114466  0.03678910  0.16765324  1  0  0.096676  0  0.976065  0  0  0.109292  0  1.037812  0  0  0.112321  0  1.035607  0  0  0.104643  0.107042  0  1.039532  0
H  H36  1  0.15649655  0.13086169  0.31675951  1  0  0.080882  0  0.983488  0  0  0.089256  0  1.051642  0  0  0.092118  0  1.048193  0  0  0.119519  0.087142  0  1.054114  0
H  H37  1  0.65648904  0.31676243  0.13086499  1  0  0.080966  0  0.983454  0  0  0.089407  0  1.051522  0  0  0.092269  0  1.048073  0  0  0.119574  0.087296  0  1.053996  0
H  H38  1  0.71603732  0.03381812  0.98350846  1  0  0.091687  0  0.962258  0  0  0.114715  0  1.022856  0  0  0.115576  0  1.023396  0  0  0.083483  0.11405  0  1.022553  0
H  H39  1  0.21604130  0.98350846  0.03381696  1  0  0.091698  0  0.962301  0  0  0.114758  0  1.022861  0  0  0.115619  0  1.023403  0  0  0.0835  0.114091  0  1.02256  0
H  H40  1  0.60322404  0.11282101  0.07032542  1  0  0.108128  0  0.956132  0  0  0.127104  0  1.021409  0  0  0.128441  0  1.02178  0  0  0.085062  0.126104  0  1.021202  0
H  H41  1  0.10322640  0.07032194  0.11282231  1  0  0.108111  0  0.956186  0  0  0.12709  0  1.021455  0  0  0.128422  0  1.021829  0  0  0.085067  0.12609  0  1.021245  0
H  H42  1  0.70878516  0.19340058  0.96885842  1  0  0.106972  0  0.967321  0  0  0.126017  0  1.032533  0  0  0.127719  0  1.032533  0  0  0.084681  0.124701  0  1.032703  0
H  H43  1  0.20878782  0.96885795  0.19340011  1  0  0.107052  0  0.967208  0  0  0.126083  0  1.032432  0  0  0.127786  0  1.032435  0  0  0.084717  0.124769  0  1.032598  0
H  H44  1  0.69829934  0.03070329  0.76341719  1  0  0.092537  0  0.948063  0  0  0.1153  0  1.006658  0  0  0.116761  0  1.006319  0  0  0.084644  0.114256  0  1.00689  0
H  H45  1  0.19829853  0.76341448  0.03070228  1  0  0.092562  0  0.948001  0  0  0.115316  0  1.006607  0  0  0.116773  0  1.006274  0  0  0.08466  0.114271  0  1.006841  0
H  H46  1  0.70440211  0.18993128  0.74712645  1  0  0.098703  0  0.959997  0  0  0.121635  0  1.017919  0  0  0.123116  0  1.017196  0  0  0.087406  0.120544  0  1.018499  0
H  H47  1  0.20440162  0.74712459  0.18993139  1  0  0.098719  0  0.960018  0  0  0.121654  0  1.017927  0  0  0.123131  0  1.017209  0  0  0.087416  0.120558  0  1.018512  0
H  H48  1  0.58513271  0.12239454  0.68255368  1  0  0.120798  0  0.950172  0  0  0.139966  0  1.01292  0  0  0.141801  0  1.012841  0  0  0.091124  0.138622  0  1.013071  0
H  H49  1  0.08513099  0.68255364  0.12239499  1  0  0.120826  0  0.950136  0  0  0.140011  0  1.012874  0  0  0.141855  0  1.012771  0  0  0.091127  0.138665  0  1.01303  0
H  H50  1  0.45805087  0.90538405  0.27366349  1  0  0.09353  0  0.956312  0  0  0.103245  0  1.01862  0  0  0.106037  0  1.015452  0  0  0.120223  0.10108  0  1.021157  0
H  H51  1  0.95804753  0.27366188  0.90539008  1  0  0.093635  0  0.956289  0  0  0.103334  0  1.018603  0  0  0.106125  0  1.015433  0  0  0.120261  0.101167  0  1.02114  0
H  H52  1  0.54869095  0.92395547  0.89858079  1  0  0.094816  0  0.950793  0  0  0.118609  0  1.008257  0  0  0.119977  0  1.00812  0  0  0.0861  0.117623  0  1.008349  0
H  H53  1  0.04869268  0.89858143  0.92395360  1  0  0.094805  0  0.950782  0  0  0.118591  0  1.008252  0  0  0.119959  0  1.008116  0  0  0.086073  0.117602  0  1.008347  0
H  H54  1  0.42598434  0.00523335  0.82476972  1  0  0.108599  0  0.952955  0  0  0.130137  0  1.013016  0  0  0.131909  0  1.012351  0  0  0.088094  0.128845  0  1.013528  0
H  H55  1  0.92598744  0.82476983  0.00523491  1  0  0.108623  0  0.952962  0  0  0.130164  0  1.013014  0  0  0.131935  0  1.012352  0  0  0.088108  0.12887  0  1.013527  0
H  H56  1  0.43302736  0.99996869  0.98382817  1  0  0.09246  0  0.971366  0  0  0.113561  0  1.03461  0  0  0.114859  0  1.034512  0  0  0.083492  0.112561  0  1.034785  0
H  H57  1  0.93303250  0.98382808  0.99997007  1  0  0.092442  0  0.971359  0  0  0.113551  0  1.034598  0  0  0.114847  0  1.034504  0  0  0.083517  0.112547  0  1.034774  0
H  H58  1  0.27739219  0.53032202  0.88679328  1  0  0.091439  0  0.971428  0  0  0.099055  0  1.041566  0  0  0.103212  0  1.037358  0  0  0.102729  0.096059  0  1.044586  0
H  H59  1  0.77738665  0.88679442  0.53032465  1  0  0.091367  0  0.971539  0  0  0.099008  0  1.04165  0  0  0.103166  0  1.037438  0  0  0.102734  0.096013  0  1.04467  0
C  C60  1  0.92274011  0.21363203  0.49065716  1  0  0.144296  0  3.673594  0  0  0.108864  0  3.928243  0  0  0.117938  0  3.945225  0  0  0.049826  0.103115  0  3.916555  0
C  C61  1  0.42273183  0.49065889  0.21363531  1  0  0.144278  0  3.673484  0  0  0.108831  0  3.928157  0  0  0.117894  0  3.94515  0  0  0.049873  0.103082  0  3.916472  0
C  C62  1  0.48215737  0.23270320  0.87897686  1  0  0.040748  0  3.648606  0  0  0.067698  0  3.875271  0  0  0.064518  0  3.900158  0  0  0.000196  0.069615  0  3.858376  0
C  C63  1  0.98215544  0.87897685  0.23270578  1  0  0.040876  0  3.64851  0  0  0.06781  0  3.8752  0  0  0.064633  0  3.900086  0  0  0.000217  0.069724  0  3.858309  0
C  C64  1  0.02091066  0.03433847  0.58883252  1  0  0.000195  0  3.693698  0  0  -0.030599  0  3.943857  0  0  -0.024512  0  3.960749  0  0  -0.055078  -0.034179  0  3.932242  0
C  C65  1  0.52090403  0.58883336  0.03433884  1  0  9.3e-05  0  3.693866  0  0  -0.030749  0  3.944037  0  0  -0.024659  0  3.96093  0  0  -0.055123  -0.034332  0  3.932428  0
C  C66  1  0.62710230  0.66689479  0.37388318  1  0  0.121497  0  3.683293  0  0  0.07974  0  3.932322  0  0  0.088743  0  3.950331  0  0  0.050078  0.074054  0  3.919998  0
C  C67  1  0.12709824  0.37388714  0.66689917  1  0  0.12158  0  3.683174  0  0  0.079815  0  3.932175  0  0  0.088818  0  3.950186  0  0  0.050091  0.074159  0  3.919875  0
C  C68  1  0.61253878  0.82837362  0.17232511  1  0  -0.126448  0  3.732295  0  0  -0.136348  0  3.983867  0  0  -0.145724  0  4.006442  0  0  -0.081866  -0.130426  0  3.968712  0
C  C69  1  0.11253422  0.17232976  0.82838132  1  0  -0.126248  0  3.732185  0  0  -0.136115  0  3.983733  0  0  -0.145494  0  4.006314  0  0  -0.081811  -0.130195  0  3.968578  0
C  C70  1  0.92746716  0.12422054  0.58792900  1  0  -0.117404  0  3.727099  0  0  -0.127742  0  3.977645  0  0  -0.136611  0  4.000322  0  0  -0.081914  -0.122182  0  3.962498  0
C  C71  1  0.42746095  0.58792393  0.12422356  1  0  -0.117344  0  3.727125  0  0  -0.127672  0  3.977695  0  0  -0.13655  0  4.000381  0  0  -0.08198  -0.122114  0  3.962549  0
C  C72  1  0.10758113  0.03645109  0.49172950  1  0  -0.111686  0  3.741243  0  0  -0.08503  0  3.978288  0  0  -0.098638  0  4.002889  0  0  -0.0104  -0.076527  0  3.962097  0
C  C73  1  0.60757820  0.49172966  0.03645308  1  0  -0.111602  0  3.741373  0  0  -0.084928  0  3.978426  0  0  -0.098535  0  4.003025  0  0  -0.010335  -0.076423  0  3.962237  0
C  C74  1  0.80483442  0.54910492  0.28309817  1  0  0.651263  0  3.925854  0  0  0.596604  0  4.221168  0  0  0.630905  0  4.216548  0  0  0.206418  0.573449  0  4.223425  0
C  C75  1  0.30483112  0.28310763  0.54910359  1  0  0.651171  0  3.925979  0  0  0.596493  0  4.2213  0  0  0.630799  0  4.216681  0  0  0.206418  0.57334  0  4.223555  0
C  C76  1  0.70346072  0.73585182  0.17417704  1  0  0.006835  0  3.682817  0  0  -0.025799  0  3.935244  0  0  -0.019189  0  3.952199  0  0  -0.051536  -0.029657  0  3.923556  0
C  C77  1  0.20345659  0.17418418  0.73585577  1  0  0.006699  0  3.682964  0  0  -0.025956  0  3.935386  0  0  -0.019348  0  3.952347  0  0  -0.051583  -0.029817  0  3.923699  0
C  C78  1  0.21424324  0.94591011  0.49292028  1  0  0.650605  0  3.929908  0  0  0.597359  0  4.223669  0  0  0.632175  0  4.219023  0  0  0.201785  0.573789  0  4.226026  0
C  C79  1  0.71423418  0.49291671  0.94590844  1  0  0.650507  0  3.929906  0  0  0.597223  0  4.223714  0  0  0.632036  0  4.219075  0  0  0.201719  0.573651  0  4.226068  0
C  C80  1  0.42818382  0.43953648  0.79677175  1  0  -0.074814  0  3.782073  0  0  -0.049604  0  4.023651  0  0  -0.059826  0  4.048436  0  0  -0.02592  -0.04313  0  4.007061  0
C  C81  1  0.92818760  0.79677764  0.43954035  1  0  -0.074906  0  3.782317  0  0  -0.049699  0  4.023886  0  0  -0.059934  0  4.048686  0  0  -0.025916  -0.043224  0  4.007298  0
C  C82  1  0.45141020  0.54528494  0.70494153  1  0  0.654802  0  3.911615  0  0  0.600927  0  4.206376  0  0  0.635871  0  4.199507  0  0  0.202855  0.577302  0  4.21016  0
C  C83  1  0.95140154  0.70495208  0.54529083  1  0  0.654755  0  3.911903  0  0  0.600921  0  4.206605  0  0  0.635864  0  4.199737  0  0  0.202863  0.577291  0  4.210392  0
C  C84  1  0.50082969  0.33262150  0.79373489  1  0  -0.088877  0  3.668018  0  0  -0.126627  0  3.913792  0  0  -0.125252  0  3.933953  0  0  -0.079393  -0.127178  0  3.900072  0
C  C85  1  0.00082611  0.79373817  0.33262375  1  0  -0.088845  0  3.668118  0  0  -0.126599  0  3.913899  0  0  -0.125222  0  3.934064  0  0  -0.079407  -0.127149  0  3.900187  0
C  C86  1  0.71113205  0.65272470  0.27717690  1  0  -0.114461  0  3.746501  0  0  -0.087774  0  3.984893  0  0  -0.101599  0  4.010208  0  0  -0.013058  -0.079154  0  3.968146  0
C  C87  1  0.21112703  0.27717894  0.65272869  1  0  -0.114513  0  3.746486  0  0  -0.087793  0  3.984829  0  0  -0.101623  0  4.01015  0  0  -0.013126  -0.079176  0  3.968073  0
C  C88  1  0.38782725  0.24302939  0.96816046  1  0  -0.092895  0  3.670983  0  0  -0.126986  0  3.913259  0  0  -0.125981  0  3.933691  0  0  -0.078646  -0.127254  0  3.899358  0
C  C89  1  0.88782724  0.96816199  0.24303104  1  0  -0.092828  0  3.670936  0  0  -0.126967  0  3.913162  0  0  -0.125947  0  3.933621  0  0  -0.078585  -0.127235  0  3.899259  0
C  C90  1  0.31242858  0.34845622  0.97145806  1  0  -0.078944  0  3.789883  0  0  -0.05284  0  4.029121  0  0  -0.062434  0  4.053585  0  0  -0.023383  -0.046658  0  4.012606  0
C  C91  1  0.81242627  0.97145840  0.34845949  1  0  -0.079078  0  3.790086  0  0  -0.052774  0  4.029084  0  0  -0.062499  0  4.053723  0  0  -0.023381  -0.046594  0  4.012573  0
C  C92  1  0.09384384  0.12722165  0.39595298  1  0  0.12822  0  3.675707  0  0  0.086888  0  3.923953  0  0  0.096121  0  3.942351  0  0  0.054043  0.081043  0  3.911418  0
C  C93  1  0.59383763  0.39596102  0.12722441  1  0  0.128014  0  3.676145  0  0  0.086641  0  3.924366  0  0  0.095875  0  3.942765  0  0  0.053952  0.080792  0  3.911832  0
C  C94  1  0.65292209  0.11421969  0.98205933  1  0  -0.350069  0  3.64488  0  0  -0.428319  0  3.880567  0  0  -0.432045  0  3.891641  0  0  -0.247484  -0.425388  0  3.872865  0
C  C95  1  0.15292552  0.98205677  0.11421941  1  0  -0.350166  0  3.644937  0  0  -0.42843  0  3.880638  0  0  -0.432147  0  3.891695  0  0  -0.24754  -0.425497  0  3.872939  0
C  C96  1  0.64211361  0.11565627  0.76058589  1  0  -0.34691  0  3.67013  0  0  -0.426712  0  3.908073  0  0  -0.429753  0  3.917919  0  0  -0.244908  -0.424298  0  3.901122  0
C  C97  1  0.14211275  0.76058536  0.11565671  1  0  -0.34697  0  3.670092  0  0  -0.426777  0  3.908037  0  0  -0.429819  0  3.917893  0  0  -0.244934  -0.424366  0  3.901094  0
C  C98  1  0.53114613  0.83512962  0.27197201  1  0  0.145041  0  3.673899  0  0  0.109226  0  3.92657  0  0  0.118715  0  3.943464  0  0  0.054424  0.103196  0  3.915065  0
C  C99  1  0.03114009  0.27197546  0.83513275  1  0  0.144831  0  3.673936  0  0  0.109045  0  3.926582  0  0  0.118531  0  3.943477  0  0  0.054332  0.103015  0  3.915076  0
C  C100  1  0.48783478  0.00582401  0.89814723  1  0  -0.341985  0  3.66951  0  0  -0.421861  0  3.905077  0  0  -0.424972  0  3.915523  0  0  -0.242124  -0.419396  0  3.897752  0
C  C101  1  0.98783740  0.89814606  0.00582521  1  0  -0.341962  0  3.669488  0  0  -0.421829  0  3.905043  0  0  -0.424942  0  3.915496  0  0  -0.242119  -0.419363  0  3.897722  0
C  C102  1  0.33311192  0.44684089  0.88504687  1  0  -0.07191  0  3.730353  0  0  -0.111161  0  3.983462  0  0  -0.108559  0  4.003215  0  0  -0.082644  -0.112466  0  3.969949  0
C  C103  1  0.83310779  0.88504796  0.44684480  1  0  -0.071808  0  3.730458  0  0  -0.111155  0  3.983538  0  0  -0.108508  0  4.003326  0  0  -0.082689  -0.112461  0  3.970028  0
C  C104  1  0.56497305  0.11757512  0.87915750  1  0  0.208143  0  3.595331  0  0  0.241402  0  3.817966  0  0  0.242011  0  3.839103  0  0  -0.013195  0.240843  0  3.803936  0
C  C105  1  0.06497481  0.87915682  0.11757706  1  0  0.208008  0  3.595415  0  0  0.241242  0  3.818119  0  0  0.241859  0  3.839235  0  0  -0.013306  0.240684  0  3.804089  0
C  C106  1  0.21078666  0.35509874  0.06647076  1  0  0.648944  0  3.897456  0  0  0.59483  0  4.188533  0  0  0.62919  0  4.183378  0  0  0.206052  0.571528  0  4.191193  0
C  C107  1  0.71078460  0.06647092  0.35510222  1  0  0.649085  0  3.897484  0  0  0.59492  0  4.188556  0  0  0.629316  0  4.183407  0  0  0.206074  0.571618  0  4.191219  0
N  N108  1  0.53838961  0.75534551  0.37158400  1  0  -0.347963  0  3.272621  0  0  -0.266503  0  3.544577  0  0  -0.289249  0  3.563404  0  0  -0.327885  -0.250939  0  3.53114  0
N  N109  1  0.03838429  0.37158452  0.75534755  1  0  -0.347996  0  3.272681  0  0  -0.266572  0  3.544652  0  0  -0.289317  0  3.563479  0  0  -0.327894  -0.251009  0  3.531202  0
N  N110  1  0.00416753  0.21469211  0.39539240  1  0  -0.354311  0  3.255992  0  0  -0.27602  0  3.528007  0  0  -0.298218  0  3.54666  0  0  -0.32955  -0.260882  0  3.514891  0
N  N111  1  0.50416696  0.39539341  0.21469606  1  0  -0.354149  0  3.255909  0  0  -0.275842  0  3.527916  0  0  -0.298039  0  3.546573  0  0  -0.32949  -0.260706  0  3.514804  0
O  O112  1  0.22025919  0.86681380  0.58432981  1  0  -0.623598  0  1.929413  0  0  -0.558802  0  2.15819  0  0  -0.588186  0  2.148269  0  0  -0.329434  -0.538312  0  2.164361  0
O  O113  1  0.72024506  0.58431961  0.86680115  1  0  -0.623544  0  1.929326  0  0  -0.558736  0  2.158111  0  0  -0.588118  0  2.148196  0  0  -0.329398  -0.538246  0  2.16428  0
O  O114  1  0.12430489  0.43705215  0.05232784  1  0  -0.643569  0  1.999016  0  0  -0.567746  0  2.230738  0  0  -0.598012  0  2.221466  0  0  -0.311986  -0.546484  0  2.236601  0
O  O115  1  0.62430279  0.05232888  0.43705086  1  0  -0.643542  0  1.999102  0  0  -0.567758  0  2.23089  0  0  -0.598017  0  2.2216  0  0  -0.311972  -0.546498  0  2.236756  0
O  O116  1  0.27962799  0.62827680  0.46571731  1  0  -0.834626  0  1.873429  0  0  -0.776669  0  2.070241  0  0  -0.798288  0  2.037203  0  0  -0.591985  -0.761295  0  2.093195  0
O  O117  1  0.77962924  0.46571876  0.62827588  1  0  -0.834657  0  1.87337  0  0  -0.776693  0  2.070192  0  0  -0.798312  0  2.037149  0  0  -0.591984  -0.76132  0  2.09315  0
O  O118  1  0.29463605  0.95093736  0.40539636  1  0  -0.658056  0  1.991072  0  0  -0.592962  0  2.221606  0  0  -0.621484  0  2.211766  0  0  -0.318788  -0.572824  0  2.227876  0
O  O119  1  0.79463675  0.40539940  0.95093519  1  0  -0.657994  0  1.99098  0  0  -0.592904  0  2.221545  0  0  -0.621427  0  2.211708  0  0  -0.318754  -0.572764  0  2.227813  0
O  O120  1  0.53384536  0.89333810  0.61293750  1  0  -0.820583  0  1.831013  0  0  -0.763461  0  2.022925  0  0  -0.78466  0  1.992559  0  0  -0.570245  -0.748436  0  2.044174  0
O  O121  1  0.03384641  0.61293629  0.89333872  1  0  -0.820618  0  1.830972  0  0  -0.763494  0  2.022887  0  0  -0.784694  0  1.992522  0  0  -0.570242  -0.748471  0  2.044134  0
O  O122  1  0.39097693  0.64397300  0.71812105  1  0  -0.633343  0  1.95977  0  0  -0.566449  0  2.19429  0  0  -0.595319  0  2.182526  0  0  -0.332315  -0.546209  0  2.201588  0
O  O123  1  0.89096759  0.71812281  0.64397697  1  0  -0.633379  0  1.960104  0  0  -0.56649  0  2.194612  0  0  -0.595362  0  2.18285  0  0  -0.332353  -0.54625  0  2.201912  0
O  O124  1  0.52862668  0.53235224  0.61602696  1  0  -0.69452  0  2.026514  0  0  -0.624406  0  2.249501  0  0  -0.651304  0  2.237753  0  0  -0.328101  -0.605475  0  2.257003  0
O  O125  1  0.02862560  0.61603638  0.53236065  1  0  -0.694455  0  2.026353  0  0  -0.62439  0  2.249364  0  0  -0.651279  0  2.237606  0  0  -0.328069  -0.605456  0  2.256869  0
O  O126  1  0.80522720  0.47189488  0.37726279  1  0  -0.688505  0  2.017032  0  0  -0.619618  0  2.243092  0  0  -0.646797  0  2.232201  0  0  -0.325458  -0.60049  0  2.249953  0
O  O127  1  0.30522387  0.37726816  0.47189246  1  0  -0.688356  0  2.017106  0  0  -0.619448  0  2.243155  0  0  -0.646626  0  2.23227  0  0  -0.325376  -0.600322  0  2.250011  0
O  O128  1  0.11020551  0.48044661  0.35268424  1  0  -0.841333  0  1.902791  0  0  -0.782218  0  2.108543  0  0  -0.804585  0  2.073943  0  0  -0.596063  -0.766308  0  2.132726  0
O  O129  1  0.61021739  0.35268254  0.48043969  1  0  -0.841254  0  1.902783  0  0  -0.78221  0  2.108608  0  0  -0.804573  0  2.074015  0  0  -0.596047  -0.766322  0  2.132731  0
O  O130  1  0.89017316  0.25975842  0.13023142  1  0  -0.851892  0  1.866038  0  0  -0.792786  0  2.071676  0  0  -0.816213  0  2.035651  0  0  -0.594372  -0.776138  0  2.096886  0
O  O131  1  0.39017724  0.13023522  0.25975767  1  0  -0.851718  0  1.866128  0  0  -0.792588  0  2.071703  0  0  -0.816014  0  2.035677  0  0  -0.594337  -0.775944  0  2.096907  0
O  O132  1  0.87900063  0.54239389  0.19244175  1  0  -0.601537  0  1.969764  0  0  -0.535833  0  2.208439  0  0  -0.565203  0  2.200146  0  0  -0.311328  -0.515274  0  2.213456  0
O  O133  1  0.37899476  0.19244781  0.54239166  1  0  -0.60157  0  1.969662  0  0  -0.535895  0  2.208373  0  0  -0.565265  0  2.200078  0  0  -0.311387  -0.515336  0  2.213391  0
O  O134  1  0.21067452  0.27848071  0.16058095  1  0  -0.654181  0  1.998536  0  0  -0.583155  0  2.230517  0  0  -0.612279  0  2.221488  0  0  -0.316257  -0.562732  0  2.236113  0
O  O135  1  0.71067185  0.16058147  0.27848134  1  0  -0.654297  0  1.998451  0  0  -0.583295  0  2.230485  0  0  -0.612416  0  2.221443  0  0  -0.316297  -0.562869  0  2.236086  0
