# generated using pymatgen
data_NiH12C8(NO)6
_symmetry_space_group_name_H-M   'P 1'
_cell_length_a   7.65534366
_cell_length_b   7.74159171
_cell_length_c   12.42742051
_cell_angle_alpha   90.00000223
_cell_angle_beta   89.99999634
_cell_angle_gamma   117.67655562
_symmetry_Int_Tables_number   1
_chemical_formula_structural   NiH12C8(NO)6
_chemical_formula_sum   'Ni2 H24 C16 N12 O12'
_cell_volume   652.23723894
_cell_formula_units_Z   2
loop_
 _symmetry_equiv_pos_site_id
 _symmetry_equiv_pos_as_xyz
  1  'x, y, z'
loop_
 _atom_site_type_symbol
 _atom_site_label
 _atom_site_symmetry_multiplicity
 _atom_site_fract_x
 _atom_site_fract_y
 _atom_site_fract_z
 _atom_site_occupancy
 _atom_site_hle17_ddec_charge
 _atom_site_hle17_ddec_spin_density
 _atom_site_hle17_ddec_sum_bond_order
 _atom_site_hle17_magmom
 _atom_site_hse06_10hf_ddec_charge
 _atom_site_hse06_10hf_ddec_spin_density
 _atom_site_hse06_10hf_ddec_sum_bond_order
 _atom_site_hse06_10hf_magmom
 _atom_site_hse06_ddec_charge
 _atom_site_hse06_ddec_spin_density
 _atom_site_hse06_ddec_sum_bond_order
 _atom_site_hse06_magmom
 _atom_site_pbe_cm5_charge
 _atom_site_pbe_ddec_charge
 _atom_site_pbe_ddec_spin_density
 _atom_site_pbe_ddec_sum_bond_order
 _atom_site_pbe_magmom
Ni  Ni0  1  0.49999877  0.49999892  0.49999998  1  0.898451  1.770911  2.001295  1.535  0.906026  1.827226  2.387585  1.648  0.988393  1.87553  2.319126  1.727  0.637952  0.841451  1.783389  2.441718  1.58
Ni  Ni1  1  0.49999966  0.00000078  0.99999995  1  0.898515  1.770917  2.001184  1.535  0.906094  1.827228  2.387465  1.648  0.988436  1.875525  2.319037  1.727  0.63796  0.841522  1.783392  2.441597  1.58
H  H2  1  0.38185375  0.10065669  0.75402212  1  0.106551  -9.5e-05  0.921493  0.0  0.115902  4e-06  0.980221  0.0  0.118278  -1.4e-05  0.977607  0.0  0.140088  0.113997  2.4e-05  0.982323  0.0
H  H3  1  0.61814600  0.39934299  0.25402214  1  0.10655  -9.4e-05  0.921495  0.0  0.115899  4e-06  0.980225  0.0  0.118275  -1.4e-05  0.977611  0.0  0.140089  0.113996  2.4e-05  0.982328  0.0
H  H4  1  0.61814590  0.89934552  0.24597784  1  0.10656  -9.5e-05  0.921489  0.0  0.115911  4e-06  0.980215  0.0  0.118286  -1.4e-05  0.977602  0.0  0.140091  0.114007  2.4e-05  0.982318  0.0
H  H5  1  0.38185613  0.60065624  0.74597862  1  0.106566  -9.6e-05  0.921483  0.0  0.115919  4e-06  0.980204  0.0  0.118294  -1.4e-05  0.977591  0.0  0.140098  0.114014  2.4e-05  0.982306  0.0
H  H6  1  0.86517417  0.02057900  0.85480087  1  0.122683  -0.000133  0.974472  0.0  0.126986  -4.4e-05  1.043987  0.0  0.131056  -4.4e-05  1.038843  0.0  0.141063  0.123797  -4.1e-05  1.047978  0.0
H  H7  1  0.13482757  0.47942212  0.35480171  1  0.122681  -0.000133  0.974473  0.0  0.126981  -4.4e-05  1.043992  0.0  0.131051  -4.4e-05  1.038848  0.0  0.141066  0.123791  -4.1e-05  1.047982  0.0
H  H8  1  0.13482677  0.97942319  0.14519828  1  0.122693  -0.000131  0.974467  0.0  0.12699  -4.4e-05  1.043986  0.0  0.131063  -4.4e-05  1.038837  0.0  0.141069  0.123802  -4.1e-05  1.047977  0.0
H  H9  1  0.86517326  0.52057713  0.64519905  1  0.122683  -0.000131  0.974484  0.0  0.126979  -4.4e-05  1.044005  0.0  0.131052  -4.4e-05  1.038857  0.0  0.141066  0.123789  -4.1e-05  1.047996  0.0
H  H10  1  0.85443711  0.99333632  0.55960285  1  0.143816  -0.000375  0.920765  0.0  0.155241  -6.5e-05  0.980287  0.0  0.15907  -8.2e-05  0.977476  0.0  0.128431  0.152351  -2.8e-05  0.982458  0.0
H  H11  1  0.14556494  0.50666544  0.05960207  1  0.143833  -0.000371  0.92073  0.0  0.155251  -6.5e-05  0.980249  0.0  0.159095  -8.2e-05  0.977421  0.0  0.128441  0.152369  -2.8e-05  0.982424  0.0
H  H12  1  0.14556313  0.00666441  0.44039710  1  0.143804  -0.000381  0.920749  0.0  0.155237  -6.5e-05  0.980261  0.0  0.159066  -8.1e-05  0.97745  0.0  0.128425  0.152357  -2.8e-05  0.982435  0.0
H  H13  1  0.85443860  0.49333671  0.94039627  1  0.143778  -0.000376  0.920753  0.0  0.15521  -6.5e-05  0.980284  0.0  0.159039  -8.2e-05  0.977472  0.0  0.128413  0.152332  -2.8e-05  0.982463  0.0
H  H14  1  0.99407344  0.00140909  0.67478603  1  0.121833  -0.000586  0.914223  0.0  0.132726  -0.000195  0.977901  0.0  0.135438  -0.000152  0.975959  0.0  0.124853  0.130772  -0.000235  0.979301  0.0
H  H15  1  0.00592692  0.49858911  0.17478688  1  0.121841  -0.000583  0.914235  0.0  0.13272  -0.000195  0.977928  0.0  0.135431  -0.000153  0.97599  0.0  0.124845  0.130776  -0.000234  0.979334  0.0
H  H16  1  0.00592340  0.99858728  0.32521312  1  0.121837  -0.000591  0.914242  0.0  0.132708  -0.000195  0.977955  0.0  0.13542  -0.000152  0.976013  0.0  0.124846  0.130764  -0.000234  0.979361  0.0
H  H17  1  0.99407521  0.50141012  0.82521227  1  0.121803  -0.000587  0.914239  0.0  0.132704  -0.000195  0.977922  0.0  0.135416  -0.000152  0.975979  0.0  0.124856  0.130762  -0.000235  0.979328  0.0
H  H18  1  0.73547140  0.37608133  0.44360050  1  0.403749  -0.000691  0.903305  -0.001  0.37484  -3.2e-05  0.967724  0.0  0.386562  -0.000213  0.950869  0.0  0.283892  0.366444  0.000172  0.979713  0.0
H  H19  1  0.26452963  0.12391833  0.94360048  1  0.403728  -0.000691  0.903345  -0.001  0.374841  -3.2e-05  0.967725  0.0  0.386565  -0.000213  0.950866  0.0  0.283887  0.366445  0.000172  0.979714  0.0
H  H20  1  0.26452813  0.62391794  0.55640026  1  0.403756  -0.000691  0.903295  -0.001  0.374846  -3.2e-05  0.967714  0.0  0.386568  -0.000213  0.95086  0.0  0.28389  0.366448  0.000172  0.979705  0.0
H  H21  1  0.73547191  0.87608238  0.05640028  1  0.403753  -0.000691  0.903299  -0.001  0.374843  -3.2e-05  0.96772  0.0  0.386565  -0.000213  0.950864  0.0  0.28389  0.366446  0.000172  0.97971  0.0
H  H22  1  0.61423626  0.22390877  0.53964617  1  0.392537  0.000128  0.917366  0.0  0.356286  0.000672  0.993554  0.001  0.367767  0.000416  0.977201  0.0  0.285194  0.347998  0.000924  1.005286  0.001
H  H23  1  0.38576352  0.27609091  0.03964620  1  0.392541  0.000128  0.917349  0.0  0.356292  0.000672  0.993541  0.001  0.367773  0.000415  0.977188  0.0  0.285199  0.348006  0.000924  1.005272  0.001
H  H24  1  0.38576268  0.77609198  0.46035459  1  0.392533  0.000128  0.917369  0.0  0.356281  0.000672  0.993559  0.001  0.367763  0.000415  0.977206  0.0  0.285193  0.347995  0.000924  1.005291  0.001
H  H25  1  0.61423802  0.72390980  0.96035456  1  0.392539  0.000128  0.917361  0.0  0.356287  0.000672  0.993551  0.001  0.36777  0.000415  0.977197  0.0  0.2852  0.348001  0.000924  1.005283  0.001
C  C26  1  0.09157200  0.28059695  0.59965864  1  0.671396  -0.006378  3.874742  -0.005  0.629647  -0.001711  4.184026  -0.001  0.664262  -0.001555  4.177825  -0.001  0.210755  0.605503  -0.001895  4.187086  -0.002
C  C27  1  0.90842647  0.21940275  0.09965864  1  0.671387  -0.006375  3.874723  -0.005  0.629645  -0.001711  4.183995  -0.001  0.66426  -0.001554  4.177795  -0.001  0.210748  0.605513  -0.001894  4.187053  -0.002
C  C28  1  0.90842613  0.71939940  0.40034212  1  0.671302  -0.006385  3.874797  -0.005  0.62955  -0.00171  4.184099  -0.001  0.664167  -0.001553  4.177899  -0.001  0.210701  0.605418  -0.001895  4.187158  -0.002
C  C29  1  0.09157307  0.78059653  0.90034131  1  0.671387  -0.006376  3.874723  -0.005  0.629654  -0.001711  4.184  -0.001  0.664271  -0.001555  4.177795  -0.001  0.210757  0.605525  -0.001894  4.187057  -0.002
C  C30  1  0.51719136  0.08820966  0.75391831  1  0.21282  -0.005348  3.659869  -0.003  0.157979  -0.001756  3.952594  -0.001  0.171649  -0.002135  3.963951  -0.001  0.152432  0.148775  -0.001541  3.944843  0.0
C  C31  1  0.48280909  0.41179148  0.25391914  1  0.212821  -0.005334  3.659938  -0.003  0.157975  -0.001758  3.952666  -0.001  0.171643  -0.00214  3.964028  -0.001  0.15242  0.148772  -0.001541  3.944918  0.0
C  C32  1  0.48280958  0.91179253  0.24608164  1  0.212811  -0.005356  3.659866  -0.003  0.157972  -0.001757  3.952595  -0.001  0.17164  -0.002139  3.963951  -0.001  0.15242  0.148768  -0.00154  3.944846  0.0
C  C33  1  0.51718904  0.58820488  0.74608162  1  0.212831  -0.005329  3.659842  -0.003  0.157983  -0.001758  3.952569  -0.001  0.171652  -0.002142  3.963925  -0.001  0.152414  0.148779  -0.001541  3.944818  0.0
C  C34  1  0.76122876  0.05031016  0.80881305  1  0.154025  -0.009225  3.634292  -0.005  0.075485  -0.003555  3.911892  -0.002  0.090618  -0.004004  3.923004  -0.002  0.160433  0.065573  -0.003319  3.904168  -0.001
C  C35  1  0.23877299  0.44969096  0.30881308  1  0.154025  -0.009206  3.634308  -0.005  0.075486  -0.003557  3.911901  -0.002  0.090618  -0.004006  3.923016  -0.002  0.160418  0.065579  -0.003319  3.904172  -0.001
C  C36  1  0.23877219  0.94969203  0.19118691  1  0.154007  -0.009268  3.634302  -0.005  0.075475  -0.003555  3.911899  -0.002  0.090608  -0.004004  3.923008  -0.002  0.160421  0.065564  -0.003319  3.904173  -0.001
C  C37  1  0.76122784  0.55030829  0.69118607  1  0.154046  -0.009234  3.634304  -0.005  0.07551  -0.003555  3.911897  -0.002  0.090643  -0.004004  3.923006  -0.002  0.160448  0.0656  -0.003319  3.904165  -0.001
C  C38  1  0.92660437  0.07927460  0.63181573  1  -0.183486  0.005815  3.609993  0.007  -0.256766  0.003461  3.856089  0.004  -0.258699  0.002409  3.860757  0.003  -0.050773  -0.254975  0.004558  3.852981  0.005
C  C39  1  0.07339281  0.42072512  0.13181577  1  -0.183522  0.005809  3.609911  0.007  -0.256789  0.00346  3.85603  0.004  -0.258735  0.002407  3.860692  0.003  -0.050772  -0.255035  0.004558  3.852969  0.005
C  C40  1  0.07339387  0.92072469  0.36818422  1  -0.183426  0.005828  3.609907  0.007  -0.256706  0.00346  3.856019  0.004  -0.258638  0.002407  3.860686  0.003  -0.050755  -0.254964  0.004559  3.852968  0.005
C  C41  1  0.92660473  0.57927272  0.86818338  1  -0.18337  0.005819  3.609851  0.007  -0.256691  0.003461  3.855991  0.004  -0.258621  0.002408  3.860655  0.003  -0.050743  -0.254953  0.004559  3.852944  0.005
N  N42  1  0.59709195  0.05194775  0.84390480  1  -0.369026  0.041766  3.272768  0.068  -0.334844  0.028811  3.594701  0.047  -0.363864  0.022868  3.610445  0.04  -0.346349  -0.314141  0.033638  3.583412  0.052
N  N43  1  0.40290979  0.44805336  0.34390483  1  -0.369034  0.041759  3.272874  0.068  -0.33484  0.028813  3.594798  0.047  -0.363864  0.022869  3.610543  0.04  -0.346334  -0.314134  0.033636  3.583508  0.052
N  N44  1  0.40290829  0.94805298  0.15609515  1  -0.368998  0.041778  3.272767  0.068  -0.334826  0.028812  3.594708  0.047  -0.363847  0.022868  3.610453  0.04  -0.346344  -0.314121  0.033637  3.583421  0.052
N  N45  1  0.59709234  0.55194587  0.65609512  1  -0.369035  0.041764  3.272771  0.068  -0.334841  0.028813  3.594696  0.047  -0.363865  0.022869  3.610439  0.04  -0.346346  -0.314137  0.033638  3.583403  0.052
N  N46  1  0.77715496  0.08207246  0.70214731  1  0.076681  0.001944  3.583166  0.003  0.192057  0.001261  3.769884  0.002  0.182711  0.000964  3.793537  0.002  -0.131859  0.196912  0.001595  3.75599  0.002
N  N47  1  0.22284480  0.41792722  0.20214734  1  0.076683  0.001939  3.583067  0.003  0.192053  0.001261  3.769806  0.002  0.182711  0.000966  3.793453  0.002  -0.131856  0.196918  0.001596  3.755921  0.002
N  N48  1  0.22284398  0.91792829  0.29785265  1  0.076625  0.001952  3.583119  0.003  0.192014  0.001261  3.769836  0.002  0.18266  0.000965  3.793501  0.002  -0.131884  0.196883  0.001596  3.755952  0.002
N  N49  1  0.77715474  0.58207205  0.79785181  1  0.076601  0.001944  3.583156  0.003  0.191984  0.001261  3.769875  0.002  0.182625  0.000966  3.79355  0.002  -0.13193  0.196852  0.001596  3.75599  0.002
N  N50  1  0.62289169  0.10732324  0.66569968  1  -0.267489  0.003851  2.928974  0.006  -0.245417  0.002158  3.182497  0.003  -0.255367  0.001649  3.193521  0.002  -0.202868  -0.238868  0.002809  3.175724  0.004
N  N51  1  0.37710808  0.39267644  0.16569971  1  -0.267471  0.003847  2.92892  0.006  -0.245393  0.002158  3.182445  0.003  -0.255344  0.00165  3.19347  0.002  -0.202852  -0.238843  0.002809  3.175674  0.004
N  N52  1  0.37710655  0.89267605  0.33430027  1  -0.267476  0.003856  2.92896  0.006  -0.245403  0.002158  3.182481  0.003  -0.255351  0.00165  3.193504  0.002  -0.202842  -0.238851  0.002809  3.175704  0.004
N  N53  1  0.62289346  0.60732427  0.83430024  1  -0.267464  0.003846  2.928959  0.006  -0.245385  0.002158  3.182479  0.003  -0.255331  0.00165  3.193502  0.002  -0.20283  -0.238838  0.002809  3.175707  0.004
O  O54  1  0.23121282  0.26982351  0.54960078  1  -0.605842  0.044501  2.060048  0.077  -0.57764  0.028733  2.323537  0.051  -0.614534  0.021199  2.315524  0.04  -0.313609  -0.549517  0.035826  2.327868  0.061
O  O55  1  0.76878766  0.23017762  0.04960159  1  -0.60583  0.044499  2.060017  0.077  -0.577623  0.028733  2.323497  0.051  -0.614512  0.0212  2.315484  0.04  -0.313604  -0.549497  0.035824  2.327822  0.061
O  O56  1  0.76878601  0.73017430  0.45039918  1  -0.605787  0.044501  2.060063  0.077  -0.577574  0.028733  2.323547  0.051  -0.614468  0.0212  2.315535  0.04  -0.313575  -0.549449  0.035825  2.327869  0.061
O  O57  1  0.23121388  0.76982309  0.95039916  1  -0.60588  0.044501  2.060036  0.077  -0.577671  0.028733  2.323512  0.051  -0.614565  0.0212  2.315503  0.04  -0.31363  -0.549545  0.035827  2.327833  0.061
O  O58  1  0.60219991  0.29404031  0.47525469  1  -0.796111  0.041453  1.993067  0.07  -0.771163  0.030022  2.201331  0.05  -0.799886  0.022449  2.167091  0.04  -0.579763  -0.748634  0.036991  2.225215  0.059
O  O59  1  0.39780052  0.20596083  0.97525467  1  -0.79611  0.041453  1.993096  0.07  -0.771183  0.030022  2.201326  0.05  -0.799902  0.02245  2.167085  0.04  -0.579758  -0.74865  0.036991  2.225209  0.059
O  O60  1  0.39780033  0.70596042  0.52474526  1  -0.796112  0.041453  1.993057  0.07  -0.771167  0.030022  2.201327  0.05  -0.79989  0.022449  2.167088  0.04  -0.579764  -0.748641  0.036992  2.225212  0.059
O  O61  1  0.60219972  0.79403990  0.02474528  1  -0.796122  0.041452  1.993051  0.07  -0.771174  0.030022  2.201313  0.05  -0.799895  0.02245  2.167073  0.04  -0.579761  -0.748643  0.036991  2.225196  0.059
O  O62  1  0.07865653  0.43305199  0.62362419  1  -0.63339  -0.002082  1.963577  -0.001  -0.584358  -0.001377  2.185163  -0.001  -0.609278  -0.001516  2.175239  -0.001  -0.320907  -0.566751  -0.001174  2.191544  0.0
O  O63  1  0.92134324  0.06694769  0.12362419  1  -0.633395  -0.002082  1.963572  -0.001  -0.584361  -0.001376  2.185152  -0.001  -0.609282  -0.001516  2.175228  -0.001  -0.320903  -0.56675  -0.001174  2.191526  0.0
O  O64  1  0.92134420  0.56694433  0.37637576  1  -0.633344  -0.002081  1.963598  -0.001  -0.584316  -0.001376  2.185196  -0.001  -0.609236  -0.001516  2.175273  -0.001  -0.320869  -0.566702  -0.001174  2.191563  0.0
O  O65  1  0.07865689  0.93305010  0.87637657  1  -0.633343  -0.002084  1.963583  -0.001  -0.584337  -0.001376  2.185176  -0.001  -0.609255  -0.001515  2.175251  -0.001  -0.320882  -0.566727  -0.001174  2.191546  0.0
