# generated using pymatgen
data_ZnH20C16(NO2)4
_symmetry_space_group_name_H-M   'P 1'
_cell_length_a   7.21546193
_cell_length_b   7.49552004
_cell_length_c   9.34739366
_cell_angle_alpha   62.73652979
_cell_angle_beta   75.03046689
_cell_angle_gamma   83.72644656
_symmetry_Int_Tables_number   1
_chemical_formula_structural   ZnH20C16(NO2)4
_chemical_formula_sum   'Zn1 H20 C16 N4 O8'
_cell_volume   434.10566172
_cell_formula_units_Z   1
loop_
 _symmetry_equiv_pos_site_id
 _symmetry_equiv_pos_as_xyz
  1  'x, y, z'
loop_
 _atom_site_type_symbol
 _atom_site_label
 _atom_site_symmetry_multiplicity
 _atom_site_fract_x
 _atom_site_fract_y
 _atom_site_fract_z
 _atom_site_occupancy
 _atom_site_hle17_bader_spin_density
 _atom_site_hle17_ddec_charge
 _atom_site_hle17_ddec_spin_density
 _atom_site_hle17_ddec_sum_bond_order
 _atom_site_hle17_magmom
 _atom_site_hse06_10hf_bader_spin_density
 _atom_site_hse06_10hf_ddec_charge
 _atom_site_hse06_10hf_ddec_spin_density
 _atom_site_hse06_10hf_ddec_sum_bond_order
 _atom_site_hse06_10hf_magmom
 _atom_site_hse06_bader_spin_density
 _atom_site_hse06_ddec_charge
 _atom_site_hse06_ddec_spin_density
 _atom_site_hse06_ddec_sum_bond_order
 _atom_site_hse06_magmom
 _atom_site_pbe_bader_spin_density
 _atom_site_pbe_cm5_charge
 _atom_site_pbe_ddec_charge
 _atom_site_pbe_ddec_spin_density
 _atom_site_pbe_ddec_sum_bond_order
 _atom_site_pbe_magmom
Zn  Zn0  1  0.49999883  0.49999823  0.50000169  1  0  1.087813  0  1.770534  0  0  0.911602  0  2.219581  0  0  0.958249  0  2.164883  0  0  0.675925  0.879566  0  2.256723  0
H  H1  1  0.32970481  0.76011357  0.68066056  1  0  0.093984  0  0.941008  0  0  0.102866  0  1.003314  0  0  0.105821  0  1.000159  0  0  0.124545  0.100761  0  1.005454  0
H  H2  1  0.67028568  0.23987949  0.31934358  1  0  0.093916  0  0.94104  0  0  0.102849  0  1.003303  0  0  0.105803  0  1.000145  0  0  0.124511  0.100744  0  1.005443  0
H  H3  1  0.19996448  0.37445200  0.20747222  1  0  0.107402  0  0.982261  0  0  0.116535  0  1.044662  0  0  0.119871  0  1.041916  0  0  0.113173  0.114253  0  1.046312  0
H  H4  1  0.80004632  0.62554954  0.79253266  1  0  0.107403  0  0.982264  0  0  0.116572  0  1.044619  0  0  0.1199  0  1.041901  0  0  0.113194  0.114289  0  1.04627  0
H  H5  1  0.36031826  0.09758294  0.14586655  1  0  0.111864  0  0.961401  0  0  0.120423  0  1.023583  0  0  0.123854  0  1.02235  0  0  0.110162  0.117897  0  1.024738  0
H  H6  1  0.63969086  0.90242010  0.85413608  1  0  0.111835  0  0.961373  0  0  0.120449  0  1.023507  0  0  0.123879  0  1.022274  0  0  0.11015  0.117916  0  1.024677  0
H  H7  1  0.48637656  0.16514382  0.84684503  1  0  0.084529  0  0.958907  0  0  0.092024  0  1.025707  0  0  0.095006  0  1.02251  0  0  0.116819  0.089816  0  1.028011  0
H  H8  1  0.51362295  0.83485248  0.15316332  1  0  0.084477  0  0.958937  0  0  0.092012  0  1.025691  0  0  0.094981  0  1.022509  0  0  0.116808  0.089803  0  1.027996  0
H  H9  1  0.79192020  0.92754810  0.59255643  1  0  0.097962  0  0.958057  0  0  0.113161  0  1.020442  0  0  0.11592  0  1.018276  0  0  0.096943  0.111234  0  1.021941  0
H  H10  1  0.20808037  0.07245818  0.40743108  1  0  0.097953  0  0.958125  0  0  0.113174  0  1.020463  0  0  0.115927  0  1.018309  0  0  0.096952  0.111243  0  1.021969  0
H  H11  1  0.96698971  0.95893651  0.68121239  1  0  0.101074  0  0.954145  0  0  0.115525  0  1.017205  0  0  0.117732  0  1.017247  0  0  0.09592  0.113764  0  1.017652  0
H  H12  1  0.03301523  0.04107147  0.31877561  1  0  0.101094  0  0.954124  0  0  0.115546  0  1.0172  0  0  0.117752  0  1.017244  0  0  0.095913  0.113782  0  1.017656  0
H  H13  1  0.97795943  0.85700149  0.13137589  1  0  0.335541  0  0.92262  0  0  0.315987  0  0.985847  0  0  0.325229  0  0.978113  0  0  0.297162  0.309315  0  0.991657  0
H  H14  1  0.02204086  0.14300111  0.86862583  1  0  0.335533  0  0.922729  0  0  0.315985  0  0.985939  0  0  0.325229  0  0.978206  0  0  0.297173  0.309316  0  0.991738  0
H  H15  1  0.02670808  0.59860064  0.22233973  1  0  0.352577  0  0.912972  0  0  0.32868  0  0.983704  0  0  0.337484  0  0.976238  0  0  0.299899  0.322541  0  0.988814  0
H  H16  1  0.97329100  0.40139592  0.77766327  1  0  0.352705  0  0.912795  0  0  0.328624  0  0.983795  0  0  0.337427  0  0.976328  0  0  0.299878  0.322485  0  0.988905  0
H  H17  1  0.18804080  0.31696605  0.50030021  1  0  0.427108  0  0.872478  0  0  0.395094  0  0.939194  0  0  0.405608  0  0.92386  0  0  0.29233  0.387685  0  0.949978  0
H  H18  1  0.81195376  0.68303470  0.49970246  1  0  0.427129  0  0.87246  0  0  0.395101  0  0.939196  0  0  0.405615  0  0.923862  0  0  0.29231  0.38769  0  0.949983  0
H  H19  1  0.28061632  0.14737222  0.64270797  1  0  0.43323  0  0.856925  0  0  0.404825  0  0.915891  0  0  0.414675  0  0.901382  0  0  0.300789  0.397856  0  0.926165  0
H  H20  1  0.71938110  0.85262728  0.35729336  1  0  0.433239  0  0.856902  0  0  0.404839  0  0.915862  0  0  0.414686  0  0.901355  0  0  0.300824  0.39787  0  0.926134  0
C  C21  1  0.32910075  0.61408898  0.78662226  1  0  0.135101  0  3.654278  0  0  0.091718  0  3.904021  0  0  0.100552  0  3.920762  0  0  0.059572  0.08603  0  3.892706  0
C  C22  1  0.67089269  0.38590568  0.21338276  1  0  0.135166  0  3.654473  0  0  0.091683  0  3.904234  0  0  0.10052  0  3.920986  0  0  0.059578  0.085995  0  3.892917  0
C  C23  1  0.24987614  0.59031853  0.94767926  1  0  -0.124967  0  3.758299  0  0  -0.096091  0  3.994178  0  0  -0.108801  0  4.019538  0  0  -0.012097  -0.088593  0  3.977699  0
C  C24  1  0.75012295  0.40967802  0.05232375  1  0  -0.125012  0  3.758244  0  0  -0.095988  0  3.994022  0  0  -0.108715  0  4.019422  0  0  -0.012035  -0.088493  0  3.977543  0
C  C25  1  0.25985202  0.40111772  0.07946641  1  0  -0.017823  0  3.680863  0  0  -0.04935  0  3.928788  0  0  -0.044303  0  3.947441  0  0  -0.062495  -0.052092  0  3.915883  0
C  C26  1  0.74015456  0.59888058  0.92053954  1  0  -0.017839  0  3.680947  0  0  -0.04942  0  3.928833  0  0  -0.044379  0  3.947491  0  0  -0.062573  -0.052159  0  3.915924  0
C  C27  1  0.34779950  0.24551855  0.04537504  1  0  -0.120965  0  3.71865  0  0  -0.132957  0  3.975897  0  0  -0.141463  0  3.997085  0  0  -0.083298  -0.127421  0  3.961508  0
C  C28  1  0.65220785  0.75448314  0.95462312  1  0  -0.120811  0  3.718499  0  0  -0.132831  0  3.97574  0  0  -0.14133  0  3.996921  0  0  -0.08323  -0.127296  0  3.961346  0
C  C29  1  0.41802022  0.28132159  0.88116654  1  0  0.141691  0  3.672883  0  0  0.104813  0  3.92935  0  0  0.113847  0  3.945047  0  0  0.051838  0.099208  0  3.918341  0
C  C30  1  0.58197719  0.71867646  0.11883421  1  0  0.141657  0  3.672893  0  0  0.104752  0  3.929369  0  0  0.113793  0  3.94507  0  0  0.051851  0.099149  0  3.918356  0
C  C31  1  0.15729717  0.76704663  0.97070648  1  0  0.61588  0  3.857007  0  0  0.563853  0  4.147301  0  0  0.593685  0  4.14799  0  0  0.242778  0.543946  0  4.145961  0
C  C32  1  0.84269493  0.23293096  0.02931330  1  0  0.615759  0  3.857396  0  0  0.563612  0  4.147824  0  0  0.593445  0  4.148517  0  0  0.242642  0.543709  0  4.146477  0
C  C33  1  0.85978515  0.23171085  0.51737026  1  0  0.706213  0  3.836553  0  0  0.654459  0  4.145954  0  0  0.687894  0  4.137761  0  0  0.20795  0.631949  0  4.150232  0
C  C34  1  0.14022038  0.76829678  0.48262523  1  0  0.706189  0  3.836674  0  0  0.65452  0  4.145948  0  0  0.687955  0  4.137747  0  0  0.207949  0.632012  0  4.150224  0
C  C35  1  0.92006961  0.01441595  0.56501144  1  0  -0.262387  0  3.706879  0  0  -0.30333  0  3.958931  0  0  -0.308824  0  3.967081  0  0  -0.179472  -0.299381  0  3.953069  0
C  C36  1  0.07992810  0.98559303  0.43497798  1  0  -0.262326  0  3.706947  0  0  -0.30329  0  3.958901  0  0  -0.308785  0  3.96705  0  0  -0.179446  -0.299339  0  3.953041  0
N  N37  1  0.40754127  0.46242050  0.75363481  1  0  -0.31644  0  3.246901  0  0  -0.237059  0  3.512439  0  0  -0.255653  0  3.527989  0  0  -0.314298  -0.224604  0  3.501605  0
N  N38  1  0.59245716  0.53758079  0.24636136  1  0  -0.316435  0  3.24716  0  0  -0.237037  0  3.512702  0  0  -0.25563  0  3.528248  0  0  -0.314294  -0.224583  0  3.501869  0
N  N39  1  0.05278885  0.73656715  0.12036285  1  0  -0.663436  0  3.089607  0  0  -0.622421  0  3.326014  0  0  -0.647023  0  3.322037  0  0  -0.558165  -0.605823  0  3.328595  0
N  N40  1  0.94721508  0.26343904  0.87963031  1  0  -0.663527  0  3.089225  0  0  -0.622339  0  3.325815  0  0  -0.646945  0  3.321843  0  0  -0.558185  -0.605736  0  3.328389  0
O  O41  1  0.17700084  0.93975825  0.84869198  1  0  -0.628766  0  1.983478  0  0  -0.567018  0  2.201752  0  0  -0.591382  0  2.194888  0  0  -0.305352  -0.54998  0  2.206107  0
O  O42  1  0.82299998  0.06024934  0.15129931  1  0  -0.628622  0  1.984234  0  0  -0.566813  0  2.202501  0  0  -0.591169  0  2.195648  0  0  -0.305245  -0.549778  0  2.206858  0
O  O43  1  0.68612933  0.25686131  0.58167873  1  0  -0.662064  0  2.043671  0  0  -0.596758  0  2.313999  0  0  -0.624508  0  2.300931  0  0  -0.330155  -0.577633  0  2.322031  0
O  O44  1  0.31386491  0.74314253  0.41832081  1  0  -0.662033  0  2.043846  0  0  -0.596706  0  2.314034  0  0  -0.624464  0  2.300991  0  0  -0.330133  -0.577584  0  2.322066  0
O  O45  1  0.98204768  0.37141954  0.42040882  1  0  -0.662055  0  2.011287  0  0  -0.597648  0  2.235411  0  0  -0.621722  0  2.225628  0  0  -0.324166  -0.580888  0  2.241221  0
O  O46  1  0.01794982  0.62857991  0.57959357  1  0  -0.662226  0  2.01122  0  0  -0.597749  0  2.235223  0  0  -0.621842  0  2.225485  0  0  -0.324209  -0.580989  0  2.241035  0
O  O47  1  0.30966510  0.27034520  0.53756916  1  0  -0.829133  0  1.905004  0  0  -0.773227  0  2.111051  0  0  -0.79269  0  2.076814  0  0  -0.578334  -0.759715  0  2.134693  0
O  O48  1  0.69033074  0.72965864  0.46243213  1  0  -0.829155  0  1.904958  0  0  -0.77325  0  2.110999  0  0  -0.792713  0  2.076772  0  0  -0.578358  -0.759738  0  2.134643  0
