# generated using pymatgen
data_Zn4H30C43NO13
_symmetry_space_group_name_H-M   'P 1'
_cell_length_a   17.28421273
_cell_length_b   25.37264902
_cell_length_c   32.86900266
_cell_angle_alpha   90.00003066
_cell_angle_beta   89.99998801
_cell_angle_gamma   99.56964845
_symmetry_Int_Tables_number   1
_chemical_formula_structural   Zn4H30C43NO13
_chemical_formula_sum   'Zn16 H120 C172 N4 O52'
_cell_volume   14213.98850103
_cell_formula_units_Z   4
loop_
 _symmetry_equiv_pos_site_id
 _symmetry_equiv_pos_as_xyz
  1  'x, y, z'
loop_
 _atom_site_type_symbol
 _atom_site_label
 _atom_site_symmetry_multiplicity
 _atom_site_fract_x
 _atom_site_fract_y
 _atom_site_fract_z
 _atom_site_occupancy
 _atom_site_pbe_bader_charge
 _atom_site_pbe_bader_spin_density
 _atom_site_pbe_cm5_charge
 _atom_site_pbe_ddec_charge
 _atom_site_pbe_ddec_spin_density
 _atom_site_pbe_ddec_sum_bond_order
 _atom_site_pbe_magmom
Zn  Zn0  1  0.88747846  0.70238731  0.06492905  1  1.317001  0  0.669161  0.96607  0  2.361662  0
Zn  Zn1  1  0.11252140  0.79761283  0.56492877  1  1.317011  0  0.669157  0.966058  0  2.361614  0
Zn  Zn2  1  0.11252143  0.29761224  0.93507072  1  1.317027  0  0.669177  0.966125  0  2.361601  0
Zn  Zn3  1  0.88747868  0.20238752  0.43507100  1  1.317017  0  0.669147  0.966043  0  2.361646  0
Zn  Zn4  1  0.03591958  0.78978091  0.03776097  1  1.314431  0  0.668672  0.962066  0  2.382891  0
Zn  Zn5  1  0.96408078  0.71021882  0.53776086  1  1.314428  0  0.668675  0.962067  0  2.38284  0
Zn  Zn6  1  0.96408031  0.21021864  0.96223910  1  1.314429  0  0.668673  0.962045  0  2.382931  0
Zn  Zn7  1  0.03591969  0.28978074  0.46223921  1  1.314426  0  0.668682  0.962094  0  2.382818  0
Zn  Zn8  1  0.91091723  0.82153885  0.10042878  1  1.311522  0  0.668135  0.955544  0  2.408887  0
Zn  Zn9  1  0.08908253  0.67846091  0.60042845  1  1.311543  0  0.668147  0.955557  0  2.408841  0
Zn  Zn10  1  0.08908266  0.17846070  0.89957159  1  1.311547  0  0.668165  0.955567  0  2.408837  0
Zn  Zn11  1  0.91091679  0.32153864  0.39957131  1  1.311525  0  0.668174  0.955599  0  2.408819  0
Zn  Zn12  1  0.02591306  0.74363168  0.12906126  1  1.316609  0  0.668171  0.962354  0  2.383565  0
Zn  Zn13  1  0.97408680  0.75636851  0.62906148  1  1.31661  0  0.66818  0.962388  0  2.383517  0
Zn  Zn14  1  0.97408693  0.25636827  0.87093881  1  1.316613  0  0.668175  0.962364  0  2.383507  0
Zn  Zn15  1  0.02591329  0.24363185  0.37093859  1  1.316597  0  0.66815  0.962318  0  2.383607  0
H  H16  1  0.88038378  0.54141024  0.08610611  1  0.100916  0  0.108877  0.114889  0  0.989545  0
H  H17  1  0.11961589  0.95858912  0.58610590  1  0.10091  0  0.10888  0.114893  0  0.989522  0
H  H18  1  0.11961669  0.45858932  0.91389396  1  0.101298  0  0.108924  0.11493  0  0.989548  0
H  H19  1  0.88038400  0.04141043  0.41389417  1  0.100907  0  0.108871  0.114871  0  0.989561  0
H  H20  1  0.90035833  0.44792447  0.10006332  1  0.072033  0  0.108142  0.11853  0  0.991707  0
H  H21  1  0.09964206  0.05207587  0.60006293  1  0.071996  0  0.10814  0.118528  0  0.991684  0
H  H22  1  0.09964244  0.55207629  0.89993675  1  0.072007  0  0.108122  0.118477  0  0.991773  0
H  H23  1  0.90035803  0.94792448  0.39993653  1  0.07204  0  0.108123  0.118455  0  0.991715  0
H  H24  1  0.04824861  0.50388668  0.20203878  1  0.08832  0  0.108288  0.119562  0  0.989004  0
H  H25  1  0.95175190  0.99611396  0.70203880  1  0.088321  0  0.108289  0.119627  0  0.988963  0
H  H26  1  0.95175148  0.49611368  0.79796129  1  0.088321  0  0.108295  0.119589  0  0.98898  0
H  H27  1  0.04824760  0.00388639  0.29796097  1  0.088435  0  0.10829  0.119583  0  0.988995  0
H  H28  1  0.03013809  0.59740535  0.18683299  1  0.088525  0  0.109242  0.114997  0  0.988583  0
H  H29  1  0.96986224  0.90259447  0.68683326  1  0.088527  0  0.109235  0.114991  0  0.988519  0
H  H30  1  0.96986258  0.40259500  0.81316708  1  0.088538  0  0.109241  0.114988  0  0.988544  0
H  H31  1  0.03013718  0.09740548  0.31316681  1  0.088534  0  0.109236  0.114994  0  0.988549  0
H  H32  1  0.08795414  0.44974756  0.09772651  1  0.087321  0  0.108747  0.119411  0  0.988926  0
H  H33  1  0.91204615  0.05025238  0.59772665  1  0.087606  0  0.108744  0.119449  0  0.988897  0
H  H34  1  0.91204701  0.55025239  0.90227387  1  0.087339  0  0.108738  0.119415  0  0.988935  0
H  H35  1  0.08795384  0.94974758  0.40227343  1  0.087319  0  0.108741  0.119404  0  0.988947  0
H  H36  1  0.11064709  0.39673490  0.03608727  1  0.078851  0  0.108924  0.114223  0  0.989737  0
H  H37  1  0.88935264  0.10326500  0.53608773  1  0.078846  0  0.108948  0.114289  0  0.989725  0
H  H38  1  0.88935300  0.60326545  0.96391250  1  0.078854  0  0.108926  0.114223  0  0.989733  0
H  H39  1  0.11064735  0.89673496  0.46391234  1  0.078849  0  0.10892  0.114217  0  0.989742  0
H  H40  1  0.94488871  0.26420626  0.08063342  1  0.11343  0  0.109619  0.115778  0  0.988958  0
H  H41  1  0.05511042  0.23579366  0.58063342  1  0.113433  0  0.109609  0.115775  0  0.988961  0
H  H42  1  0.05511070  0.73579369  0.91936635  1  0.113429  0  0.109636  0.115789  0  0.989011  0
H  H43  1  0.94488957  0.76420629  0.41936634  1  0.113441  0  0.109624  0.115747  0  0.989041  0
H  H44  1  0.92370297  0.31617862  0.14297484  1  0.081543  0  0.109338  0.120181  0  0.987081  0
H  H45  1  0.07629731  0.18382135  0.64297482  1  0.08155  0  0.109329  0.12021  0  0.98706  0
H  H46  1  0.07629702  0.68382133  0.85702492  1  0.081634  0  0.109328  0.120162  0  0.987089  0
H  H47  1  0.92370210  0.81617861  0.35702464  1  0.081623  0  0.109325  0.120151  0  0.987073  0
H  H48  1  0.26059587  0.73186410  0.14170660  1  0.097403  0  0.103367  0.114989  0  1.005904  0
H  H49  1  0.73940456  0.76813610  0.64170684  1  0.097387  0  0.103355  0.114963  0  1.0059  0
H  H50  1  0.73940412  0.26813586  0.85829347  1  0.09741  0  0.103375  0.114991  0  1.005897  0
H  H51  1  0.26059611  0.23186425  0.35829323  1  0.097399  0  0.103361  0.11498  0  1.005909  0
H  H52  1  0.27705740  0.79674200  0.02089430  1  0.082706  0  0.103443  0.113472  0  1.006918  0
H  H53  1  0.72294238  0.70325771  0.52089483  1  0.082733  0  0.10348  0.113515  0  1.006904  0
H  H54  1  0.72294191  0.20325755  0.97910577  1  0.082722  0  0.103454  0.113512  0  1.006921  0
H  H55  1  0.27705751  0.29674184  0.47910524  1  0.082727  0  0.103472  0.1135  0  1.006918  0
H  H56  1  0.46166499  0.75310258  0.16382317  1  0.0244  0  0.09273  0.12815  0  1.002905  0
H  H57  1  0.53833533  0.74689723  0.66382313  1  0.024399  0  0.092719  0.12812  0  1.002919  0
H  H58  1  0.53833548  0.24689698  0.83617690  1  0.024399  0  0.09273  0.128149  0  1.002906  0
H  H59  1  0.46166466  0.25310272  0.33617664  1  0.024397  0  0.092728  0.128146  0  1.00291  0
H  H60  1  0.44200248  0.68748729  0.14460749  1  0.055358  0  0.092727  0.128134  0  1.00141  0
H  H61  1  0.55799737  0.81251291  0.64460777  1  0.055358  0  0.09276  0.128177  0  1.001363  0
H  H62  1  0.55799751  0.31251267  0.85539258  1  0.05537  0  0.09274  0.128158  0  1.001385  0
H  H63  1  0.44200272  0.18748744  0.35539230  1  0.055366  0  0.092755  0.128165  0  1.001366  0
H  H64  1  0.37145852  0.71135270  0.17612077  1  0.040895  0  0.09284  0.129085  0  0.994973  0
H  H65  1  0.62854133  0.78864752  0.67612134  1  0.040899  0  0.092835  0.129101  0  0.99497  0
H  H66  1  0.62854147  0.28864725  0.82387899  1  0.04089  0  0.092836  0.129077  0  0.994977  0
H  H67  1  0.37145866  0.21135243  0.32387873  1  0.040911  0  0.09282  0.129061  0  0.995001  0
H  H68  1  0.46268441  0.76703196  0.99583686  1  0.042007  0  0.092792  0.128933  0  1.001989  0
H  H69  1  0.53731516  0.73296767  0.49583719  1  0.042013  0  0.092817  0.128978  0  1.00194  0
H  H70  1  0.53731616  0.23296799  0.00416321  1  0.04202  0  0.092803  0.128969  0  1.001971  0
H  H71  1  0.46268416  0.26703188  0.50416288  1  0.042018  0  0.092804  0.128959  0  1.001968  0
H  H72  1  0.48137557  0.83182758  0.01662523  1  0.028954  0  0.093864  0.130226  0  1.000387  0
H  H73  1  0.51862479  0.66817214  0.51662516  1  0.02874  0  0.093851  0.13018  0  1.000411  0
H  H74  1  0.51862490  0.16817198  0.98337484  1  0.028898  0  0.09387  0.130247  0  1.000389  0
H  H75  1  0.48137578  0.33182782  0.48337461  1  0.028737  0  0.093858  0.130225  0  1.00039  0
H  H76  1  0.39733528  0.81267106  0.98536257  1  0.007458  0  0.093045  0.129572  0  0.995319  0
H  H77  1  0.60266497  0.68732896  0.48536287  1  0.007463  0  0.093062  0.129593  0  0.995285  0
H  H78  1  0.60266471  0.18732889  0.01463781  1  0.007449  0  0.093092  0.129616  0  0.99526  0
H  H79  1  0.39733560  0.31267099  0.51463750  1  0.007458  0  0.093085  0.129596  0  0.995294  0
H  H80  1  0.64062707  0.67873684  0.05572738  1  0.114289  0  0.103274  0.112596  0  1.006145  0
H  H81  1  0.35937337  0.82126330  0.55572708  1  0.114281  0  0.103265  0.112563  0  1.00617  0
H  H82  1  0.35937292  0.32126311  0.94427269  1  0.114293  0  0.103277  0.112595  0  1.006143  0
H  H83  1  0.64062719  0.17873666  0.44427238  1  0.11429  0  0.10327  0.112608  0  1.006159  0
H  H84  1  0.67980636  0.83689179  0.10608580  1  0.101696  0  0.103627  0.113387  0  1.006657  0
H  H85  1  0.32019350  0.66310838  0.60608605  1  0.101702  0  0.103618  0.113379  0  1.00666  0
H  H86  1  0.32019421  0.16310816  0.89391397  1  0.1017  0  0.103628  0.113405  0  1.006647  0
H  H87  1  0.67980659  0.33689197  0.39391433  1  0.101694  0  0.10362  0.113367  0  1.006666  0
H  H88  1  0.48877586  0.84265593  0.13626835  1  0.049899  0  0.093356  0.128567  0  1.001788  0
H  H89  1  0.51122457  0.65734426  0.63626858  1  0.049888  0  0.09336  0.128579  0  1.001764  0
H  H90  1  0.51122539  0.15734442  0.86373202  1  0.049899  0  0.09336  0.128581  0  1.001783  0
H  H91  1  0.48877552  0.34265609  0.36373180  1  0.049907  0  0.09336  0.128579  0  1.001782  0
H  H92  1  0.49259647  0.86857198  0.08649776  1  0.042764  0  0.093212  0.129198  0  1.002962  0
H  H93  1  0.50740349  0.63142858  0.58649767  1  0.042769  0  0.093208  0.1292  0  1.002968  0
H  H94  1  0.50740419  0.13142838  0.91350262  1  0.042745  0  0.093221  0.129199  0  1.002902  0
H  H95  1  0.49259660  0.36857177  0.41350271  1  0.042748  0  0.093208  0.129179  0  1.002947  0
H  H96  1  0.57607427  0.88364543  0.11879079  1  0.022353  0  0.092989  0.129135  0  0.994569  0
H  H97  1  0.42392626  0.61635515  0.61879101  1  0.022348  0  0.093002  0.129165  0  0.99455  0
H  H98  1  0.42392745  0.11635452  0.88120958  1  0.022325  0  0.093012  0.129172  0  0.994542  0
H  H99  1  0.57607335  0.38364561  0.38120967  1  0.022313  0  0.093005  0.129151  0  0.994546  0
H  H100  1  0.44481145  0.67454677  0.02528290  1  0.044292  0  0.092848  0.127898  0  1.0023  0
H  H101  1  0.55518833  0.82545295  0.52528289  1  0.044292  0  0.09285  0.127898  0  1.002304  0
H  H102  1  0.55518844  0.32545279  0.97471717  1  0.044285  0  0.092865  0.127935  0  1.002275  0
H  H103  1  0.44481166  0.17454700  0.47471718  1  0.044291  0  0.092867  0.127937  0  1.002267  0
H  H104  1  0.43998346  0.64728983  0.07468811  1  0.034861  0  0.093132  0.128306  0  1.000058  0
H  H105  1  0.56001631  0.85270993  0.57468810  1  0.034847  0  0.09312  0.128308  0  1.000054  0
H  H106  1  0.56001653  0.35271013  0.92531227  1  0.034852  0  0.093118  0.128277  0  1.00006  0
H  H107  1  0.43998358  0.14728963  0.42531197  1  0.034846  0  0.093106  0.128285  0  1.00004  0
H  H108  1  0.51413255  0.63378924  0.04056081  1  0.029804  0  0.09259  0.127971  0  0.994628  0
H  H109  1  0.48586781  0.86621049  0.54056082  1  0.029808  0  0.092586  0.12796  0  0.994672  0
H  H110  1  0.48586792  0.36621031  0.95943926  1  0.029817  0  0.09259  0.127954  0  0.994681  0
H  H111  1  0.51413218  0.13378946  0.45943925  1  0.029805  0  0.092592  0.127969  0  0.99465  0
H  H112  1  0.91295509  0.97672223  0.05988727  1  0.106759  0  0.108726  0.114575  0  0.993471  0
H  H113  1  0.08704526  0.52327751  0.55988688  1  0.106773  0  0.10873  0.114589  0  0.993463  0
H  H114  1  0.08704470  0.02327693  0.94011249  1  0.106756  0  0.108754  0.114605  0  0.993457  0
H  H115  1  0.91295473  0.47672244  0.44011289  1  0.106763  0  0.108715  0.114548  0  0.9935  0
H  H116  1  0.92272374  0.06691726  0.02674644  1  0.103433  0  0.108425  0.11375  0  0.992456  0
H  H117  1  0.07727715  0.43308263  0.52674622  1  0.103425  0  0.108425  0.113766  0  0.992429  0
H  H118  1  0.07727615  0.93308229  0.97325333  1  0.103413  0  0.108404  0.113746  0  0.992437  0
H  H119  1  0.92272294  0.56691773  0.47325355  1  0.103394  0  0.108437  0.11377  0  0.99239  0
H  H120  1  0.89467491  0.39949470  0.28899998  1  0.092538  0  0.108349  0.114131  0  0.989587  0
H  H121  1  0.10532523  0.10050496  0.78899992  1  0.092535  0  0.108346  0.114126  0  0.989581  0
H  H122  1  0.10532508  0.60050525  0.71100009  1  0.092561  0  0.108352  0.114131  0  0.989608  0
H  H123  1  0.89467466  0.89949459  0.21099985  1  0.092539  0  0.108332  0.114099  0  0.989596  0
H  H124  1  0.89931776  0.43974698  0.21982326  1  0.078775  0  0.105957  0.116585  0  0.997709  0
H  H125  1  0.10068193  0.06025303  0.71982319  1  0.078778  0  0.105942  0.11659  0  0.997686  0
H  H126  1  0.10068233  0.56025337  0.78017681  1  0.078791  0  0.105944  0.11656  0  0.997722  0
H  H127  1  0.89931797  0.93974652  0.28017658  1  0.0788  0  0.105951  0.116561  0  0.99772  0
H  H128  1  0.07369194  0.34496765  0.18446201  1  0.072085  0  0.106203  0.116364  0  0.998884  0
H  H129  1  0.92630775  0.15503234  0.68446188  1  0.072098  0  0.106213  0.116421  0  0.998808  0
H  H130  1  0.92630795  0.65503190  0.81553806  1  0.07209  0  0.106209  0.116374  0  0.998874  0
H  H131  1  0.07369224  0.84496761  0.31553789  1  0.072084  0  0.10621  0.116375  0  0.998872  0
H  H132  1  0.06737053  0.30463141  0.25362351  1  0.105952  0  0.108544  0.114239  0  0.988768  0
H  H133  1  0.93262856  0.19536863  0.75362371  1  0.105936  0  0.108553  0.11425  0  0.988729  0
H  H134  1  0.93262888  0.69536854  0.74637625  1  0.105841  0  0.108553  0.114248  0  0.988747  0
H  H135  1  0.06737143  0.80463132  0.24637636  1  0.105935  0  0.108552  0.114243  0  0.988751  0
C  C136  1  0.94769094  0.63138060  0.12472063  1  1.554215  0  0.22226  0.602125  0  4.17856  0
C  C137  1  0.05230891  0.86861958  0.62472038  1  1.554205  0  0.222268  0.602224  0  4.178624  0
C  C138  1  0.05230914  0.36861975  0.87527914  1  1.554217  0  0.222313  0.602287  0  4.178546  0
C  C139  1  0.94768867  0.13137997  0.37528060  1  1.55423  0  0.222226  0.602194  0  4.178509  0
C  C140  1  0.95439540  0.57526595  0.13543101  1  -0.062193  0  -0.026471  -0.060759  0  3.992782  0
C  C141  1  0.04560436  0.92473384  0.63543079  1  -0.062196  0  -0.026454  -0.060807  0  3.992785  0
C  C142  1  0.04560479  0.42473480  0.86456937  1  -0.062208  0  -0.026476  -0.060844  0  3.992903  0
C  C143  1  0.95439505  0.07526611  0.36456898  1  -0.062202  0  -0.026465  -0.060822  0  3.992799  0
C  C144  1  0.91742534  0.53282540  0.11125351  1  -0.038673  0  -0.080962  -0.07208  0  3.987556  0
C  C145  1  0.08257510  0.96717477  0.61125361  1  -0.038684  0  -0.080967  -0.072023  0  3.987456  0
C  C146  1  0.08257465  0.46717455  0.88874656  1  -0.039065  0  -0.080984  -0.072108  0  3.987533  0
C  C147  1  0.91742489  0.03282518  0.38874646  1  -0.038699  0  -0.080936  -0.072076  0  3.987599  0
C  C148  1  0.92837796  0.48080038  0.11910071  1  -0.016004  0  -0.095633  -0.181253  0  3.996339  0
C  C149  1  0.07162232  0.01919957  0.61910093  1  -0.015961  0  -0.095545  -0.180867  0  3.996551  0
C  C150  1  0.07162280  0.51920037  0.88089936  1  -0.015994  0  -0.095543  -0.181075  0  3.996331  0
C  C151  1  0.92837776  0.98080078  0.38089914  1  -0.015999  0  -0.095547  -0.181031  0  3.996362  0
C  C152  1  0.97615465  0.47009605  0.15166452  1  0.328935  0  0.098411  0.19018  0  4.034515  0
C  C153  1  0.02384563  0.02990392  0.65166444  1  0.328936  0  0.098371  0.188893  0  4.035647  0
C  C154  1  0.02384476  0.52990390  0.84833555  1  0.328958  0  0.098376  0.190121  0  4.034607  0
C  C155  1  0.97615436  0.97009603  0.34833563  1  0.328917  0  0.098383  0.190168  0  4.034547  0
C  C156  1  0.01140589  0.51223502  0.17671706  1  -0.018437  0  -0.094162  -0.182275  0  3.99641  0
C  C157  1  0.98859386  0.98776479  0.67671706  1  -0.018434  0  -0.094227  -0.182281  0  3.996584  0
C  C158  1  0.98859420  0.48776533  0.82328301  1  -0.018472  0  -0.09423  -0.182439  0  3.99636  0
C  C159  1  0.01140555  0.01223516  0.32328270  1  -0.018534  0  -0.094224  -0.182418  0  3.996341  0
C  C160  1  0.00093975  0.56428587  0.16839008  1  -0.004682  0  -0.080226  -0.07148  0  3.984701  0
C  C161  1  0.99906068  0.93571435  0.66839006  1  -0.004674  0  -0.080186  -0.071235  0  3.984476  0
C  C162  1  0.99906082  0.43571409  0.83161000  1  -0.004672  0  -0.080182  -0.07133  0  3.98457  0
C  C163  1  0.00093874  0.06428561  0.33160971  1  -0.004675  0  -0.080208  -0.071411  0  3.984653  0
C  C164  1  0.00398263  0.38637518  0.12398194  1  0.366942  0  0.097582  0.18832  0  4.035539  0
C  C165  1  0.99601833  0.11362517  0.62398209  1  0.366911  0  0.09758  0.187072  0  4.036614  0
C  C166  1  0.99601755  0.61362557  0.87601813  1  0.36694  0  0.097541  0.188299  0  4.035559  0
C  C167  1  0.00398147  0.88637398  0.37601768  1  0.366897  0  0.097559  0.188308  0  4.035571  0
C  C168  1  0.05700956  0.40899171  0.09387059  1  -0.033414  0  -0.094836  -0.181296  0  3.996069  0
C  C169  1  0.94299015  0.09100822  0.59387074  1  -0.0337  0  -0.09484  -0.181136  0  3.996216  0
C  C170  1  0.94299033  0.59100784  0.90612948  1  -0.033431  0  -0.094848  -0.181356  0  3.995981  0
C  C171  1  0.05700936  0.90899213  0.40612933  1  -0.033393  0  -0.094857  -0.181348  0  3.996032  0
C  C172  1  0.06947439  0.37958057  0.05954584  1  -0.046609  0  -0.080322  -0.070914  0  3.986304  0
C  C173  1  0.93052542  0.12041974  0.55954601  1  -0.046564  0  -0.080339  -0.070902  0  3.986226  0
C  C174  1  0.93052637  0.62042018  0.94045423  1  -0.046583  0  -0.080319  -0.070881  0  3.986289  0
C  C175  1  0.06947399  0.87958021  0.44045407  1  -0.046073  0  -0.080324  -0.070915  0  3.986309  0
C  C176  1  0.02888682  0.32731710  0.05447571  1  0.008992  0  -0.026222  -0.059258  0  3.992085  0
C  C177  1  0.97111242  0.17268321  0.55447619  1  0.008952  0  -0.026223  -0.059145  0  3.992016  0
C  C178  1  0.97111269  0.67268325  0.94552406  1  0.008958  0  -0.02622  -0.059239  0  3.992172  0
C  C179  1  0.02888767  0.82731715  0.44552388  1  0.00846  0  -0.026214  -0.059167  0  3.99211  0
C  C180  1  0.97678242  0.30460851  0.08493505  1  -0.080028  0  -0.079785  -0.071786  0  3.984618  0
C  C181  1  0.02321729  0.19539142  0.58493504  1  -0.080019  0  -0.079768  -0.071686  0  3.984499  0
C  C182  1  0.02321709  0.69539185  0.91506472  1  -0.080017  0  -0.079742  -0.071769  0  3.984645  0
C  C183  1  0.97678270  0.80460853  0.41506443  1  -0.080019  0  -0.079798  -0.071821  0  3.984676  0
C  C184  1  0.96464934  0.33362777  0.11950075  1  -0.053905  0  -0.094269  -0.181125  0  3.999382  0
C  C185  1  0.03535094  0.16637218  0.61950103  1  -0.053897  0  -0.094278  -0.180976  0  3.999653  0
C  C186  1  0.03535065  0.66637219  0.88049871  1  -0.054028  0  -0.09426  -0.181098  0  3.999423  0
C  C187  1  0.96464973  0.83362817  0.38049904  1  -0.053994  0  -0.094224  -0.181029  0  3.999404  0
C  C188  1  0.98691737  0.39508455  0.19751226  1  0.314261  0  0.100271  0.195244  0  4.033947  0
C  C189  1  0.01308289  0.10491545  0.69751251  1  0.314274  0  0.100213  0.19389  0  4.035079  0
C  C190  1  0.01308262  0.60491540  0.80248751  1  0.314268  0  0.100251  0.195205  0  4.034028  0
C  C191  1  0.98691768  0.89508450  0.30248725  1  0.314279  0  0.100242  0.195202  0  4.034089  0
C  C192  1  0.17485538  0.76657004  0.08213133  1  1.550083  0  0.224829  0.606523  0  4.161808  0
C  C193  1  0.82514487  0.73342931  0.58213185  1  1.550025  0  0.224828  0.606545  0  4.161881  0
C  C194  1  0.82514451  0.23342951  0.91786874  1  1.550081  0  0.224862  0.606594  0  4.16178  0
C  C195  1  0.17485561  0.26657024  0.41786882  1  1.550085  0  0.224847  0.606582  0  4.161692  0
C  C196  1  0.26055685  0.76429431  0.08130532  1  -0.052941  0  -0.026179  -0.038239  0  4.038678  0
C  C197  1  0.73944301  0.73570585  0.58130585  1  -0.052877  0  -0.02618  -0.038232  0  4.038711  0
C  C198  1  0.73944314  0.23570564  0.91869445  1  -0.052947  0  -0.026172  -0.038219  0  4.038712  0
C  C199  1  0.26055698  0.26429411  0.41869422  1  -0.052941  0  -0.026184  -0.038233  0  4.038727  0
C  C200  1  0.29632084  0.74489702  0.11509490  1  -0.0599  0  -0.090896  -0.166925  0  3.9658  0
C  C201  1  0.70367902  0.75510316  0.61509514  1  -0.059986  0  -0.090881  -0.166865  0  3.965847  0
C  C202  1  0.70367925  0.25510333  0.88490548  1  -0.059983  0  -0.090871  -0.16687  0  3.965834  0
C  C203  1  0.29632097  0.24489679  0.38490493  1  -0.059977  0  -0.090892  -0.166917  0  3.965848  0
C  C204  1  0.37641384  0.74246701  0.11500879  1  0.017958  0  -0.009142  0.119361  0  3.983452  0
C  C205  1  0.62358602  0.75753317  0.61500905  1  0.018024  0  -0.009141  0.119333  0  3.98361  0
C  C206  1  0.62358625  0.25753334  0.88499128  1  0.018038  0  -0.009161  0.119327  0  3.983434  0
C  C207  1  0.37641465  0.24246718  0.38499102  1  0.018024  0  -0.009118  0.119408  0  3.983511  0
C  C208  1  0.42105235  0.75967462  0.08010144  1  -0.004439  0  -0.002661  -0.024901  0  3.9045  0
C  C209  1  0.57894694  0.74032553  0.58010199  1  -0.004459  0  -0.002647  -0.024921  0  3.904708  0
C  C210  1  0.57894707  0.24032533  0.91989863  1  -0.004449  0  -0.002666  -0.024938  0  3.904496  0
C  C211  1  0.42105305  0.25967442  0.41989838  1  -0.004456  0  -0.002648  -0.024922  0  3.904616  0
C  C212  1  0.38579687  0.77940746  0.04583694  1  -0.030368  0  -0.009494  0.120011  0  3.977282  0
C  C213  1  0.61420300  0.72059267  0.54583749  1  -0.030246  0  -0.009557  0.119912  0  3.977371  0
C  C214  1  0.61420312  0.22059249  0.95416282  1  -0.030375  0  -0.009492  0.12007  0  3.977251  0
C  C215  1  0.38579699  0.27940729  0.45416258  1  -0.030359  0  -0.009555  0.11992  0  3.977388  0
C  C216  1  0.30555762  0.78146414  0.04691882  1  -0.003938  0  -0.089945  -0.165129  0  3.960471  0
C  C217  1  0.69444168  0.71853599  0.54691935  1  -0.003922  0  -0.089962  -0.165151  0  3.96053  0
C  C218  1  0.69444228  0.21853541  0.95308095  1  -0.003949  0  -0.09001  -0.165271  0  3.960536  0
C  C219  1  0.30555783  0.28146436  0.45308072  1  -0.00393  0  -0.089968  -0.165153  0  3.960532  0
C  C220  1  0.41456515  0.72249664  0.15182128  1  -0.072913  0  -0.235461  -0.40806  0  3.987327  0
C  C221  1  0.58543527  0.77750357  0.65182185  1  -0.072933  0  -0.235467  -0.408064  0  3.987324  0
C  C222  1  0.58543532  0.27750292  0.84817879  1  -0.072916  0  -0.235456  -0.408057  0  3.987323  0
C  C223  1  0.41456481  0.22249679  0.34817852  1  -0.072934  0  -0.23546  -0.408058  0  3.987347  0
C  C224  1  0.43399214  0.79870457  0.00895569  1  -0.024065  0  -0.236313  -0.411323  0  3.990134  0
C  C225  1  0.56600774  0.70129554  0.50895623  1  -0.023956  0  -0.236323  -0.411292  0  3.99008  0
C  C226  1  0.56600843  0.20129538  0.99104408  1  -0.024001  0  -0.236354  -0.411421  0  3.990107  0
C  C227  1  0.43399177  0.29870482  0.49104414  1  -0.023843  0  -0.236337  -0.411335  0  3.990128  0
C  C228  1  0.50688279  0.75860586  0.08007131  1  -0.063254  0  -0.000843  -0.024817  0  3.904485  0
C  C229  1  0.49311717  0.74139469  0.58007158  1  -0.063265  0  -0.000871  -0.024858  0  3.904524  0
C  C230  1  0.49311720  0.24139409  0.91992876  1  -0.063274  0  -0.000858  -0.024817  0  3.904512  0
C  C231  1  0.50688291  0.25860566  0.41992850  1  -0.063278  0  -0.000806  -0.024794  0  3.904453  0
C  C232  1  0.53588103  0.71307001  0.06599269  1  -0.005701  0  -0.010391  0.118411  0  3.976986  0
C  C233  1  0.46411932  0.78692973  0.56599236  1  -0.005722  0  -0.010419  0.118366  0  3.976973  0
C  C234  1  0.46411886  0.28692954  0.93400769  1  -0.005709  0  -0.010388  0.118414  0  3.97704  0
C  C235  1  0.53588125  0.21307022  0.43400740  1  -0.005697  0  -0.010458  0.118309  0  3.977033  0
C  C236  1  0.61677736  0.71334836  0.06656070  1  -0.031522  0  -0.089014  -0.162061  0  3.961021  0
C  C237  1  0.38322318  0.78665219  0.56656068  1  -0.031507  0  -0.088985  -0.161976  0  3.960961  0
C  C238  1  0.38322263  0.28665160  0.93343907  1  -0.031514  0  -0.089001  -0.162039  0  3.960997  0
C  C239  1  0.61677758  0.21334856  0.43343908  1  -0.031519  0  -0.089045  -0.162125  0  3.961191  0
C  C240  1  0.66839904  0.75779884  0.08094508  1  0.031685  0  -0.026862  -0.041775  0  4.044934  0
C  C241  1  0.33160072  0.74220092  0.58094536  1  0.03191  0  -0.026848  -0.041767  0  4.044926  0
C  C242  1  0.33160095  0.24220112  0.91905499  1  0.03174  0  -0.026836  -0.041725  0  4.044969  0
C  C243  1  0.66839975  0.25779864  0.41905502  1  0.031667  0  -0.026829  -0.041729  0  4.045027  0
C  C244  1  0.75469371  0.75812145  0.08144068  1  1.539164  0  0.226163  0.608616  0  4.162113  0
C  C245  1  0.24530635  0.74187951  0.58144036  1  1.539162  0  0.226209  0.608645  0  4.1621  0
C  C246  1  0.24530619  0.24187811  0.91855970  1  1.539022  0  0.226173  0.608618  0  4.162075  0
C  C247  1  0.75469393  0.25812164  0.41855941  1  1.539054  0  0.226208  0.608666  0  4.162039  0
C  C248  1  0.63883879  0.80262185  0.09491570  1  -0.139662  0  -0.089323  -0.162011  0  3.963537  0
C  C249  1  0.36116175  0.69737872  0.59491595  1  -0.140071  0  -0.089298  -0.161992  0  3.963672  0
C  C250  1  0.36116188  0.19737851  0.90508437  1  -0.13986  0  -0.089338  -0.162067  0  3.963603  0
C  C251  1  0.63883892  0.30262163  0.40508412  1  -0.139658  0  -0.089267  -0.161933  0  3.963539  0
C  C252  1  0.55842724  0.80369093  0.09463459  1  0.015747  0  -0.009915  0.118685  0  3.981265  0
C  C253  1  0.44157204  0.69630924  0.59463483  1  0.015964  0  -0.009926  0.118707  0  3.981273  0
C  C254  1  0.44157275  0.19630902  0.90536579  1  0.015922  0  -0.009898  0.118712  0  3.981263  0
C  C255  1  0.55842795  0.30369072  0.40536554  1  0.015835  0  -0.009932  0.118712  0  3.98124  0
C  C256  1  0.52760840  0.85220596  0.10981516  1  -0.048747  0  -0.235445  -0.408322  0  3.986311  0
C  C257  1  0.47239203  0.64779421  0.60981508  1  -0.048759  0  -0.23546  -0.408376  0  3.986272  0
C  C258  1  0.47239217  0.14779399  0.89018521  1  -0.048699  0  -0.235495  -0.408392  0  3.986217  0
C  C259  1  0.52760805  0.35220614  0.39018529  1  -0.048771  0  -0.235464  -0.408344  0  3.986234  0
C  C260  1  0.48104470  0.66468548  0.05079356  1  -0.059929  0  -0.23541  -0.40673  0  3.98753  0
C  C261  1  0.51895517  0.83531466  0.55079355  1  -0.059923  0  -0.235399  -0.406723  0  3.987598  0
C  C262  1  0.51895520  0.33531407  0.94920651  1  -0.059913  0  -0.235411  -0.406726  0  3.987618  0
C  C263  1  0.48104482  0.16468530  0.44920652  1  -0.059912  0  -0.235399  -0.406716  0  3.987515  0
C  C264  1  0.98819189  0.89617566  0.03795078  1  1.576764  0  0.229197  0.602808  0  4.168923  0
C  C265  1  0.01180789  0.60382406  0.53795043  1  1.576743  0  0.229232  0.602866  0  4.168838  0
C  C266  1  0.01180858  0.10382389  0.96204929  1  1.576765  0  0.229195  0.602812  0  4.168957  0
C  C267  1  0.98819152  0.39617589  0.46204934  1  1.576757  0  0.229181  0.602751  0  4.169005  0
C  C268  1  0.99456184  0.94991902  0.01840989  1  -0.030964  0  -0.012916  -0.029402  0  3.966393  0
C  C269  1  0.00543804  0.55008109  0.51840951  1  -0.030952  0  -0.012918  -0.029436  0  3.96643  0
C  C270  1  0.00543805  0.05008053  0.98159018  1  -0.03095  0  -0.012951  -0.029509  0  3.966502  0
C  C271  1  0.99456195  0.44991886  0.48159025  1  -0.030956  0  -0.012919  -0.029424  0  3.96645  0
C  C272  1  0.95082906  0.98741794  0.03366226  1  -0.050091  0  -0.081374  -0.093535  0  3.972482  0
C  C273  1  0.04917129  0.51258178  0.53366217  1  -0.049996  0  -0.081396  -0.093569  0  3.97244  0
C  C274  1  0.04917083  0.01258161  0.96633720  1  -0.050086  0  -0.081421  -0.093577  0  3.972484  0
C  C275  1  0.95082879  0.48741857  0.46633759  1  -0.049953  0  -0.081375  -0.093507  0  3.972449  0
C  C276  1  0.95622930  0.03728049  0.01533355  1  -0.031072  0  -0.080238  -0.091992  0  3.969839  0
C  C277  1  0.04377101  0.46271939  0.51533304  1  -0.031158  0  -0.080236  -0.092031  0  3.969818  0
C  C278  1  0.04377050  0.96271866  0.98466652  1  -0.031024  0  -0.080231  -0.092039  0  3.969808  0
C  C279  1  0.95622908  0.53728096  0.48466642  1  -0.031156  0  -0.080255  -0.092048  0  3.969749  0
C  C280  1  0.97675859  0.32500611  0.31680092  1  1.53773  0  0.220623  0.599497  0  4.183194  0
C  C281  1  0.02324106  0.17499397  0.81680121  1  1.537728  0  0.220645  0.599531  0  4.183268  0
C  C282  1  0.02324034  0.67499424  0.68319915  1  1.537731  0  0.22062  0.59957  0  4.183095  0
C  C283  1  0.97676008  0.82500598  0.18319856  1  1.537728  0  0.220617  0.599479  0  4.183167  0
C  C284  1  0.98073374  0.34953430  0.27569290  1  0.018626  0  -0.030669  -0.068204  0  4.00353  0
C  C285  1  0.01926602  0.15046616  0.77569317  1  0.018636  0  -0.030673  -0.068217  0  4.003475  0
C  C286  1  0.01926625  0.65046566  0.72430687  1  0.018619  0  -0.030678  -0.068269  0  4.003564  0
C  C287  1  0.98073464  0.84953419  0.22430659  1  0.018786  0  -0.03061  -0.068153  0  4.003476  0
C  C288  1  0.93404778  0.38807998  0.26593600  1  -0.034661  0  -0.080928  -0.069365  0  3.992515  0
C  C289  1  0.06595189  0.11192007  0.76593625  1  -0.034656  0  -0.080888  -0.069196  0  3.99245  0
C  C290  1  0.06595163  0.61191997  0.73406377  1  -0.03468  0  -0.080904  -0.069304  0  3.992612  0
C  C291  1  0.93404868  0.88807989  0.23406352  1  -0.034809  0  -0.080906  -0.06933  0  3.992583  0
C  C292  1  0.93668313  0.41053257  0.22735740  1  -0.030561  0  -0.099819  -0.189844  0  4.001979  0
C  C293  1  0.06331713  0.08946745  0.72735765  1  -0.030559  0  -0.099766  -0.189581  0  4.002298  0
C  C294  1  0.06331686  0.58946738  0.77264236  1  -0.030552  0  -0.099799  -0.189821  0  4.00207  0
C  C295  1  0.93668276  0.91053210  0.27264212  1  -0.030569  0  -0.099833  -0.189818  0  4.00209  0
C  C296  1  0.03811357  0.29719937  0.01636928  1  1.569948  0  0.222644  0.60161  0  4.181161  0
C  C297  1  0.96188442  0.20280051  0.51636978  1  1.569947  0  0.222641  0.6016  0  4.181159  0
C  C298  1  0.96188536  0.70280098  0.98363018  1  1.569948  0  0.222604  0.601556  0  4.181126  0
C  C299  1  0.03811499  0.79719945  0.48363029  1  1.569947  0  0.222633  0.601573  0  4.181202  0
C  C300  1  0.03422245  0.35672761  0.20731972  1  -0.035563  0  -0.09976  -0.189027  0  4.000821  0
C  C301  1  0.96577791  0.14327280  0.70731989  1  -0.035561  0  -0.099719  -0.188815  0  4.000939  0
C  C302  1  0.96577754  0.64327234  0.79268005  1  -0.035565  0  -0.099748  -0.189019  0  4.000838  0
C  C303  1  0.03422276  0.85672756  0.29268018  1  -0.035576  0  -0.099731  -0.189012  0  4.000917  0
C  C304  1  0.03073245  0.33420786  0.24587002  1  -0.043048  0  -0.08145  -0.069629  0  3.994291  0
C  C305  1  0.96926723  0.16579218  0.74587019  1  -0.043065  0  -0.081466  -0.069509  0  3.994117  0
C  C306  1  0.96926697  0.66579210  0.75412975  1  -0.042941  0  -0.081475  -0.069624  0  3.994291  0
C  C307  1  0.03073276  0.83420777  0.25412988  1  -0.043048  0  -0.081469  -0.069627  0  3.994286  0
N  N308  1  0.98955625  0.41723262  0.15824578  1  -1.226291  0  -0.250748  -0.156171  0  3.679429  0
N  N309  1  0.01044470  0.08276776  0.65824573  1  -1.22628  0  -0.25079  -0.154466  0  3.679595  0
N  N310  1  0.01044374  0.58276733  0.84175429  1  -1.226271  0  -0.250742  -0.156153  0  3.67945  0
N  N311  1  0.98955539  0.91723259  0.34175404  1  -1.226261  0  -0.250755  -0.156221  0  3.679438  0
O  O312  1  0.09062048  0.31840526  0.99123549  1  -1.177062  0  -0.31879  -0.551961  0  2.333677  0
O  O313  1  0.90937846  0.18159454  0.49123607  1  -1.177067  0  -0.318813  -0.551954  0  2.333663  0
O  O314  1  0.90937893  0.68159470  0.00876397  1  -1.177037  0  -0.318821  -0.551949  0  2.333659  0
O  O315  1  0.09062201  0.81840501  0.50876370  1  -1.17706  0  -0.318817  -0.551969  0  2.333689  0
O  O316  1  0.99180983  0.25277853  0.01166966  1  -1.176979  0  -0.320453  -0.553579  0  2.338779  0
O  O317  1  0.00818894  0.24722215  0.51166997  1  -1.176955  0  -0.320408  -0.553578  0  2.338741  0
O  O318  1  0.00818872  0.74722262  0.98832950  1  -1.176985  0  -0.320412  -0.553568  0  2.338715  0
O  O319  1  0.99181057  0.75277820  0.48832979  1  -1.176958  0  -0.320403  -0.553548  0  2.338758  0
O  O320  1  0.14558587  0.78517251  0.05053987  1  -1.179335  0  -0.318646  -0.550343  0  2.335213  0
O  O321  1  0.85441381  0.71482682  0.55054008  1  -1.179322  0  -0.318661  -0.550388  0  2.335159  0
O  O322  1  0.85441345  0.21482704  0.94945990  1  -1.179339  0  -0.318627  -0.550355  0  2.335221  0
O  O323  1  0.14558598  0.28517233  0.44946030  1  -1.179342  0  -0.318638  -0.550379  0  2.335175  0
O  O324  1  0.13739591  0.74966336  0.11435956  1  -1.175768  0  -0.318382  -0.551316  0  2.34142  0
O  O325  1  0.86260385  0.75033642  0.61435979  1  -1.175773  0  -0.318384  -0.55132  0  2.341552  0
O  O326  1  0.86260418  0.25033699  0.88564051  1  -1.175763  0  -0.318419  -0.551367  0  2.341414  0
O  O327  1  0.13739556  0.24966353  0.38564028  1  -1.175759  0  -0.318416  -0.551352  0  2.341376  0
O  O328  1  0.03041196  0.86414964  0.02306811  1  -1.170928  0  -0.315797  -0.546436  0  2.337519  0
O  O329  1  0.96958850  0.63585048  0.52306797  1  -1.170937  0  -0.315793  -0.546444  0  2.337541  0
O  O330  1  0.96958861  0.13585031  0.97693166  1  -1.170923  0  -0.315797  -0.54643  0  2.337535  0
O  O331  1  0.03041207  0.36414948  0.47693210  1  -1.170927  0  -0.315794  -0.546413  0  2.337513  0
O  O332  1  0.94087927  0.88672768  0.06787989  1  -1.178963  0  -0.314826  -0.545003  0  2.344524  0
O  O333  1  0.05911877  0.61327206  0.56788015  1  -1.178938  0  -0.314863  -0.545034  0  2.344347  0
O  O334  1  0.05912014  0.11327227  0.93212048  1  -1.178965  0  -0.314806  -0.544962  0  2.344489  0
O  O335  1  0.94088045  0.38672709  0.43212023  1  -1.178951  0  -0.314835  -0.544997  0  2.344525  0
O  O336  1  0.77936115  0.71623932  0.06864107  1  -1.173972  0  -0.31828  -0.54963  0  2.326729  0
O  O337  1  0.22063920  0.78376042  0.56864107  1  -1.174003  0  -0.318283  -0.549628  0  2.326805  0
O  O338  1  0.22063865  0.28375983  0.93135931  1  -1.173961  0  -0.318292  -0.549659  0  2.326698  0
O  O339  1  0.77936088  0.21623993  0.43135900  1  -1.173966  0  -0.318321  -0.549679  0  2.326676  0
O  O340  1  0.79730524  0.80061398  0.09468082  1  -1.180421  0  -0.317973  -0.549468  0  2.356782  0
O  O341  1  0.20269453  0.69938579  0.59468018  1  -1.180389  0  -0.318012  -0.549501  0  2.356722  0
O  O342  1  0.20269466  0.19938557  0.90531986  1  -1.180333  0  -0.317998  -0.549481  0  2.356749  0
O  O343  1  0.79730546  0.30061417  0.40531959  1  -1.180337  0  -0.31799  -0.549487  0  2.356758  0
O  O344  1  0.93174319  0.34218359  0.34277403  1  -1.178712  0  -0.319824  -0.550336  0  2.343965  0
O  O345  1  0.06825704  0.15781651  0.84277431  1  -1.178736  0  -0.31988  -0.550435  0  2.344071  0
O  O346  1  0.06825670  0.65781597  0.65722573  1  -1.178726  0  -0.319849  -0.550401  0  2.343912  0
O  O347  1  0.93174556  0.84218464  0.15722546  1  -1.178694  0  -0.319824  -0.550323  0  2.343956  0
O  O348  1  0.01845564  0.28855863  0.32305762  1  -1.169672  0  -0.319993  -0.553346  0  2.341235  0
O  O349  1  0.98154324  0.21144066  0.82305752  1  -1.16968  0  -0.320017  -0.553339  0  2.341219  0
O  O350  1  0.98154377  0.71144132  0.67694245  1  -1.169702  0  -0.320005  -0.553401  0  2.341227  0
O  O351  1  0.01845646  0.78855810  0.17694225  1  -1.169719  0  -0.320045  -0.553387  0  2.341208  0
O  O352  1  0.99109613  0.66849160  0.14447055  1  -1.176763  0  -0.320803  -0.553804  0  2.333128  0
O  O353  1  0.00890477  0.83150819  0.64447059  1  -1.176756  0  -0.320844  -0.553883  0  2.333143  0
O  O354  1  0.00890395  0.33150875  0.85552953  1  -1.176751  0  -0.320864  -0.553903  0  2.333164  0
O  O355  1  0.99109599  0.16849256  0.35552917  1  -1.176714  0  -0.320812  -0.553842  0  2.332971  0
O  O356  1  0.90001241  0.63800787  0.09615511  1  -1.173371  0  -0.31999  -0.553768  0  2.334592  0
O  O357  1  0.09998677  0.86199189  0.59615486  1  -1.173373  0  -0.319966  -0.553762  0  2.334674  0
O  O358  1  0.09998825  0.36199248  0.90384465  1  -1.17336  0  -0.320019  -0.553877  0  2.334567  0
O  O359  1  0.90001206  0.13800806  0.40384430  1  -1.17343  0  -0.319926  -0.553747  0  2.33478  0
O  O360  1  0.96518085  0.76360331  0.08269991  1  -1.234756  0  -0.57145  -1.025512  0  2.535273  0
O  O361  1  0.03481892  0.73639645  0.58269961  1  -1.234752  0  -0.571455  -1.025472  0  2.535189  0
O  O362  1  0.03481847  0.23639625  0.91730016  1  -1.234758  0  -0.571484  -1.025494  0  2.535228  0
O  O363  1  0.96518107  0.26360350  0.41730016  1  -1.234758  0  -0.571463  -1.025488  0  2.53522  0
