# generated using pymatgen
data_ZnH18C27(NO2)4
_symmetry_space_group_name_H-M   'P 1'
_cell_length_a   8.44351810
_cell_length_b   10.38432948
_cell_length_c   14.65548445
_cell_angle_alpha   92.33967717
_cell_angle_beta   100.08129244
_cell_angle_gamma   102.32442866
_symmetry_Int_Tables_number   1
_chemical_formula_structural   ZnH18C27(NO2)4
_chemical_formula_sum   'Zn2 H36 C54 N8 O16'
_cell_volume   1231.91091084
_cell_formula_units_Z   2
loop_
 _symmetry_equiv_pos_site_id
 _symmetry_equiv_pos_as_xyz
  1  'x, y, z'
loop_
 _atom_site_type_symbol
 _atom_site_label
 _atom_site_symmetry_multiplicity
 _atom_site_fract_x
 _atom_site_fract_y
 _atom_site_fract_z
 _atom_site_occupancy
 _atom_site_hle17_bader_spin_density
 _atom_site_hle17_ddec_charge
 _atom_site_hle17_ddec_spin_density
 _atom_site_hle17_ddec_sum_bond_order
 _atom_site_hle17_magmom
 _atom_site_hse06_10hf_bader_spin_density
 _atom_site_hse06_10hf_ddec_charge
 _atom_site_hse06_10hf_ddec_spin_density
 _atom_site_hse06_10hf_ddec_sum_bond_order
 _atom_site_hse06_10hf_magmom
 _atom_site_hse06_bader_spin_density
 _atom_site_hse06_ddec_charge
 _atom_site_hse06_ddec_spin_density
 _atom_site_hse06_ddec_sum_bond_order
 _atom_site_hse06_magmom
 _atom_site_pbe_bader_spin_density
 _atom_site_pbe_cm5_charge
 _atom_site_pbe_ddec_charge
 _atom_site_pbe_ddec_spin_density
 _atom_site_pbe_ddec_sum_bond_order
 _atom_site_pbe_magmom
Zn  Zn0  1  0.63956440  0.96127796  0.55474474  1  0  1.037177  0  1.87145  0  0  0.864959  0  2.34377  0  0  0.918184  0  2.276929  0  0  0.673966  0.827889  0  2.389548  0
Zn  Zn1  1  0.36043843  0.03872219  0.44525549  1  0  1.037219  0  1.871498  0  0  0.864974  0  2.343814  0  0  0.918194  0  2.276987  0  0  0.67399  0.8279  0  2.389591  0
H  H2  1  0.99857290  0.05138555  0.58907603  1  0  0.096376  0  0.931823  0  0  0.105234  0  0.993333  0  0  0.108225  0  0.990387  0  0  0.124595  0.103042  0  0.995353  0
H  H3  1  0.00143140  0.94861558  0.41092574  1  0  0.096361  0  0.931822  0  0  0.105201  0  0.993357  0  0  0.108191  0  0.990413  0  0  0.124597  0.103007  0  0.995376  0
H  H4  1  0.24359781  0.01603952  0.70098440  1  0  0.117528  0  0.989626  0  0  0.119125  0  1.064106  0  0  0.122198  0  1.063046  0  0  0.112883  0.116832  0  1.06516  0
H  H5  1  0.75640490  0.98396458  0.29902139  1  0  0.1175  0  0.989664  0  0  0.11905  0  1.064178  0  0  0.122122  0  1.06312  0  0  0.112827  0.116759  0  1.065234  0
H  H6  1  0.91201608  0.72512828  0.82044431  1  0  0.123755  0  0.928342  0  0  0.133973  0  0.985026  0  0  0.137505  0  0.983877  0  0  0.116559  0.131406  0  0.986004  0
H  H7  1  0.08798508  0.27487879  0.17956277  1  0  0.123813  0  0.928333  0  0  0.134007  0  0.985031  0  0  0.137559  0  0.983858  0  0  0.116571  0.131424  0  0.986024  0
H  H8  1  0.67821773  0.77021969  0.70159246  1  0  0.090383  0  0.931827  0  0  0.100073  0  0.991574  0  0  0.102817  0  0.989135  0  0  0.122388  0.098002  0  0.993446  0
H  H9  1  0.32178572  0.22977847  0.29840914  1  0  0.090382  0  0.931838  0  0  0.100049  0  0.991607  0  0  0.102799  0  0.989162  0  0  0.122368  0.09798  0  0.993477  0
H  H10  1  0.65849516  0.02827623  0.81823391  1  0  0.127509  0  0.955543  0  0  0.132892  0  1.021991  0  0  0.136628  0  1.020425  0  0  0.111854  0.130192  0  1.023214  0
H  H11  1  0.34149935  0.97172002  0.18176193  1  0  0.127466  0  0.955582  0  0  0.132836  0  1.022044  0  0  0.136595  0  1.020453  0  0  0.111809  0.130137  0  1.023265  0
H  H12  1  0.91796730  0.01989344  0.93213943  1  0  0.076517  0  0.969962  0  0  0.076176  0  1.045439  0  0  0.079967  0  1.041832  0  0  0.107199  0.073382  0  1.048071  0
H  H13  1  0.08203228  0.98010774  0.06785299  1  0  0.076499  0  0.970001  0  0  0.076143  0  1.045493  0  0  0.079934  0  1.041886  0  0  0.107189  0.073348  0  1.048125  0
H  H14  1  0.64963685  0.76722730  0.09023662  1  0  0.064655  0  0.967119  0  0  0.073367  0  1.031901  0  0  0.074237  0  1.033083  0  0  0.104917  0.072692  0  1.031086  0
H  H15  1  0.35037771  0.23278862  0.90977007  1  0  0.064661  0  0.967233  0  0  0.073365  0  1.032029  0  0  0.074237  0  1.03321  0  0  0.104931  0.07269  0  1.031212  0
H  H16  1  0.38089578  0.76853141  0.98511662  1  0  0.111639  0  0.960189  0  0  0.115081  0  1.031743  0  0  0.118474  0  1.030464  0  0  0.106245  0.112616  0  1.032841  0
H  H17  1  0.61911372  0.23147957  0.01489213  1  0  0.111703  0  0.960246  0  0  0.115184  0  1.031758  0  0  0.11855  0  1.030509  0  0  0.106331  0.112723  0  1.032854  0
H  H18  1  0.37692506  0.64960785  0.69207454  1  0  0.101783  0  0.941343  0  0  0.111474  0  1.005365  0  0  0.115003  0  1.002791  0  0  0.103542  0.108895  0  1.007293  0
H  H19  1  0.62306778  0.35039532  0.30792883  1  0  0.101833  0  0.9413  0  0  0.111494  0  1.005358  0  0  0.115021  0  1.002786  0  0  0.103552  0.108915  0  1.007284  0
H  H20  1  0.88494030  0.42365431  0.69307953  1  0  0.108112  0  0.951749  0  0  0.116388  0  1.017794  0  0  0.119424  0  1.01588  0  0  0.106376  0.114251  0  1.018971  0
H  H21  1  0.11505459  0.57633897  0.30691354  1  0  0.108077  0  0.951771  0  0  0.116344  0  1.017822  0  0  0.119379  0  1.015912  0  0  0.106365  0.114224  0  1.018977  0
H  H22  1  0.96671043  0.71608441  0.49654824  1  0  0.115068  0  0.941494  0  0  0.122324  0  1.008673  0  0  0.126515  0  1.004603  0  0  0.109964  0.119345  0  1.011443  0
H  H23  1  0.03329094  0.28391477  0.50344840  1  0  0.115058  0  0.941569  0  0  0.12232  0  1.008742  0  0  0.12651  0  1.004674  0  0  0.109977  0.119346  0  1.011511  0
H  H24  1  0.23298613  0.54429179  0.84932917  1  0  0.089267  0  0.931038  0  0  0.102744  0  0.998626  0  0  0.104326  0  0.997257  0  0  0.095579  0.101449  0  0.99982  0
H  H25  1  0.76700810  0.45570347  0.15066661  1  0  0.089247  0  0.931001  0  0  0.10272  0  0.998602  0  0  0.104301  0  0.997235  0  0  0.095562  0.101428  0  0.999795  0
H  H26  1  0.10658181  0.38900022  0.80537043  1  0  0.102841  0  0.922091  0  0  0.121887  0  0.97556  0  0  0.12326  0  0.974818  0  0  0.102739  0.120823  0  0.976135  0
H  H27  1  0.89341842  0.61099500  0.19462598  1  0  0.10285  0  0.922058  0  0  0.121914  0  0.9755  0  0  0.123286  0  0.974761  0  0  0.102736  0.120849  0  0.976075  0
H  H28  1  0.51329104  0.54327782  0.90188248  1  0  0.103122  0  0.956171  0  0  0.110787  0  1.023628  0  0  0.113915  0  1.022122  0  0  0.102621  0.108616  0  1.024561  0
H  H29  1  0.48671218  0.45671937  0.09811225  1  0  0.103153  0  0.956108  0  0  0.110766  0  1.023628  0  0  0.113891  0  1.022127  0  0  0.102638  0.108595  0  1.024559  0
H  H30  1  0.73359062  0.25563547  0.78168047  1  0  0.112411  0  0.942864  0  0  0.120085  0  1.007054  0  0  0.12452  0  1.002606  0  0  0.111429  0.116866  0  1.010242  0
H  H31  1  0.26640394  0.74435681  0.21831730  1  0  0.112414  0  0.942854  0  0  0.120087  0  1.007036  0  0  0.124522  0  1.002588  0  0  0.111434  0.116868  0  1.010224  0
H  H32  1  0.23827931  0.27830619  0.66600277  1  0  0.110614  0  0.935245  0  0  0.121775  0  0.996367  0  0  0.125165  0  0.993798  0  0  0.110427  0.119455  0  0.997956  0
H  H33  1  0.76171398  0.72169006  0.33399498  1  0  0.110548  0  0.93504  0  0  0.12175  0  0.996136  0  0  0.125139  0  0.993561  0  0  0.110374  0.119428  0  0.997723  0
H  H34  1  0.55735630  0.58194380  0.45979947  1  0  0.398507  0  0.887549  0  0  0.367301  0  0.964768  0  0  0.380447  0  0.950989  0  0  0.304727  0.35808  0  0.974357  0
H  H35  1  0.44264822  0.41806228  0.54020248  1  0  0.398695  0  0.887282  0  0  0.367445  0  0.964538  0  0  0.380588  0  0.950754  0  0  0.304817  0.358225  0  0.974123  0
H  H36  1  0.92179759  0.57709564  0.01565970  1  0  0.401699  0  0.890487  0  0  0.371041  0  0.968497  0  0  0.384142  0  0.952196  0  0  0.305002  0.361819  0  0.978414  0
H  H37  1  0.07819701  0.42288870  0.98434467  1  0  0.401678  0  0.890447  0  0  0.371079  0  0.968383  0  0  0.384212  0  0.952076  0  0  0.305042  0.361861  0  0.978299  0
C  C38  1  0.98542772  0.98017814  0.64142304  1  0  0.143867  0  3.66774  0  0  0.114402  0  3.912061  0  0  0.12092  0  3.930376  0  0  0.056019  0.110376  0  3.899303  0
C  C39  1  0.01457686  0.01982397  0.35857947  1  0  0.143868  0  3.667778  0  0  0.114393  0  3.912075  0  0  0.120909  0  3.93039  0  0  0.056032  0.110372  0  3.899314  0
C  C40  1  0.12004014  0.96145528  0.70361179  1  0  -0.163501  0  3.691402  0  0  -0.183556  0  3.937525  0  0  -0.191971  0  3.960913  0  0  -0.072559  -0.178319  0  3.922046  0
C  C41  1  0.87996018  0.03854884  0.29639376  1  0  -0.163318  0  3.691235  0  0  -0.183282  0  3.937204  0  0  -0.191694  0  3.960596  0  0  -0.072417  -0.178049  0  3.921725  0
C  C42  1  0.09526807  0.86850230  0.76933890  1  0  0.203075  0  3.777266  0  0  0.204635  0  4.027086  0  0  0.2099  0  4.049018  0  0  0.109062  0.201341  0  4.012231  0
C  C43  1  0.90473699  0.13150575  0.23066656  1  0  0.202679  0  3.777676  0  0  0.204315  0  4.027383  0  0  0.209576  0  4.049323  0  0  0.108952  0.20102  0  4.012526  0
C  C44  1  0.93493627  0.79762172  0.76990623  1  0  -0.1624  0  3.677804  0  0  -0.181689  0  3.926414  0  0  -0.190418  0  3.948897  0  0  -0.066211  -0.176054  0  3.911336  0
C  C45  1  0.06506192  0.20238339  0.23009980  1  0  -0.162381  0  3.678159  0  0  -0.181683  0  3.926757  0  0  -0.190434  0  3.949248  0  0  -0.066286  -0.176033  0  3.911679  0
C  C46  1  0.80587025  0.82230823  0.70479202  1  0  0.139723  0  3.677035  0  0  0.108025  0  3.927915  0  0  0.114892  0  3.947123  0  0  0.05592  0.103582  0  3.914948  0
C  C47  1  0.19413341  0.17769488  0.29521043  1  0  0.139617  0  3.67698  0  0  0.107933  0  3.927857  0  0  0.114794  0  3.947067  0  0  0.055897  0.103493  0  3.914887  0
C  C48  1  0.50248119  0.89799707  0.89339245  1  0  0.179895  0  3.822498  0  0  0.1832  0  4.068756  0  0  0.185348  0  4.093656  0  0  0.095853  0.182039  0  4.051708  0
C  C49  1  0.49752058  0.10201200  0.10661066  1  0  0.179603  0  3.822637  0  0  0.182925  0  4.068926  0  0  0.185075  0  4.093837  0  0  0.095809  0.181763  0  4.051879  0
C  C50  1  0.65477882  0.96964930  0.87822648  1  0  -0.167601  0  3.669383  0  0  -0.185527  0  3.910006  0  0  -0.193704  0  3.933623  0  0  -0.073346  -0.180107  0  3.893836  0
C  C51  1  0.34522129  0.03035384  0.12177083  1  0  -0.167529  0  3.669542  0  0  -0.185435  0  3.910112  0  0  -0.193626  0  3.933711  0  0  -0.073339  -0.180015  0  3.893941  0
C  C52  1  0.79711209  0.96375334  0.94111439  1  0  0.117952  0  3.725626  0  0  0.098869  0  3.977986  0  0  0.103302  0  3.996738  0  0  0.041384  0.096183  0  3.965026  0
C  C53  1  0.20289312  0.03625077  0.05888211  1  0  0.117887  0  3.725729  0  0  0.098839  0  3.978029  0  0  0.103272  0  3.996784  0  0  0.041326  0.096152  0  3.965069  0
C  C54  1  0.64753291  0.82346030  0.02890551  1  0  0.1229  0  3.744847  0  0  0.098453  0  4.007493  0  0  0.103167  0  4.026361  0  0  0.036779  0.095557  0  3.994564  0
C  C55  1  0.35247840  0.17655267  0.97109871  1  0  0.123048  0  3.745221  0  0  0.098603  0  4.007848  0  0  0.10332  0  4.026706  0  0  0.036837  0.095708  0  3.994917  0
C  C56  1  0.49819366  0.82227938  0.97047197  1  0  -0.184128  0  3.705974  0  0  -0.202423  0  3.952404  0  0  -0.210372  0  3.976912  0  0  -0.083651  -0.197354  0  3.936008  0
C  C57  1  0.50181165  0.17773363  0.02953230  1  0  -0.18413  0  3.706206  0  0  -0.202489  0  3.952667  0  0  -0.210407  0  3.977183  0  0  -0.083732  -0.197427  0  3.936269  0
C  C58  1  0.18386962  0.69207473  0.58990221  1  0  -0.072839  0  3.760561  0  0  -0.045203  0  3.998299  0  0  -0.055355  0  4.02195  0  0  -0.020429  -0.038916  0  3.98249  0
C  C59  1  0.81613167  0.30792840  0.41009726  1  0  -0.072749  0  3.760541  0  0  -0.045123  0  3.998312  0  0  -0.055278  0  4.021963  0  0  -0.020417  -0.038833  0  3.982499  0
C  C60  1  0.24474676  0.62483370  0.66410772  1  0  -0.081538  0  3.660676  0  0  -0.121319  0  3.914498  0  0  -0.119021  0  3.932833  0  0  -0.076316  -0.122469  0  3.902191  0
C  C61  1  0.75524949  0.37516450  0.33589176  1  0  -0.081524  0  3.660578  0  0  -0.121271  0  3.914419  0  0  -0.118971  0  3.932754  0  0  -0.076283  -0.122426  0  3.902113  0
C  C62  1  0.13889707  0.52966209  0.70366632  1  0  0.096003  0  3.727563  0  0  0.119807  0  3.974249  0  0  0.11653  0  3.999375  0  0  -0.005915  0.121651  0  3.957238  0
C  C63  1  0.86110075  0.47033314  0.29633120  1  0  0.096  0  3.727351  0  0  0.119761  0  3.974084  0  0  0.116482  0  3.999211  0  0  -0.005917  0.121606  0  3.957076  0
C  C64  1  0.97060705  0.49873413  0.66502930  1  0  -0.100525  0  3.666329  0  0  -0.135454  0  3.913519  0  0  -0.133796  0  3.933317  0  0  -0.077108  -0.135996  0  3.899554  0
C  C65  1  0.02939055  0.50125616  0.33496669  1  0  -0.100436  0  3.666714  0  0  -0.135381  0  3.913962  0  0  -0.133714  0  3.933749  0  0  -0.077106  -0.135936  0  3.899986  0
C  C66  1  0.90808983  0.56521143  0.59025160  1  0  -0.086401  0  3.802421  0  0  -0.060428  0  4.041742  0  0  -0.071491  0  4.067555  0  0  -0.020192  -0.053366  0  4.024371  0
C  C67  1  0.09191186  0.43478874  0.40974169  1  0  -0.086467  0  3.80296  0  0  -0.060426  0  4.042266  0  0  -0.071497  0  4.068079  0  0  -0.02012  -0.053365  0  4.024901  0
C  C68  1  0.01465480  0.66266760  0.55338886  1  0  -0.058342  0  3.69314  0  0  -0.101912  0  3.948647  0  0  -0.098262  0  3.967903  0  0  -0.074076  -0.103794  0  3.935395  0
C  C69  1  0.98535079  0.33732956  0.44660952  1  0  -0.058385  0  3.69318  0  0  -0.101996  0  3.948722  0  0  -0.098338  0  3.967973  0  0  -0.074131  -0.10388  0  3.935471  0
C  C70  1  0.29784312  0.79980932  0.55232127  1  0  0.669077  0  3.875547  0  0  0.616077  0  4.167015  0  0  0.651921  0  4.159815  0  0  0.214436  0.591844  0  4.171018  0
C  C71  1  0.70215516  0.20019184  0.44768124  1  0  0.668962  0  3.875502  0  0  0.61597  0  4.166976  0  0  0.651815  0  4.159777  0  0  0.214385  0.591738  0  4.170977  0
C  C72  1  0.72794350  0.53366944  0.55213733  1  0  0.656407  0  3.810297  0  0  0.601852  0  4.111036  0  0  0.636081  0  4.102466  0  0  0.235625  0.578666  0  4.116345  0
C  C73  1  0.27203792  0.46631100  0.44786896  1  0  0.656607  0  3.809669  0  0  0.601942  0  4.110488  0  0  0.636168  0  4.101925  0  0  0.235621  0.578754  0  4.115797  0
C  C74  1  0.20490220  0.46879929  0.79027225  1  0  -0.196124  0  3.723742  0  0  -0.247115  0  3.967572  0  0  -0.247674  0  3.981153  0  0  -0.152525  -0.246446  0  3.95836  0
C  C75  1  0.79509351  0.53119695  0.20972371  1  0  -0.196134  0  3.723584  0  0  -0.247103  0  3.967412  0  0  -0.24765  0  3.980965  0  0  -0.152467  -0.246439  0  3.95821  0
C  C76  1  0.35655547  0.41522062  0.78603932  1  0  0.09195  0  3.737323  0  0  0.11571  0  3.982562  0  0  0.112962  0  4.006327  0  0  -0.006011  0.117274  0  3.96657  0
C  C77  1  0.64344590  0.58477856  0.21395800  1  0  0.091784  0  3.737447  0  0  0.115555  0  3.982678  0  0  0.112807  0  4.006448  0  0  -0.006098  0.117125  0  3.966685  0
C  C78  1  0.50393492  0.46255448  0.84979733  1  0  -0.105001  0  3.677361  0  0  -0.139512  0  3.924171  0  0  -0.137323  0  3.942753  0  0  -0.077558  -0.140557  0  3.91131  0
C  C79  1  0.49606710  0.53744271  0.15019795  1  0  -0.104911  0  3.677237  0  0  -0.139371  0  3.924042  0  0  -0.137182  0  3.942622  0  0  -0.077528  -0.140417  0  3.911178  0
C  C80  1  0.63964261  0.40447928  0.84863145  1  0  -0.094371  0  3.81785  0  0  -0.06941  0  4.057014  0  0  -0.080741  0  4.082469  0  0  -0.025104  -0.062062  0  4.039746  0
C  C81  1  0.36035372  0.59551497  0.15136657  1  0  -0.094411  0  3.817964  0  0  -0.069467  0  4.05716  0  0  -0.080799  0  4.082613  0  0  -0.02514  -0.062117  0  4.039889  0
C  C82  1  0.62854266  0.30035140  0.78281585  1  0  -0.055699  0  3.696462  0  0  -0.09983  0  3.955278  0  0  -0.095669  0  3.972232  0  0  -0.070279  -0.102114  0  3.943579  0
C  C83  1  0.37144951  0.69964090  0.21717963  1  0  -0.055736  0  3.696227  0  0  -0.09986  0  3.955037  0  0  -0.095699  0  3.971995  0  0  -0.07031  -0.102137  0  3.943341  0
C  C84  1  0.48454188  0.25597993  0.71662994  1  0  -0.048536  0  3.743582  0  0  -0.02509  0  3.987349  0  0  -0.033661  0  4.007905  0  0  -0.011424  -0.020154  0  3.974435  0
C  C85  1  0.51545679  0.74401827  0.28336776  1  0  -0.048505  0  3.743401  0  0  -0.025025  0  3.987153  0  0  -0.033597  0  4.007708  0  0  -0.011388  -0.020107  0  3.974276  0
C  C86  1  0.34957012  0.31317757  0.71867898  1  0  -0.073982  0  3.633373  0  0  -0.112182  0  3.883146  0  0  -0.108995  0  3.89972  0  0  -0.06616  -0.11394  0  3.87195  0
C  C87  1  0.65042198  0.68681869  0.28131729  1  0  -0.073761  0  3.633219  0  0  -0.112001  0  3.882972  0  0  -0.108815  0  3.899551  0  0  -0.066053  -0.113755  0  3.871781  0
C  C88  1  0.79672524  0.44849728  0.91605482  1  0  0.653371  0  3.815929  0  0  0.604857  0  4.108498  0  0  0.638937  0  4.099892  0  0  0.23834  0.581751  0  4.113868  0
C  C89  1  0.20327210  0.55148804  0.08394509  1  0  0.653121  0  3.816493  0  0  0.604614  0  4.109064  0  0  0.638695  0  4.10046  0  0  0.238176  0.581508  0  4.114433  0
C  C90  1  0.48147287  0.15210615  0.64167812  1  0  0.662179  0  3.882275  0  0  0.608399  0  4.175172  0  0  0.644237  0  4.167223  0  0  0.216814  0.584136  0  4.179817  0
C  C91  1  0.51851803  0.84789012  0.35831871  1  0  0.662297  0  3.882162  0  0  0.608541  0  4.175069  0  0  0.644381  0  4.167121  0  0  0.217  0.584284  0  4.179713  0
N  N92  1  0.83047551  0.91173340  0.64183582  1  0  -0.301922  0  3.254493  0  0  -0.218626  0  3.522753  0  0  -0.238174  0  3.537663  0  0  -0.322664  -0.205547  0  3.512586  0
N  N93  1  0.16952582  0.08826577  0.35816559  1  0  -0.301828  0  3.254496  0  0  -0.218518  0  3.52274  0  0  -0.238064  0  3.537648  0  0  -0.32264  -0.205443  0  3.512577  0
N  N94  1  0.22692278  0.84069589  0.83513200  1  0  -0.141255  0  2.918499  0  0  -0.1215  0  3.199581  0  0  -0.121236  0  3.205143  0  0  -0.132022  -0.12164  0  3.195827  0
N  N95  1  0.77307718  0.15931120  0.16487428  1  0  -0.140986  0  2.918552  0  0  -0.12122  0  3.199596  0  0  -0.120956  0  3.205161  0  0  -0.13186  -0.121357  0  3.195837  0
N  N96  1  0.36396493  0.91536426  0.82997751  1  0  -0.112394  0  2.992564  0  0  -0.088913  0  3.273946  0  0  -0.086784  0  3.28101  0  0  -0.124789  -0.090283  0  3.269077  0
N  N97  1  0.63603778  0.08463983  0.17002896  1  0  -0.112289  0  2.992638  0  0  -0.088876  0  3.27406  0  0  -0.086749  0  3.281128  0  0  -0.124772  -0.090245  0  3.269188  0
N  N98  1  0.79482525  0.89264148  0.01565328  1  0  -0.298006  0  3.035579  0  0  -0.26533  0  3.301575  0  0  -0.275874  0  3.316247  0  0  -0.317356  -0.258151  0  3.291405  0
N  N99  1  0.20518620  0.10736755  0.98434333  1  0  -0.298103  0  3.035723  0  0  -0.265428  0  3.301681  0  0  -0.275973  0  3.316349  0  0  -0.317396  -0.258248  0  3.291512  0
O  O100  1  0.23124430  0.86924860  0.49421677  1  0  -0.631584  0  2.071459  0  0  -0.565678  0  2.331064  0  0  -0.595032  0  2.319011  0  0  -0.310947  -0.545236  0  2.338327  0
O  O101  1  0.76875482  0.13075552  0.50578796  1  0  -0.631517  0  2.071459  0  0  -0.565641  0  2.331086  0  0  -0.594997  0  2.319029  0  0  -0.310916  -0.545203  0  2.338352  0
O  O102  1  0.45207309  0.81460745  0.58293918  1  0  -0.633581  0  2.063299  0  0  -0.56983  0  2.329784  0  0  -0.598454  0  2.315546  0  0  -0.315935  -0.54991  0  2.338785  0
O  O103  1  0.54792459  0.18539571  0.41706128  1  0  -0.633562  0  2.063254  0  0  -0.56979  0  2.329719  0  0  -0.598414  0  2.315484  0  0  -0.315927  -0.549873  0  2.33872  0
O  O104  1  0.68355885  0.60469663  0.48381086  1  0  -0.534361  0  2.162277  0  0  -0.482431  0  2.392988  0  0  -0.505817  0  2.380804  0  0  -0.315329  -0.466255  0  2.400926  0
O  O105  1  0.31644489  0.39531049  0.51617806  1  0  -0.534343  0  2.162711  0  0  -0.482267  0  2.393421  0  0  -0.505629  0  2.381224  0  0  -0.315137  -0.466095  0  2.401363  0
O  O106  1  0.62907273  0.44794540  0.58398127  1  0  -0.560328  0  1.998596  0  0  -0.507152  0  2.213569  0  0  -0.530485  0  2.206773  0  0  -0.281777  -0.491176  0  2.217909  0
O  O107  1  0.37094448  0.55207944  0.41601777  1  0  -0.560695  0  1.997271  0  0  -0.507515  0  2.212263  0  0  -0.530864  0  2.205474  0  0  -0.282043  -0.491528  0  2.216602  0
O  O108  1  0.90993433  0.38755124  0.91845630  1  0  -0.573357  0  1.99384  0  0  -0.523992  0  2.206344  0  0  -0.546034  0  2.195068  0  0  -0.287972  -0.508888  0  2.213407  0
O  O109  1  0.09005996  0.61243607  0.08154539  1  0  -0.573335  0  1.993892  0  0  -0.523938  0  2.20639  0  0  -0.545966  0  2.195117  0  0  -0.287945  -0.508834  0  2.213454  0
O  O110  1  0.80734549  0.55445111  0.97206541  1  0  -0.538154  0  2.089713  0  0  -0.487474  0  2.302816  0  0  -0.509582  0  2.287202  0  0  -0.3228  -0.472139  0  2.311878  0
O  O111  1  0.19264909  0.44553321  0.02794100  1  0  -0.537985  0  2.090033  0  0  -0.487354  0  2.303101  0  0  -0.509479  0  2.287484  0  0  -0.322702  -0.472025  0  2.312165  0
O  O112  1  0.59687560  0.09000824  0.65447003  1  0  -0.62887  0  2.082072  0  0  -0.565415  0  2.345071  0  0  -0.594449  0  2.332043  0  0  -0.312195  -0.545274  0  2.353306  0
O  O113  1  0.40312038  0.90998898  0.34552872  1  0  -0.628887  0  2.082137  0  0  -0.565488  0  2.3452  0  0  -0.594526  0  2.332175  0  0  -0.312268  -0.545347  0  2.353433  0
O  O114  1  0.36487075  0.13544410  0.57128040  1  0  -0.620631  0  2.072891  0  0  -0.554028  0  2.338986  0  0  -0.582852  0  2.325616  0  0  -0.310654  -0.533951  0  2.347416  0
O  O115  1  0.63512582  0.86455510  0.42871642  1  0  -0.620652  0  2.072665  0  0  -0.554128  0  2.338851  0  0  -0.582928  0  2.325425  0  0  -0.31074  -0.534053  0  2.347278  0
