# generated using pymatgen
data_AgPH17C18BrN2
_symmetry_space_group_name_H-M   'P 1'
_cell_length_a   8.42635313
_cell_length_b   14.02311492
_cell_length_c   19.05335792
_cell_angle_alpha   89.99980998
_cell_angle_beta   90.00044446
_cell_angle_gamma   105.31525007
_symmetry_Int_Tables_number   1
_chemical_formula_structural   AgPH17C18BrN2
_chemical_formula_sum   'Ag4 P4 H68 C72 Br4 N8'
_cell_volume   2171.46143310
_cell_formula_units_Z   4
loop_
 _symmetry_equiv_pos_site_id
 _symmetry_equiv_pos_as_xyz
  1  'x, y, z'
loop_
 _atom_site_type_symbol
 _atom_site_label
 _atom_site_symmetry_multiplicity
 _atom_site_fract_x
 _atom_site_fract_y
 _atom_site_fract_z
 _atom_site_occupancy
 _atom_site_pbe_bader_charge
 _atom_site_pbe_bader_spin_density
 _atom_site_pbe_cm5_charge
 _atom_site_pbe_ddec_charge
 _atom_site_pbe_ddec_spin_density
 _atom_site_pbe_ddec_sum_bond_order
 _atom_site_pbe_magmom
Ag  Ag0  1  0.78366377  0.42329948  0.00579509  1  0.351415  0  0.350246  0.14407  0  2.426959  0
Ag  Ag1  1  0.71633638  0.57669988  0.50579431  1  0.351441  0  0.350242  0.144013  0  2.426995  0
Ag  Ag2  1  0.21633493  0.57670136  0.99420552  1  0.351406  0  0.350254  0.144059  0  2.426909  0
Ag  Ag3  1  0.28365897  0.42329874  0.49420577  1  0.351482  0  0.350257  0.144019  0  2.426908  0
P  P4  1  0.64748927  0.30201169  0.92525025  1  1.406186  0  -0.023937  0.252451  0  4.21101  0
P  P5  1  0.85251461  0.69798763  0.42524954  1  1.406122  0  -0.023911  0.252563  0  4.210917  0
P  P6  1  0.35251212  0.69798989  0.07475036  1  1.406088  0  -0.023921  0.252481  0  4.21086  0
P  P7  1  0.14748667  0.30201099  0.57475107  1  1.406079  0  -0.023952  0.252485  0  4.210938  0
H  H8  1  0.92940430  0.58196551  0.76876932  1  0.10291  0  0.102171  0.124932  0  1.013512  0
H  H9  1  0.57059105  0.41803410  0.26877147  1  0.102751  0  0.102164  0.124898  0  1.013462  0
H  H10  1  0.07059019  0.41803385  0.23122919  1  0.102881  0  0.102169  0.124915  0  1.013564  0
H  H11  1  0.42940474  0.58196822  0.73122757  1  0.102873  0  0.102133  0.124841  0  1.013533  0
H  H12  1  0.76807963  0.48556450  0.85550452  1  0.47421  0  0.269131  0.231807  0  1.052052  0
H  H13  1  0.73192051  0.51443717  0.35550542  1  0.474081  0  0.269133  0.231882  0  1.051914  0
H  H14  1  0.23192047  0.51443412  0.14449451  1  0.474168  0  0.269117  0.231831  0  1.05201  0
H  H15  1  0.26807851  0.48556441  0.64449414  1  0.474048  0  0.269131  0.231888  0  1.051905  0
H  H16  1  0.96421669  0.62430709  0.64210084  1  0.095234  0  0.110413  0.082435  0  0.988555  0
H  H17  1  0.53577893  0.37569275  0.14210297  1  0.095215  0  0.110428  0.082485  0  0.98865  0
H  H18  1  0.03577607  0.37569374  0.35789767  1  0.095214  0  0.11046  0.082458  0  0.98858  0
H  H19  1  0.46421988  0.62431105  0.85789658  1  0.095199  0  0.110445  0.082477  0  0.988678  0
H  H20  1  0.57395856  0.38801291  0.58713639  1  0.111383  0  0.091346  0.060947  0  1.075967  0
H  H21  1  0.92604174  0.61198630  0.08713404  1  0.111348  0  0.09133  0.060903  0  1.075954  0
H  H22  1  0.42604530  0.61198350  0.41286422  1  0.111382  0  0.091328  0.060883  0  1.076092  0
H  H23  1  0.07395793  0.38801676  0.91286499  1  0.111407  0  0.091324  0.060862  0  1.076089  0
H  H24  1  0.51750350  0.33620037  0.70961136  1  0.066484  0  0.094578  0.107469  0  1.061748  0
H  H25  1  0.98249377  0.66379787  0.20960960  1  0.06649  0  0.094571  0.107477  0  1.061869  0
H  H26  1  0.48249616  0.66379456  0.29038820  1  0.066526  0  0.094591  0.107461  0  1.061862  0
H  H27  1  0.01750643  0.33620370  0.79038996  1  0.066477  0  0.094569  0.107471  0  1.061893  0
H  H28  1  0.50050344  0.30658217  0.81350066  1  0.065078  0  0.110109  0.108013  0  1.014735  0
H  H29  1  0.99949988  0.69342031  0.31350047  1  0.065081  0  0.110123  0.108049  0  1.014692  0
H  H30  1  0.49950022  0.69341645  0.18649942  1  0.065075  0  0.110108  0.108004  0  1.014759  0
H  H31  1  0.00049967  0.30657979  0.68650014  1  0.065057  0  0.110128  0.108051  0  1.014752  0
H  H32  1  0.46661341  0.39256906  0.87579031  1  0.093545  0  0.108122  0.114341  0  1.002817  0
H  H33  1  0.03338715  0.60743200  0.37579029  1  0.093539  0  0.108126  0.114344  0  1.002837  0
H  H34  1  0.53338668  0.60742956  0.12420873  1  0.093485  0  0.108111  0.11433  0  1.00281  0
H  H35  1  0.96661089  0.39256736  0.62420979  1  0.093512  0  0.108124  0.114338  0  1.00282  0
H  H36  1  0.62131005  0.20562691  0.78327535  1  0.076229  0  0.095692  0.087606  0  1.063146  0
H  H37  1  0.87868683  0.79437563  0.28327502  1  0.076261  0  0.095694  0.087604  0  1.063141  0
H  H38  1  0.37869339  0.79437393  0.21672421  1  0.076222  0  0.095675  0.087565  0  1.063169  0
H  H39  1  0.12131186  0.20562521  0.71672559  1  0.076226  0  0.095682  0.087586  0  1.063192  0
H  H40  1  0.77504418  0.09756222  0.72912361  1  0.057123  0  0.101057  0.097764  0  1.009076  0
H  H41  1  0.72494403  0.90243894  0.22912406  1  0.057419  0  0.101067  0.097792  0  1.009022  0
H  H42  1  0.22495807  0.90243862  0.27087594  1  0.057091  0  0.10108  0.097795  0  1.009076  0
H  H43  1  0.27504473  0.09755820  0.77087812  1  0.057363  0  0.101095  0.097759  0  1.009041  0
H  H44  1  0.99977706  0.05275740  0.79483636  1  0.054214  0  0.103629  0.098391  0  1.001588  0
H  H45  1  0.50021840  0.94724142  0.29483959  1  0.053725  0  0.103619  0.098306  0  1.001656  0
H  H46  1  0.00022336  0.94724196  0.20516320  1  0.054181  0  0.103607  0.098396  0  1.001583  0
H  H47  1  0.49977565  0.05275424  0.70516469  1  0.05419  0  0.103641  0.098372  0  1.001365  0
H  H48  1  0.08024546  0.12505406  0.91348936  1  0.090446  0  0.096381  0.09259  0  1.051443  0
H  H49  1  0.41975767  0.87494324  0.41349264  1  0.090511  0  0.096331  0.092497  0  1.051389  0
H  H50  1  0.91975377  0.87494530  0.08651072  1  0.090438  0  0.09634  0.092542  0  1.051276  0
H  H51  1  0.58023994  0.12505242  0.58651216  1  0.090626  0  0.096367  0.092631  0  1.051385  0
H  H52  1  0.92720563  0.23434373  0.96829992  1  0.130113  0  0.093501  0.093614  0  1.050725  0
H  H53  1  0.57280576  0.76565477  0.46830228  1  0.13007  0  0.093518  0.093638  0  1.050679  0
H  H54  1  0.07279781  0.76565711  0.03170016  1  0.1301  0  0.093529  0.093688  0  1.05076  0
H  H55  1  0.42719843  0.23434237  0.53170095  1  0.129772  0  0.093464  0.093557  0  1.050674  0
H  H56  1  0.51449611  0.08046140  0.91867718  1  0.069403  0  0.096563  0.096692  0  1.029437  0
H  H57  1  0.98550712  0.91953941  0.41867848  1  0.069455  0  0.096541  0.09667  0  1.029454  0
H  H58  1  0.48550647  0.91954018  0.08131976  1  0.069414  0  0.096556  0.096677  0  1.029489  0
H  H59  1  0.01449351  0.08045773  0.58132160  1  0.06938  0  0.096575  0.096693  0  1.02945  0
H  H60  1  0.28129789  0.96724829  0.98119275  1  0.027552  0  0.099165  0.09886  0  1.005245  0
H  H61  1  0.21870443  0.03275258  0.48119426  1  0.027548  0  0.099171  0.098871  0  1.005248  0
H  H62  1  0.71870383  0.03275403  0.01880418  1  0.027511  0  0.099185  0.098853  0  1.005373  0
H  H63  1  0.78129448  0.96724604  0.51880478  1  0.027534  0  0.099177  0.098862  0  1.005279  0
H  H64  1  0.10253196  0.03527937  0.05984313  1  0.068882  0  0.095032  0.089441  0  1.042433  0
H  H65  1  0.39747241  0.96471858  0.55984413  1  0.068819  0  0.095041  0.089482  0  1.042437  0
H  H66  1  0.89746911  0.96472147  0.94015328  1  0.068867  0  0.09503  0.089428  0  1.042313  0
H  H67  1  0.60252715  0.03528152  0.44015438  1  0.06884  0  0.095016  0.089405  0  1.042348  0
H  H68  1  0.15495654  0.21888758  0.07375183  1  0.090276  0  0.088918  0.099644  0  1.034783  0
H  H69  1  0.34505194  0.78111109  0.57375310  1  0.090403  0  0.088946  0.099749  0  1.034687  0
H  H70  1  0.84504420  0.78111252  0.92624616  1  0.0902  0  0.088928  0.099678  0  1.03475  0
H  H71  1  0.65494945  0.21889049  0.42624804  1  0.090458  0  0.088915  0.099702  0  1.034691  0
H  H72  1  0.38846348  0.33104027  0.01393062  1  0.074949  0  0.09546  0.095914  0  1.029349  0
H  H73  1  0.11154434  0.66895924  0.51392978  1  0.075512  0  0.095439  0.095926  0  1.029293  0
H  H74  1  0.61153705  0.66896205  0.98606947  1  0.075099  0  0.095451  0.0959  0  1.029293  0
H  H75  1  0.88845899  0.33103864  0.48607135  1  0.075431  0  0.095447  0.095902  0  1.029269  0
C  C76  1  0.84729561  0.53744776  0.72989997  1  -0.043195  0  -0.106338  -0.247063  0  3.951201  0
C  C77  1  0.65270935  0.46255636  0.22990072  1  -0.042465  0  -0.106335  -0.247038  0  3.951428  0
C  C78  1  0.15270643  0.46255529  0.27009697  1  -0.042914  0  -0.106388  -0.247147  0  3.951266  0
C  C79  1  0.34728827  0.53744744  0.77009884  1  -0.043015  0  -0.106345  -0.246988  0  3.951424  0
C  C80  1  0.86653989  0.56083679  0.65945412  1  0.438414  0  0.028179  0.089061  0  4.010929  0
C  C81  1  0.63345050  0.43915859  0.15945591  1  0.438011  0  0.028244  0.089136  0  4.010557  0
C  C82  1  0.13345146  0.43915813  0.34054754  1  0.438406  0  0.028195  0.08916  0  4.010389  0
C  C83  1  0.36654679  0.56084447  0.84054417  1  0.438392  0  0.028213  0.089068  0  4.010732  0
C  C84  1  0.65010791  0.42922426  0.62910020  1  0.445802  0  0.022802  0.09479  0  4.01044  0
C  C85  1  0.84988111  0.57077190  0.12909927  1  0.446135  0  0.022866  0.094899  0  4.010802  0
C  C86  1  0.34988613  0.57077140  0.37090198  1  0.446001  0  0.022875  0.094813  0  4.01056  0
C  C87  1  0.15011586  0.42923041  0.87090081  1  0.446306  0  0.022876  0.094925  0  4.010626  0
C  C88  1  0.61967052  0.40010459  0.69825860  1  -0.060901  0  -0.115688  -0.260206  0  3.966429  0
C  C89  1  0.88034017  0.59990033  0.19825665  1  -0.060978  0  -0.115696  -0.260266  0  3.966087  0
C  C90  1  0.38033864  0.59989847  0.30173886  1  -0.060762  0  -0.115703  -0.260176  0  3.96606  0
C  C91  1  0.11966090  0.40010051  0.80174291  1  -0.061108  0  -0.115674  -0.260239  0  3.966031  0
C  C92  1  0.71746625  0.45603751  0.75190069  1  0.508574  0  0.116949  0.281976  0  4.068311  0
C  C93  1  0.78252017  0.54395325  0.25190169  1  0.508129  0  0.116948  0.282026  0  4.068202  0
C  C94  1  0.28252197  0.54395297  0.24809992  1  0.508049  0  0.116931  0.282  0  4.068365  0
C  C95  1  0.21747820  0.45604685  0.74809787  1  0.508132  0  0.116943  0.282021  0  4.068261  0
C  C96  1  0.56183158  0.36142132  0.85251010  1  -0.077187  0  -0.062292  -0.160149  0  3.905029  0
C  C97  1  0.93816786  0.63857887  0.35251035  1  -0.077244  0  -0.062301  -0.160247  0  3.905363  0
C  C98  1  0.43816970  0.63857730  0.14749051  1  -0.077098  0  -0.062285  -0.160114  0  3.905135  0
C  C99  1  0.06183051  0.36142123  0.64749078  1  -0.077172  0  -0.062333  -0.160223  0  3.90525  0
C  C100  1  0.76072692  0.22557176  0.88051407  1  -0.511032  0  -0.023106  -0.044498  0  3.954881  0
C  C101  1  0.73927384  0.77442764  0.38051383  1  -0.511141  0  -0.023138  -0.04458  0  3.954802  0
C  C102  1  0.23927566  0.77442982  0.11948706  1  -0.510943  0  -0.023038  -0.044428  0  3.954763  0
C  C103  1  0.26072593  0.22557024  0.61948730  1  -0.511077  0  -0.023088  -0.044444  0  3.954861  0
C  C104  1  0.72067234  0.18791091  0.81265304  1  -0.069829  0  -0.087216  -0.095959  0  3.980028  0
C  C105  1  0.77932892  0.81209232  0.31265337  1  -0.070162  0  -0.087142  -0.095831  0  3.979896  0
C  C106  1  0.27932840  0.81208919  0.18734652  1  -0.07032  0  -0.087204  -0.095877  0  3.980069  0
C  C107  1  0.22067010  0.18790926  0.68734881  1  -0.070194  0  -0.087142  -0.095859  0  3.979804  0
C  C108  1  0.80706584  0.12646319  0.78189648  1  -0.057178  0  -0.095372  -0.098166  0  4.030851  0
C  C109  1  0.69293069  0.87353861  0.28189689  1  -0.057073  0  -0.095484  -0.098396  0  4.030762  0
C  C110  1  0.19293997  0.87353765  0.21810360  1  -0.056119  0  -0.095365  -0.098209  0  4.030703  0
C  C111  1  0.30707112  0.12645853  0.71810372  1  -0.057005  0  -0.095523  -0.098305  0  4.031077  0
C  C112  1  0.93450865  0.10217152  0.81858108  1  -0.062325  0  -0.087732  -0.080126  0  4.012245  0
C  C113  1  0.56548515  0.89782800  0.31858361  1  -0.061452  0  -0.087632  -0.079853  0  4.011992  0
C  C114  1  0.06548788  0.89782710  0.18141795  1  -0.062826  0  -0.087725  -0.080159  0  4.01216  0
C  C115  1  0.43450351  0.10217432  0.68142067  1  -0.062341  0  -0.087703  -0.079988  0  4.012254  0
C  C116  1  0.97827801  0.14161912  0.88525754  1  -0.037011  0  -0.087486  -0.073502  0  3.985489  0
C  C117  1  0.52172606  0.85837954  0.38526107  1  -0.037218  0  -0.087481  -0.073438  0  3.985224  0
C  C118  1  0.02172597  0.85838024  0.11474359  1  -0.037011  0  -0.087482  -0.073453  0  3.985468  0
C  C119  1  0.47827543  0.14161686  0.61474374  1  -0.037641  0  -0.087484  -0.073624  0  3.985406  0
C  C120  1  0.89151484  0.20266016  0.91637834  1  -0.100823  0  -0.079825  -0.083969  0  3.945032  0
C  C121  1  0.60849245  0.79733918  0.41637970  1  -0.10092  0  -0.079832  -0.08399  0  3.944999  0
C  C122  1  0.10848601  0.79734290  0.08361912  1  -0.100842  0  -0.079879  -0.084115  0  3.945158  0
C  C123  1  0.39150646  0.20265944  0.58362354  1  -0.099888  0  -0.079748  -0.083906  0  3.944977  0
C  C124  1  0.46777997  0.21353858  0.96184832  1  -0.57346  0  -0.030417  -0.055059  0  3.989038  0
C  C125  1  0.03222440  0.78646232  0.46184944  1  -0.573404  0  -0.03045  -0.055127  0  3.988867  0
C  C126  1  0.53222326  0.78646447  0.03815123  1  -0.57342  0  -0.03042  -0.055048  0  3.989064  0
C  C127  1  0.96778012  0.21353556  0.53815169  1  -0.573441  0  -0.030447  -0.055112  0  3.989189  0
C  C128  1  0.43545899  0.11084343  0.95242538  1  0.008774  0  -0.094142  -0.105816  0  3.994577  0
C  C129  1  0.06454879  0.88915749  0.45242741  1  0.008744  0  -0.094162  -0.105798  0  3.994692  0
C  C130  1  0.56454068  0.88915963  0.04757313  1  -0.016995  0  -0.094189  -0.105866  0  3.994477  0
C  C131  1  0.93545573  0.11084039  0.54757425  1  0.008819  0  -0.094206  -0.105867  0  3.994667  0
C  C132  1  0.30419951  0.04704864  0.98778436  1  -0.044742  0  -0.095562  -0.08845  0  4.021875  0
C  C133  1  0.19580291  0.95295221  0.48778615  1  -0.044651  0  -0.095526  -0.088428  0  4.021872  0
C  C134  1  0.69580728  0.95295442  0.01221100  1  -0.018928  0  -0.095586  -0.088432  0  4.021901  0
C  C135  1  0.80419276  0.04704714  0.51221288  1  -0.044645  0  -0.095525  -0.08841  0  4.021842  0
C  C136  1  0.20393085  0.08522076  0.03202925  1  -0.077192  0  -0.094298  -0.085769  0  4.010951  0
C  C137  1  0.29607424  0.91477724  0.53203054  1  -0.077321  0  -0.094338  -0.085817  0  4.011025  0
C  C138  1  0.79606622  0.91477638  0.96797084  1  -0.077378  0  -0.094265  -0.085722  0  4.011071  0
C  C139  1  0.70392985  0.08522508  0.46797007  1  -0.077326  0  -0.094254  -0.085657  0  4.010937  0
C  C140  1  0.23355437  0.18745122  0.04049960  1  -0.067098  0  -0.093153  -0.072792  0  3.988513  0
C  C141  1  0.26645151  0.81254825  0.54050052  1  -0.067173  0  -0.093225  -0.073037  0  3.988862  0
C  C142  1  0.76644886  0.81255184  0.95949734  1  -0.066463  0  -0.093199  -0.0729  0  3.988579  0
C  C143  1  0.73355128  0.18745111  0.45950009  1  -0.067227  0  -0.093202  -0.072978  0  3.988697  0
C  C144  1  0.36513020  0.25132590  0.00593156  1  -0.015495  0  -0.087466  -0.093483  0  3.971502  0
C  C145  1  0.13487694  0.74867511  0.50593323  1  -0.016125  0  -0.087353  -0.093317  0  3.97124  0
C  C146  1  0.63486731  0.74867494  0.99406800  1  -0.016041  0  -0.087422  -0.093404  0  3.971246  0
C  C147  1  0.86512736  0.25132499  0.49406948  1  -0.015981  0  -0.087418  -0.093384  0  3.971408  0
Br  Br148  1  0.07610860  0.39752991  0.06426338  1  -0.617091  0  -0.30234  -0.470195  0  1.407826  0
Br  Br149  1  0.42389412  0.60246951  0.56426326  1  -0.617101  0  -0.30233  -0.470195  0  1.407859  0
Br  Br150  1  0.92389063  0.60246945  0.93573565  1  -0.617101  0  -0.302353  -0.47025  0  1.407863  0
Br  Br151  1  0.57610512  0.39752985  0.43573630  1  -0.617165  0  -0.302346  -0.470229  0  1.407859  0
N  N152  1  0.76920480  0.50894946  0.60833232  1  -1.247595  0  -0.376549  -0.245856  0  3.578788  0
N  N153  1  0.73079835  0.49105266  0.10833222  1  -1.247574  0  -0.376598  -0.245963  0  3.578859  0
N  N154  1  0.23079778  0.49105211  0.39166672  1  -1.247692  0  -0.376531  -0.245777  0  3.578901  0
N  N155  1  0.26920078  0.50895187  0.89166681  1  -1.247602  0  -0.376582  -0.245893  0  3.578784  0
N  N156  1  0.69423150  0.43628976  0.82141703  1  -1.244988  0  -0.426531  -0.281703  0  3.615662  0
N  N157  1  0.80577595  0.56371641  0.32141491  1  -1.244792  0  -0.426593  -0.281856  0  3.615863  0
N  N158  1  0.30577280  0.56371034  0.17858201  1  -1.244996  0  -0.426573  -0.281861  0  3.615685  0
N  N159  1  0.19422491  0.43628665  0.67858570  1  -1.244794  0  -0.426554  -0.28187  0  3.615798  0
