# generated using pymatgen
data_Sr2H23C31N5O19
_symmetry_space_group_name_H-M   'P 1'
_cell_length_a   13.66155255
_cell_length_b   16.19110374
_cell_length_c   26.86063731
_cell_angle_alpha   107.54435531
_cell_angle_beta   103.24522102
_cell_angle_gamma   89.98987079
_symmetry_Int_Tables_number   1
_chemical_formula_structural   Sr2H23C31N5O19
_chemical_formula_sum   'Sr8 H92 C124 N20 O76'
_cell_volume   5499.16994026
_cell_formula_units_Z   4
loop_
 _symmetry_equiv_pos_site_id
 _symmetry_equiv_pos_as_xyz
  1  'x, y, z'
loop_
 _atom_site_type_symbol
 _atom_site_label
 _atom_site_symmetry_multiplicity
 _atom_site_fract_x
 _atom_site_fract_y
 _atom_site_fract_z
 _atom_site_occupancy
 _atom_site_pbe_bader_charge
 _atom_site_pbe_bader_spin_density
 _atom_site_pbe_cm5_charge
 _atom_site_pbe_ddec_charge
 _atom_site_pbe_ddec_spin_density
 _atom_site_pbe_ddec_sum_bond_order
 _atom_site_pbe_magmom
Sr  Sr0  1  0.70357951  0.95933897  0.76623379  1  1.688384  0  0.978753  1.471901  0  1.532343  0
Sr  Sr1  1  0.20386687  0.80666593  0.76622837  1  1.687839  0  0.978419  1.471786  0  1.531651  0
Sr  Sr2  1  0.68119075  0.57417265  0.18746639  1  1.678214  0  1.001084  1.435872  0  1.596413  0
Sr  Sr3  1  0.18110440  0.61371151  0.18744745  1  1.678994  0  1.000968  1.43545  0  1.597076  0
Sr  Sr4  1  0.47763791  0.69039963  0.26905573  1  1.691594  0  0.98225  1.474033  0  1.505944  0
Sr  Sr5  1  0.97769386  0.57913862  0.26919100  1  1.691675  0  0.982138  1.473963  0  1.506331  0
Sr  Sr6  1  0.97451493  0.90097784  0.83865882  1  1.676447  0  0.989587  1.426381  0  1.577642  0
Sr  Sr7  1  0.47459803  0.93746883  0.83873249  1  1.675629  0  0.990218  1.42601  0  1.579215  0
H  H8  1  0.66319280  0.93783697  0.95455749  1  0.166529  0  0.124001  0.126198  0  1.023062  0
H  H9  1  0.16311783  0.01649943  0.95454504  1  0.145225  0  0.123919  0.126321  0  1.023695  0
H  H10  1  0.84700667  0.75762439  0.87107475  1  0.143005  0  0.120124  0.117753  0  1.029828  0
H  H11  1  0.34706233  0.11313384  0.87111383  1  0.141141  0  0.120111  0.117912  0  1.030907  0
H  H12  1  0.87627316  0.68713568  0.94314735  1  0.095315  0  0.105384  0.109432  0  1.005603  0
H  H13  1  0.37625585  0.25572946  0.94315431  1  0.061585  0  0.105021  0.109579  0  1.006047  0
H  H14  1  0.99232632  0.75998618  0.15030575  1  0.110474  0  0.121253  0.117203  0  0.998579  0
H  H15  1  0.49242818  0.39043583  0.15030014  1  0.130756  0  0.12152  0.117066  0  0.999121  0
H  H16  1  0.93278649  0.82839944  0.07843366  1  0.079666  0  0.105689  0.111107  0  1.006289  0
H  H17  1  0.43303419  0.25003970  0.07854375  1  0.072278  0  0.105574  0.110069  0  1.00699  0
H  H18  1  0.76146369  0.55161467  0.06912036  1  0.140471  0  0.1244  0.124364  0  1.026534  0
H  H19  1  0.26105858  0.51716491  0.06906675  1  0.144452  0  0.12391  0.123959  0  1.027001  0
H  H20  1  0.61480656  0.30700832  0.19250708  1  0.075616  0  0.108037  0.107956  0  1.012861  0
H  H21  1  0.11440338  0.88574764  0.19253425  1  0.080364  0  0.107884  0.107353  0  1.012754  0
H  H22  1  0.59047452  0.14949967  0.18004625  1  0.106574  0  0.103181  0.107072  0  1.019246  0
H  H23  1  0.09005690  0.03073090  0.17997754  1  0.095923  0  0.103112  0.107523  0  1.020051  0
H  H24  1  0.90567559  0.31796566  0.29847178  1  0.138703  0  0.117962  0.12507  0  1.010481  0
H  H25  1  0.40540182  0.98082325  0.29835611  1  0.139175  0  0.117766  0.124392  0  1.010731  0
H  H26  1  0.58700387  0.07636032  0.25879275  1  0.135143  0  0.104148  0.115481  0  1.030293  0
H  H27  1  0.08642316  0.18279778  0.25860717  1  0.10876  0  0.104138  0.115466  0  1.030414  0
H  H28  1  0.53701411  0.92141034  0.24407918  1  0.117483  0  0.115027  0.114738  0  1.004792  0
H  H29  1  0.03662520  0.32304883  0.24387593  1  0.091632  0  0.114873  0.114049  0  1.005431  0
H  H30  1  0.77993814  0.84254535  0.16789853  1  0.14367  0  0.111934  0.120246  0  1.028772  0
H  H31  1  0.27984298  0.32566168  0.16791989  1  0.133594  0  0.111721  0.120211  0  1.029107  0
H  H32  1  0.09458097  0.21475358  0.87195042  1  0.147178  0  0.111592  0.120874  0  1.00089  0
H  H33  1  0.59500379  0.65701281  0.87191198  1  0.146669  0  0.111697  0.120908  0  1.001262  0
H  H34  1  0.08923722  0.35973108  0.85804721  1  0.133946  0  0.104526  0.111565  0  1.025068  0
H  H35  1  0.58944918  0.49816137  0.85820790  1  0.121008  0  0.104036  0.110564  0  1.02568  0
H  H36  1  0.80118685  0.13972559  0.76551316  1  0.144125  0  0.124084  0.115566  0  1.045733  0
H  H37  1  0.30179017  0.62562799  0.76531671  1  0.092479  0  0.1241  0.115518  0  1.045626  0
H  H38  1  0.92782356  0.76051269  0.36954911  1  0.179442  0  0.123201  0.132876  0  1.030933  0
H  H39  1  0.42804540  0.60925352  0.36961495  1  0.164414  0  0.123712  0.133161  0  1.030283  0
H  H40  1  0.72194636  0.67680534  0.47930384  1  0.118171  0  0.10536  0.111955  0  1.027333  0
H  H41  1  0.22174158  0.80231198  0.47931974  1  0.114542  0  0.105737  0.111971  0  1.028312  0
H  H42  1  0.65807373  0.63551591  0.38037374  1  0.136954  0  0.118192  0.120562  0  1.005403  0
H  H43  1  0.15813471  0.74499756  0.38036849  1  0.11832  0  0.117999  0.120703  0  1.006239  0
H  H44  1  0.03742605  0.72916740  0.65167026  1  0.106621  0  0.126139  0.115136  0  1.039446  0
H  H45  1  0.53677941  0.92257538  0.65173664  1  0.119823  0  0.1262  0.115282  0  1.038625  0
H  H46  1  0.80250820  0.90426461  0.64371373  1  0.141331  0  0.117219  0.113736  0  1.021725  0
H  H47  1  0.30236863  0.73907758  0.64375801  1  0.124867  0  0.11664  0.113214  0  1.022089  0
H  H48  1  0.77361499  0.85921435  0.54431932  1  0.102878  0  0.110316  0.118502  0  0.991052  0
H  H49  1  0.27358889  0.68470226  0.54434604  1  0.11615  0  0.110264  0.118035  0  0.991286  0
H  H50  1  0.11317172  0.53370869  0.75646517  1  0.095779  0  0.106504  0.106389  0  1.04281  0
H  H51  1  0.61287837  0.22231020  0.75652710  1  0.146915  0  0.106543  0.10622  0  1.042547  0
H  H52  1  0.06935079  0.38365649  0.75507401  1  0.102883  0  0.109445  0.11722  0  0.988032  0
H  H53  1  0.56918533  0.37100665  0.75515642  1  0.09949  0  0.108771  0.11686  0  0.988674  0
H  H54  1  0.88654597  0.62929182  0.84158174  1  0.127148  0  0.115006  0.122396  0  1.039443  0
H  H55  1  0.38621254  0.21207885  0.84165281  1  0.124036  0  0.114556  0.121125  0  1.039978  0
H  H56  1  0.33991656  0.53153773  0.97534401  1  0.080283  0  0.103438  0.125626  0  0.998741  0
H  H57  1  0.83988023  0.44375172  0.97549778  1  0.078065  0  0.103659  0.125421  0  0.999344  0
H  H58  1  0.42436296  0.45250035  0.95367654  1  0.063983  0  0.103009  0.109453  0  1.021365  0
H  H59  1  0.92392327  0.50114065  0.95361971  1  0.036204  0  0.103009  0.109761  0  1.021264  0
H  H60  1  0.44013669  0.55893915  0.94866156  1  0.089762  0  0.103985  0.124175  0  0.998681  0
H  H61  1  0.94016280  0.38978525  0.94878634  1  0.082842  0  0.104002  0.124296  0  0.998397  0
H  H62  1  0.49609222  0.68132662  0.03595698  1  0.075611  0  0.107181  0.125789  0  0.98613  0
H  H63  1  0.99655740  0.35509476  0.03609654  1  0.086675  0  0.107171  0.12504  0  0.986585  0
H  H64  1  0.55104116  0.65272797  0.09493904  1  0.121429  0  0.119295  0.13363  0  1.03055  0
H  H65  1  0.05158969  0.44279346  0.09499065  1  0.124082  0  0.119189  0.133059  0  1.031558  0
H  H66  1  0.41674766  0.64996905  0.07285748  1  0.055354  0  0.111842  0.128376  0  0.970285  0
H  H67  1  0.91730608  0.42331100  0.07310443  1  0.059922  0  0.11194  0.128308  0  0.970233  0
H  H68  1  0.53510687  0.42601368  0.01435769  1  0.078286  0  0.12187  0.045988  0  0.963762  0
H  H69  1  0.03473110  0.58864188  0.01418549  1  0.07265  0  0.121616  0.045415  0  0.963716  0
H  H70  1  0.00759098  0.91697421  0.01045177  1  0.084104  0  0.121953  0.044593  0  0.963144  0
H  H71  1  0.50771367  0.09335408  0.01053962  1  0.075829  0  0.122022  0.04454  0  0.962959  0
H  H72  1  0.86462094  0.13890198  0.00071506  1  0.066001  0  0.115683  0.133001  0  0.969221  0
H  H73  1  0.36467621  0.86193275  0.00103868  1  0.062439  0  0.115708  0.133168  0  0.968734  0
H  H74  1  0.95829688  0.11017053  0.96267631  1  0.074577  0  0.114471  0.13008  0  0.981016  0
H  H75  1  0.45862809  0.85213494  0.96313052  1  0.076689  0  0.114244  0.130142  0  0.981335  0
H  H76  1  0.83812351  0.05136895  0.93904407  1  0.089701  0  0.118455  0.133019  0  0.993091  0
H  H77  1  0.33863939  0.88744281  0.93926951  1  0.086336  0  0.118518  0.13311  0  0.992424  0
H  H78  1  0.84412710  0.04896503  0.06253562  1  0.071689  0  0.100863  0.121209  0  1.006827  0
H  H79  1  0.34442174  0.01360466  0.06266488  1  0.075251  0  0.100907  0.121408  0  1.005928  0
H  H80  1  0.95623705  0.99639223  0.07846059  1  0.050103  0  0.103993  0.111529  0  1.023616  0
H  H81  1  0.45647853  0.08213998  0.07855171  1  0.085931  0  0.103959  0.111393  0  1.024027  0
H  H82  1  0.96458351  0.10934648  0.08610523  1  0.054315  0  0.107922  0.128753  0  0.980383  0
H  H83  1  0.46493353  0.97692034  0.08635306  1  0.07965  0  0.107785  0.128739  0  0.980257  0
H  H84  1  0.56849735  0.52303857  0.28533349  1  0.621971  0  0.32639  0.402617  0  0.899962  0
H  H85  1  0.06875163  0.76254815  0.28536971  1  0.629211  0  0.326276  0.402805  0  0.899639  0
H  H86  1  0.45849944  0.49881895  0.28562772  1  0.606751  0  0.336865  0.414067  0  0.861396  0
H  H87  1  0.95891685  0.78725657  0.28589878  1  0.609213  0  0.336412  0.414375  0  0.860814  0
H  H88  1  0.51118436  0.83172816  0.40196700  1  0.605363  0  0.320975  0.415216  0  0.875478  0
H  H89  1  0.01143561  0.57046495  0.40206903  1  0.609775  0  0.320659  0.414257  0  0.876818  0
H  H90  1  0.44727719  0.84143738  0.34739957  1  0.641562  0  0.309038  0.398219  0  0.921033  0
H  H91  1  0.94744147  0.50628604  0.34749037  1  0.641622  0  0.308554  0.396978  0  0.922535  0
H  H92  1  0.75230131  0.80455306  0.70064437  1  0.63067  0  0.296801  0.372431  0  0.97039  0
H  H93  1  0.25211334  0.89625339  0.70069511  1  0.632129  0  0.296945  0.373025  0  0.96952  0
H  H94  1  0.65652743  0.75232329  0.70196069  1  0.615079  0  0.333047  0.409352  0  0.871702  0
H  H95  1  0.15626955  0.94973236  0.70212015  1  0.61653  0  0.332213  0.40812  0  0.873637  0
H  H96  1  0.69965652  0.08112937  0.68810663  1  0.630105  0  0.310839  0.401431  0  0.912736  0
H  H97  1  0.19945118  0.60677550  0.68813155  1  0.638162  0  0.310746  0.401938  0  0.9119  0
H  H98  1  0.66288762  0.99026681  0.64535747  1  0.649514  0  0.304717  0.392872  0  0.934445  0
H  H99  1  0.16306968  0.65487643  0.64531820  1  0.66045  0  0.304158  0.392648  0  0.935113  0
C  C100  1  0.71064013  0.88337351  0.95196596  1  -0.048927  0  -0.057654  -0.112448  0  3.921593  0
C  C101  1  0.21065886  0.06831018  0.95198149  1  0.010108  0  -0.056359  -0.10999  0  3.91993  0
C  C102  1  0.73317298  0.89036002  0.86257483  1  1.574737  0  0.226281  0.604431  0  4.217161  0
C  C103  1  0.23329162  0.97198207  0.86261610  1  1.594582  0  0.225912  0.603717  0  4.219241  0
C  C104  1  0.75206190  0.85111103  0.90765414  1  0.057223  0  0.002574  -0.013426  0  3.936909  0
C  C105  1  0.25217482  0.05624361  0.90770372  1  0.015036  0  0.001103  -0.015606  0  3.940474  0
C  C106  1  0.81248499  0.78088401  0.90509729  1  -0.033414  0  -0.055021  -0.051204  0  3.904263  0
C  C107  1  0.31257746  0.12390433  0.90514113  1  -0.016345  0  -0.053829  -0.049897  0  3.904239  0
C  C108  1  0.82923007  0.74187438  0.94562079  1  0.004317  0  -0.083133  -0.122707  0  3.958428  0
C  C109  1  0.32934397  0.20343692  0.94567049  1  0.035243  0  -0.083212  -0.122872  0  3.960211  0
C  C110  1  0.78584183  0.77102374  0.98966474  1  0.017654  0  0.007839  0.035957  0  4.004137  0
C  C111  1  0.28596113  0.21831792  0.98970929  1  0.027885  0  0.008771  0.035994  0  4.003634  0
C  C112  1  0.72805488  0.84348892  0.99217375  1  0.192275  0  0.078037  0.015474  0  3.914864  0
C  C113  1  0.22806040  0.14840372  0.99218881  1  0.170227  0  0.077209  0.013595  0  3.91508  0
C  C114  1  0.91312650  0.61470193  0.16013611  1  1.590043  0  0.230955  0.611956  0  4.213195  0
C  C115  1  0.41292993  0.54559248  0.16000010  1  1.587865  0  0.230072  0.611262  0  4.212839  0
C  C116  1  0.88009646  0.65234926  0.11491824  1  0.017651  0  -0.000144  -0.025916  0  3.956635  0
C  C117  1  0.37990889  0.46251866  0.11493861  1  0.005157  0  9e-06  -0.025959  0  3.956882  0
C  C118  1  0.92874383  0.72956078  0.11663533  1  -0.013381  0  -0.054267  -0.048608  0  3.918646  0
C  C119  1  0.42871357  0.38706944  0.11667352  1  -0.054321  0  -0.055141  -0.049253  0  3.918201  0
C  C120  1  0.89536512  0.76757730  0.07629530  1  0.009232  0  -0.083239  -0.126506  0  3.962113  0
C  C121  1  0.39543710  0.30863792  0.07637740  1  0.045794  0  -0.082805  -0.123606  0  3.962288  0
C  C122  1  0.81292146  0.72999038  0.03308522  1  -0.017844  0  0.01177  0.044941  0  3.995502  0
C  C123  1  0.31298482  0.30283864  0.03312915  1  -0.013369  0  0.010647  0.042682  0  3.996094  0
C  C124  1  0.76870869  0.65022933  0.03103263  1  0.263006  0  0.084262  0.026896  0  3.902828  0
C  C125  1  0.26857055  0.38049671  0.03105688  1  0.244951  0  0.084001  0.026806  0  3.904128  0
C  C126  1  0.80036930  0.61177878  0.07131102  1  -0.006559  0  -0.058384  -0.120368  0  3.931363  0
C  C127  1  0.30008214  0.45926318  0.07132313  1  -0.000169  0  -0.058089  -0.12056  0  3.93333  0
C  C128  1  0.77932891  0.41760617  0.24989433  1  1.597027  0  0.225262  0.618199  0  4.224306  0
C  C129  1  0.27914231  0.83267372  0.24993577  1  1.622306  0  0.226045  0.619618  0  4.221359  0
C  C130  1  0.76258491  0.32311777  0.24527118  1  0.010335  0  -0.012555  -0.031229  0  3.951259  0
C  C131  1  0.26223789  0.92247540  0.24526450  1  -0.009881  0  -0.012343  -0.03156  0  3.951085  0
C  C132  1  0.67345062  0.27462614  0.21278034  1  0.018661  0  -0.067367  -0.055172  0  3.937822  0
C  C133  1  0.17301052  0.93842303  0.21280756  1  -0.031982  0  -0.067434  -0.054546  0  3.936616  0
C  C134  1  0.65991191  0.18638261  0.20602766  1  -0.032495  0  -0.081851  -0.119978  0  3.947498  0
C  C135  1  0.15943989  0.01989128  0.20600920  1  -0.003242  0  -0.081836  -0.120774  0  3.946314  0
C  C136  1  0.73417498  0.14293600  0.23160583  1  0.015043  0  0.015483  0.055882  0  3.964084  0
C  C137  1  0.23371945  0.08893084  0.23152584  1  0.045333  0  0.015021  0.055473  0  3.962698  0
C  C138  1  0.82140986  0.19374131  0.26595450  1  0.268328  0  0.077758  0.022221  0  3.8971  0
C  C139  1  0.32098598  0.07250985  0.26588305  1  0.25148  0  0.077561  0.020674  0  3.899409  0
C  C140  1  0.83639800  0.28171151  0.27218124  1  -0.021057  0  -0.067979  -0.11973  0  3.938714  0
C  C141  1  0.33600708  0.99081055  0.27214906  1  -0.027197  0  -0.067272  -0.117405  0  3.939188  0
C  C142  1  0.71182494  0.04874930  0.22157985  1  -0.051901  0  0.01452  0.05332  0  3.964324  0
C  C143  1  0.21138304  0.17307879  0.22147294  1  0.037831  0  0.015285  0.053376  0  3.964607  0
C  C144  1  0.62870445  0.02523960  0.23807720  1  -0.006488  0  -0.082042  -0.120149  0  3.933746  0
C  C145  1  0.12817940  0.21310910  0.23787810  1  -0.038527  0  -0.081636  -0.119542  0  3.934821  0
C  C146  1  0.60120004  0.93867936  0.23052430  1  -0.026094  0  -0.05923  -0.044652  0  3.910352  0
C  C147  1  0.10080510  0.29215266  0.23034068  1  0.031945  0  -0.059836  -0.044647  0  3.911864  0
C  C148  1  0.65614197  0.87222624  0.20588128  1  0.050838  0  -0.010202  -0.026985  0  3.941531  0
C  C149  1  0.15583589  0.33402586  0.20578797  1  -0.005006  0  -0.010089  -0.026043  0  3.941462  0
C  C150  1  0.73810652  0.89380424  0.18819699  1  -0.050969  0  -0.068002  -0.113307  0  3.94259  0
C  C151  1  0.23782014  0.29471776  0.18813970  1  0.006316  0  -0.067806  -0.11441  0  3.943047  0
C  C152  1  0.76471174  0.98054236  0.19568953  1  0.265679  0  0.077491  0.013965  0  3.919372  0
C  C153  1  0.26436796  0.21544165  0.19564601  1  0.238805  0  0.076338  0.013865  0  3.92114  0
C  C154  1  0.94761158  0.08420474  0.83296471  1  1.598162  0  0.209508  0.595283  0  4.249896  0
C  C155  1  0.44823866  0.74856784  0.83274277  1  1.565885  0  0.209311  0.59546  0  4.253467  0
C  C156  1  0.94707420  0.16884814  0.82088538  1  0.019997  0  -0.007153  -0.020473  0  3.956771  0
C  C157  1  0.44751316  0.65189640  0.82081848  1  0.02896  0  -0.007774  -0.020539  0  3.956596  0
C  C158  1  0.02945225  0.23017050  0.84526735  1  -0.016937  0  -0.061382  -0.041712  0  3.911972  0
C  C159  1  0.52978544  0.61494575  0.84531295  1  0.054584  0  -0.061318  -0.040984  0  3.909252  0
C  C160  1  0.02661983  0.31087288  0.83676289  1  -0.030433  0  -0.082066  -0.126185  0  3.948922  0
C  C161  1  0.52681502  0.52575814  0.83693547  1  -0.048434  0  -0.081416  -0.125532  0  3.947538  0
C  C162  1  0.94386566  0.33159891  0.80198605  1  0.025796  0  0.013629  0.046814  0  3.972909  0
C  C163  1  0.44403702  0.47025939  0.80220303  1  0.003333  0  0.013951  0.047394  0  3.971442  0
C  C164  1  0.86600661  0.26559378  0.77399717  1  0.181672  0  0.079441  0.02172  0  3.923955  0
C  C165  1  0.36630124  0.50826890  0.77411225  1  0.217864  0  0.079194  0.021175  0  3.923957  0
C  C166  1  0.86561204  0.18677923  0.78481547  1  -0.015927  0  -0.062676  -0.12103  0  3.940188  0
C  C167  1  0.36607826  0.59790328  0.78476367  1  0.008632  0  -0.062398  -0.120636  0  3.940568  0
C  C168  1  0.75311356  0.66598415  0.30801136  1  1.572124  0  0.230317  0.620002  0  4.203061  0
C  C169  1  0.25321439  0.64230610  0.30800948  1  1.566007  0  0.22988  0.619962  0  4.204701  0
C  C170  1  0.78887724  0.69436347  0.36805548  1  -0.031153  0  -0.001717  -0.026746  0  3.963124  0
C  C171  1  0.28899616  0.67387673  0.36804367  1  -0.026498  0  -0.001898  -0.025846  0  3.962983  0
C  C172  1  0.88134857  0.74207284  0.39298205  1  0.111469  0  -0.061092  -0.129267  0  3.946378  0
C  C173  1  0.38147098  0.65110083  0.39300486  1  0.083014  0  -0.061821  -0.129752  0  3.945379  0
C  C174  1  0.91565527  0.76621202  0.44869920  1  0.084193  0  0.077156  0.017494  0  3.914084  0
C  C175  1  0.41562023  0.68250908  0.44873919  1  0.122177  0  0.07806  0.018146  0  3.915504  0
C  C176  1  0.86064710  0.74183838  0.48107148  1  0.056589  0  0.011432  0.047153  0  3.982597  0
C  C177  1  0.36048497  0.73908486  0.48112504  1  0.082746  0  0.01126  0.047778  0  3.982684  0
C  C178  1  0.76668239  0.69566279  0.45514720  1  -0.060775  0  -0.081619  -0.12101  0  3.937331  0
C  C179  1  0.26656843  0.75938426  0.45516902  1  -0.035466  0  -0.0827  -0.12178  0  3.937734  0
C  C180  1  0.73077187  0.67243662  0.39957061  1  -0.014186  0  -0.056867  -0.049745  0  3.901617  0
C  C181  1  0.23080387  0.72719372  0.39956749  1  -0.034761  0  -0.055788  -0.049417  0  3.903414  0
C  C182  1  0.93835725  0.84826730  0.71422208  1  1.590305  0  0.233323  0.613779  0  4.194447  0
C  C183  1  0.43792530  0.86584108  0.71425018  1  1.589034  0  0.23218  0.612999  0  4.19795  0
C  C184  1  0.88793335  0.76762391  0.54073191  1  0.060186  0  0.0175  0.0567  0  3.959096  0
C  C185  1  0.38770564  0.77287732  0.54079401  1  0.030051  0  0.017103  0.055145  0  3.960206  0
C  C186  1  0.96164173  0.73150119  0.57242615  1  0.271044  0  0.084944  0.023076  0  3.903158  0
C  C187  1  0.46116948  0.84088477  0.57248556  1  0.285552  0  0.085476  0.024597  0  3.902166  0
C  C188  1  0.97994390  0.75800300  0.62829920  1  0.01717  0  -0.055871  -0.102577  0  3.921652  0
C  C189  1  0.47940072  0.87031408  0.62834843  1  0.005939  0  -0.055561  -0.102943  0  3.921967  0
C  C190  1  0.92208088  0.81996920  0.65415040  1  -0.014332  0  -0.003685  -0.025673  0  3.947592  0
C  C191  1  0.42165628  0.83405410  0.65418030  1  0.0234  0  -0.003352  -0.026363  0  3.94875  0
C  C192  1  0.84735496  0.85563275  0.62344100  1  0.048648  0  -0.057094  -0.04647  0  3.909431  0
C  C193  1  0.34710586  0.76753925  0.62348015  1  -0.081678  0  -0.056781  -0.045947  0  3.908638  0
C  C194  1  0.83139066  0.83020120  0.56770118  1  -0.098748  0  -0.074594  -0.110647  0  3.926951  0
C  C195  1  0.33124186  0.73717325  0.56774264  1  0.014513  0  -0.074279  -0.109072  0  3.926705  0
C  C196  1  0.03646551  0.68326555  0.80405818  1  1.636078  0  0.222583  0.614357  0  4.233294  0
C  C197  1  0.53603456  0.12050584  0.80423233  1  1.622496  0  0.22542  0.617666  0  4.232414  0
C  C198  1  0.00427532  0.59157286  0.79990039  1  -0.011067  0  -0.00717  -0.01857  0  3.937424  0
C  C199  1  0.50397639  0.20802437  0.79999642  1  -0.009835  0  -0.009299  -0.021758  0  3.940955  0
C  C200  1  0.05370768  0.52128979  0.77473264  1  -0.034287  0  -0.065096  -0.045075  0  3.915636  0
C  C201  1  0.55345421  0.25304131  0.77480768  1  -0.082652  0  -0.063987  -0.043041  0  3.915765  0
C  C202  1  0.02825900  0.43743788  0.77365977  1  0.037948  0  -0.081224  -0.118576  0  3.93864  0
C  C203  1  0.52811356  0.33587115  0.77377735  1  0.007244  0  -0.080679  -0.118389  0  3.940465  0
C  C204  1  0.95212102  0.42014431  0.79716650  1  0.049563  0  0.013059  0.053205  0  3.97134  0
C  C205  1  0.45215234  0.37685262  0.79738671  1  0.072638  0  0.012519  0.051946  0  3.97171  0
C  C206  1  0.90148262  0.49168129  0.82131999  1  0.186298  0  0.077082  0.018419  0  3.906338  0
C  C207  1  0.40142217  0.32950699  0.82151455  1  0.177449  0  0.077773  0.018396  0  3.904595  0
C  C208  1  0.92681191  0.57576255  0.82245832  1  -0.008569  0  -0.072336  -0.129172  0  3.943466  0
C  C209  1  0.42656473  0.24648734  0.82256943  1  0.027798  0  -0.070818  -0.125745  0  3.942935  0
C  C210  1  0.62855465  0.77865532  0.19925645  1  1.629203  0  0.22209  0.614073  0  4.225995  0
C  C211  1  0.12829455  0.42102214  0.19924869  1  1.60779  0  0.223749  0.614656  0  4.226572  0
C  C212  1  0.41853861  0.52172184  0.97307867  1  0.257849  0  -0.136623  -0.286949  0  3.933464  0
C  C213  1  0.91842106  0.45142762  0.97314395  1  0.294173  0  -0.136156  -0.2862  0  3.932666  0
C  C214  1  0.48740112  0.63823391  0.05961143  1  0.235506  0  -0.127667  -0.270376  0  3.861641  0
C  C215  1  0.98782710  0.42185757  0.05973968  1  0.213029  0  -0.127425  -0.268143  0  3.862604  0
C  C216  1  0.54455141  0.49161204  0.04407408  1  1.404864  0  0.180756  0.317646  0  4.153697  0
C  C217  1  0.04433494  0.55291932  0.04397964  1  1.413564  0  0.180692  0.319193  0  4.152286  0
C  C218  1  0.98046504  0.95711705  0.98396538  1  1.394324  0  0.182769  0.32158  0  4.144735  0
C  C219  1  0.48072517  0.02668196  0.98407442  1  1.398355  0  0.183115  0.32221  0  4.145256  0
C  C220  1  0.89661237  0.08491980  0.97531310  1  0.250774  0  -0.122371  -0.267086  0  3.872216  0
C  C221  1  0.39696771  0.89025122  0.97562325  1  0.267326  0  -0.121896  -0.26755  0  3.871443  0
C  C222  1  0.92387405  0.04660310  0.06128392  1  0.313501  0  -0.133218  -0.287442  0  3.946538  0
C  C223  1  0.42420453  0.01471529  0.06145297  1  0.248111  0  -0.133208  -0.287637  0  3.945924  0
N  N224  1  0.85037068  0.99853486  0.17544384  1  0.354903  0  0.055025  0.521115  0  4.189857  0
N  N225  1  0.35012922  0.17724626  0.17549459  1  0.342526  0  0.054534  0.520834  0  4.19174  0
N  N226  1  0.68143454  0.87854482  0.03751456  1  0.360139  0  0.057202  0.52004  0  4.192354  0
N  N227  1  0.18137745  0.15873628  0.03751751  1  0.3649  0  0.058146  0.521101  0  4.194268  0
N  N228  1  0.68352971  0.60548020  0.98671028  1  0.39627  0  0.060291  0.523857  0  4.182837  0
N  N229  1  0.18343506  0.38099456  0.98672140  1  0.375031  0  0.06126  0.52526  0  4.186032  0
N  N230  1  0.90149213  0.15551860  0.29703912  1  0.360332  0  0.057072  0.517848  0  4.200457  0
N  N231  1  0.40100755  0.14183071  0.29696552  1  0.372414  0  0.05618  0.518426  0  4.200964  0
N  N232  1  0.78212925  0.27730229  0.73255062  1  0.365772  0  0.058752  0.526006  0  4.179707  0
N  N233  1  0.28244608  0.45512414  0.73264629  1  0.353973  0  0.059265  0.526988  0  4.17872  0
N  N234  1  0.01327578  0.81723550  0.47177200  1  0.375843  0  0.055813  0.51707  0  4.195212  0
N  N235  1  0.51318972  0.65450555  0.47187417  1  0.358792  0  0.056562  0.517185  0  4.195109  0
N  N236  1  0.82222351  0.48158941  0.84825271  1  0.362524  0  0.054037  0.514784  0  4.199507  0
N  N237  1  0.32220723  0.36665237  0.84846044  1  0.363144  0  0.053369  0.514111  0  4.196531  0
N  N238  1  0.48566882  0.54815468  0.02664903  1  -1.2221  0  -0.281818  0.020148  0  3.734341  0
N  N239  1  0.98569870  0.47886124  0.02668225  1  -1.21877  0  -0.282821  0.017647  0  3.736334  0
N  N240  1  0.93386901  0.02610718  0.00615450  1  -1.209181  0  -0.280127  0.01795  0  3.737081  0
N  N241  1  0.43427465  0.97992507  0.00633975  1  -1.216757  0  -0.28076  0.017345  0  3.735775  0
N  N242  1  0.02268840  0.66494780  0.54685472  1  0.366664  0  0.068701  0.538112  0  4.184859  0
N  N243  1  0.52224369  0.88180498  0.54689272  1  0.368476  0  0.067294  0.535845  0  4.183176  0
O  O244  1  0.90873718  0.94008290  0.16466596  1  -0.49284  0  -0.139393  -0.358128  0  1.961904  0
O  O245  1  0.40863129  0.22501039  0.16488248  1  -0.487904  0  -0.139735  -0.358626  0  1.96085  0
O  O246  1  0.78587758  0.86606419  0.82782499  1  -1.223103  0  -0.400407  -0.671184  0  2.258311  0
O  O247  1  0.28605947  0.96152427  0.82790005  1  -1.236752  0  -0.400196  -0.669936  0  2.258598  0
O  O248  1  0.88205561  0.08352640  0.30146063  1  -0.464315  0  -0.13571  -0.336515  0  1.915035  0
O  O249  1  0.38136754  0.21826278  0.30158167  1  -0.46516  0  -0.135044  -0.335674  0  1.913024  0
O  O250  1  0.66757068  0.94569904  0.86031298  1  -1.218997  0  -0.376474  -0.640496  0  2.205406  0
O  O251  1  0.16757562  0.91442912  0.86028208  1  -1.218372  0  -0.376096  -0.640302  0  2.203692  0
O  O252  1  0.67395981  0.52486183  0.97334981  1  -0.496146  0  -0.126856  -0.341465  0  1.932893  0
O  O253  1  0.17406389  0.44822137  0.97331479  1  -0.478236  0  -0.127071  -0.342309  0  1.93583  0
O  O254  1  0.66577285  0.95712122  0.04993273  1  -0.483809  0  -0.137561  -0.349364  0  1.922764  0
O  O255  1  0.16534685  0.09255563  0.04983121  1  -0.479042  0  -0.138185  -0.349795  0  1.920785  0
O  O256  1  0.65960976  0.82819554  0.06087989  1  -0.447127  0  -0.117982  -0.324562  0  1.953666  0
O  O257  1  0.15988652  0.23252726  0.06098617  1  -0.454836  0  -0.118084  -0.324474  0  1.9575  0
O  O258  1  0.00114466  0.63876580  0.19043546  1  -1.239382  0  -0.405916  -0.678062  0  2.314048  0
O  O259  1  0.50106078  0.55204933  0.19021378  1  -1.236934  0  -0.404732  -0.676914  0  2.312637  0
O  O260  1  0.85255130  0.56240004  0.16751922  1  -1.225023  0  -0.381577  -0.640256  0  2.189671  0
O  O261  1  0.35223815  0.60521385  0.16732679  1  -1.224328  0  -0.381729  -0.640304  0  2.188916  0
O  O262  1  0.70780490  0.45062139  0.22465105  1  -1.223142  0  -0.388916  -0.647299  0  2.182516  0
O  O263  1  0.20766083  0.77435380  0.22476562  1  -1.238526  0  -0.389468  -0.647961  0  2.180774  0
O  O264  1  0.86122597  0.07084779  0.16926854  1  -0.481024  0  -0.127739  -0.337612  0  1.952839  0
O  O265  1  0.36095839  0.09873329  0.16923270  1  -0.465829  0  -0.126582  -0.336633  0  1.953368  0
O  O266  1  0.86400954  0.45741244  0.27753831  1  -1.236372  0  -0.363585  -0.648582  0  2.218214  0
O  O267  1  0.36389658  0.82063062  0.27756732  1  -1.231526  0  -0.363868  -0.64904  0  2.218322  0
O  O268  1  0.62463848  0.65063079  0.96570071  1  -0.459411  0  -0.109927  -0.322266  0  1.978529  0
O  O269  1  0.12437929  0.31495369  0.96575628  1  -0.456142  0  -0.110484  -0.322359  0  1.977801  0
O  O270  1  0.98453059  0.19778801  0.31754129  1  -0.461547  0  -0.138266  -0.340953  0  1.914971  0
O  O271  1  0.48418680  0.12006878  0.31730378  1  -0.462766  0  -0.138107  -0.341766  0  1.916671  0
O  O272  1  0.68011183  0.72131283  0.17527924  1  -1.230639  0  -0.391067  -0.637325  0  2.174572  0
O  O273  1  0.18003238  0.45448855  0.17539522  1  -1.226983  0  -0.392487  -0.63812  0  2.174445  0
O  O274  1  0.55622775  0.76355099  0.21849024  1  -1.227913  0  -0.393324  -0.662892  0  2.208285  0
O  O275  1  0.05586403  0.45527674  0.21840176  1  -1.231044  0  -0.393511  -0.662334  0  2.208266  0
O  O276  1  0.98525011  0.74325462  0.82554767  1  -1.229651  0  -0.388922  -0.636225  0  2.188593  0
O  O277  1  0.48485875  0.08227600  0.82586993  1  -1.229449  0  -0.38896  -0.636697  0  2.189031  0
O  O278  1  0.03133930  0.06032003  0.85329961  1  -1.200649  0  -0.363606  -0.603759  0  2.172899  0
O  O279  1  0.53209888  0.79255704  0.85286901  1  -1.199466  0  -0.363133  -0.603519  0  2.17534  0
O  O280  1  0.86333990  0.04011362  0.82179726  1  -1.24331  0  -0.416118  -0.686256  0  2.251334  0
O  O281  1  0.36404476  0.78173867  0.82174181  1  -1.242219  0  -0.416416  -0.687261  0  2.253174  0
O  O282  1  0.77049202  0.35093941  0.72825492  1  -0.456238  0  -0.123848  -0.32434  0  1.921636  0
O  O283  1  0.27063623  0.37724894  0.72844631  1  -0.449994  0  -0.123335  -0.32429  0  1.923704  0
O  O284  1  0.72523029  0.21192160  0.70263909  1  -0.51104  0  -0.146912  -0.373311  0  1.94535  0
O  O285  1  0.22576927  0.49056558  0.70262721  1  -0.511031  0  -0.147738  -0.374251  0  1.942436  0
O  O286  1  0.65884052  0.65023759  0.28741483  1  -1.228754  0  -0.394532  -0.660988  0  2.286341  0
O  O287  1  0.15890778  0.63717430  0.28744418  1  -1.223205  0  -0.394579  -0.661204  0  2.287895  0
O  O288  1  0.81794122  0.65719217  0.27983088  1  -1.221179  0  -0.390162  -0.665149  0  2.252781  0
O  O289  1  0.31801483  0.62327286  0.27979547  1  -1.220041  0  -0.390306  -0.665424  0  2.254548  0
O  O290  1  0.04421886  0.85527108  0.44395034  1  -0.446089  0  -0.124266  -0.321821  0  1.896836  0
O  O291  1  0.54429111  0.58875006  0.44402684  1  -0.44664  0  -0.125919  -0.323565  0  1.898052  0
O  O292  1  0.02436039  0.84434286  0.74331544  1  -1.229751  0  -0.390872  -0.648195  0  2.281328  0
O  O293  1  0.52388024  0.89899247  0.74331884  1  -1.231782  0  -0.390717  -0.647444  0  2.279661  0
O  O294  1  0.86332500  0.87552735  0.73379765  1  -1.222997  0  -0.346497  -0.637015  0  2.257575  0
O  O295  1  0.36292520  0.85807720  0.73381890  1  -1.218855  0  -0.346995  -0.63733  0  2.26161  0
O  O296  1  0.11259645  0.69276890  0.78616964  1  -1.216118  0  -0.38793  -0.647149  0  2.199335  0
O  O297  1  0.61204166  0.09286183  0.78629301  1  -1.217637  0  -0.390877  -0.649577  0  2.200439  0
O  O298  1  0.79688581  0.40779985  0.84803270  1  -0.472319  0  -0.12388  -0.328271  0  1.962173  0
O  O299  1  0.29699412  0.44025922  0.84824230  1  -0.460873  0  -0.123955  -0.328107  0  1.960515  0
O  O300  1  0.78419813  0.54831185  0.87095838  1  -0.47969  0  -0.138344  -0.354081  0  1.95935  0
O  O301  1  0.28410031  0.32270884  0.87116924  1  -0.494752  0  -0.138016  -0.353677  0  1.95915  0
O  O302  1  0.60574367  0.50768040  0.08880872  1  -1.215719  0  -0.366826  -0.538977  0  2.307734  0
O  O303  1  0.10550519  0.58184639  0.08870717  1  -1.218077  0  -0.365972  -0.539328  0  2.305196  0
O  O304  1  0.50210179  0.81069161  0.36316490  1  -1.247637  0  -0.611304  -0.809769  0  1.89288  0
O  O305  1  0.00221002  0.55283014  0.36326111  1  -1.251917  0  -0.610401  -0.807353  0  1.895655  0
O  O306  1  0.51276053  0.54465247  0.30159907  1  -1.212856  0  -0.57982  -0.774503  0  1.995592  0
O  O307  1  0.01329259  0.75749992  0.30188627  1  -1.222333  0  -0.579332  -0.77533  0  1.994439  0
O  O308  1  0.67776344  0.80047353  0.69141608  1  -1.253593  0  -0.606381  -0.790219  0  1.954686  0
O  O309  1  0.17758831  0.89108440  0.69137526  1  -1.256826  0  -0.605539  -0.789504  0  1.955409  0
O  O310  1  0.69623652  0.01867198  0.68329049  1  -1.279446  0  -0.606394  -0.804026  0  1.94544  0
O  O311  1  0.19616056  0.66440526  0.68328880  1  -1.298375  0  -0.605678  -0.804094  0  1.946122  0
O  O312  1  0.99345626  0.93784325  0.93740229  1  -1.209256  0  -0.363607  -0.531488  0  2.30707  0
O  O313  1  0.49373673  0.99937909  0.93752082  1  -1.208458  0  -0.363027  -0.530916  0  2.308305  0
O  O314  1  0.99371548  0.62712111  0.49793060  1  -0.460517  0  -0.121755  -0.336489  0  1.951795  0
O  O315  1  0.49329163  0.87063101  0.49795809  1  -0.456281  0  -0.121422  -0.335863  0  1.951189  0
O  O316  1  0.06079841  0.81864310  0.51754166  1  -0.485733  0  -0.136999  -0.349112  0  1.947696  0
O  O317  1  0.56050570  0.69872097  0.51772663  1  -0.473862  0  -0.136546  -0.348178  0  1.94624  0
O  O318  1  0.10218856  0.64903929  0.57508517  1  -0.496309  0  -0.132635  -0.358778  0  1.970937  0
O  O319  1  0.60175046  0.92590040  0.57511635  1  -0.509087  0  -0.132335  -0.358175  0  1.969971  0
