# generated using pymatgen
data_CuH20C28(NO2)2
_symmetry_space_group_name_H-M   'P 1'
_cell_length_a   5.36066725
_cell_length_b   27.72014607
_cell_length_c   27.72188375
_cell_angle_alpha   89.47613058
_cell_angle_beta   84.43681080
_cell_angle_gamma   84.45789903
_symmetry_Int_Tables_number   1
_chemical_formula_structural   CuH20C28(NO2)2
_chemical_formula_sum   'Cu4 H80 C112 N8 O16'
_cell_volume   4080.86112273
_cell_formula_units_Z   4
loop_
 _symmetry_equiv_pos_site_id
 _symmetry_equiv_pos_as_xyz
  1  'x, y, z'
loop_
 _atom_site_type_symbol
 _atom_site_label
 _atom_site_symmetry_multiplicity
 _atom_site_fract_x
 _atom_site_fract_y
 _atom_site_fract_z
 _atom_site_occupancy
 _atom_site_pbe_bader_charge
 _atom_site_pbe_bader_spin_density
 _atom_site_pbe_cm5_charge
 _atom_site_pbe_ddec_charge
 _atom_site_pbe_ddec_spin_density
 _atom_site_pbe_ddec_sum_bond_order
 _atom_site_pbe_magmom
Cu  Cu0  1  0.00000283  0.99999976  0.99999968  1  1.038897  0.5519  0.734905  0.734206  0.719261  2.21491  0.552
Cu  Cu1  1  0.99999434  0.00000004  0.49999938  1  1.042726  0.551812  0.734411  0.734075  0.719184  2.210832  0.552
Cu  Cu2  1  0.49999996  0.49999958  0.50000059  1  1.039804  0.551809  0.735118  0.735591  0.719251  2.209648  0.552
Cu  Cu3  1  0.99999787  0.50000046  0.99999964  1  1.041835  0.551923  0.734878  0.735235  0.719309  2.211667  0.552
H  H4  1  0.75935475  0.17693012  0.05803097  1  0.10472  -3e-06  0.106504  0.114239  -2.5e-05  0.996248  0.0
H  H5  1  0.81786599  0.94199331  0.67697768  1  0.103733  -3e-06  0.106489  0.11369  -2.5e-05  0.997066  0.0
H  H6  1  0.49489004  0.32299938  0.44184183  1  0.11922  -2e-06  0.106675  0.114307  -2.5e-05  0.997821  0.0
H  H7  1  0.93543148  0.55804638  0.82297706  1  0.114425  -2e-06  0.106514  0.114155  -2.5e-05  0.996629  0.0
H  H8  1  0.24063544  0.82307159  0.94196746  1  0.104861  -3e-06  0.106506  0.114208  -2.5e-05  0.996256  0.0
H  H9  1  0.18213394  0.05800441  0.32302421  1  0.103766  -3e-06  0.10648  0.113709  -2.5e-05  0.99712  0.0
H  H10  1  0.50510383  0.67700160  0.55815888  1  0.119202  -2e-06  0.106678  0.114318  -2.5e-05  0.997828  0.0
H  H11  1  0.06456864  0.44195460  0.17702304  1  0.114447  -2e-06  0.106529  0.114183  -2.5e-05  0.996664  0.0
H  H12  1  0.51482079  0.46207275  0.03911304  1  0.17521  0.001378  0.119453  0.098537  0.000453  1.033328  0.001
H  H13  1  0.55372382  0.96089421  0.96206996  1  0.180217  0.001371  0.120075  0.100628  0.000452  1.032219  0.001
H  H14  1  0.51632622  0.03794195  0.46098770  1  0.139905  0.001399  0.11984  0.099327  0.000447  1.033184  0.001
H  H15  1  0.97676300  0.53905596  0.53790255  1  0.176138  0.001369  0.119349  0.099087  0.000449  1.033959  0.001
H  H16  1  0.48518888  0.53792678  0.96088759  1  0.175158  0.001378  0.119416  0.098505  0.000453  1.033351  0.001
H  H17  1  0.44627133  0.03910641  0.03792966  1  0.180211  0.00137  0.120046  0.100582  0.000452  1.032282  0.001
H  H18  1  0.48367408  0.96205867  0.53901240  1  0.139849  0.001399  0.11987  0.099378  0.000447  1.033101  0.001
H  H19  1  0.02323564  0.46094357  0.46209787  1  0.176205  0.001369  0.11935  0.09911  0.000449  1.03389  0.001
H  H20  1  0.31938499  0.38674404  0.03642013  1  0.147484  0.000989  0.110948  0.12723  0.000515  1.010196  0.001
H  H21  1  0.35679187  0.96342790  0.88662207  1  0.122476  0.001005  0.111041  0.127306  0.000517  1.010355  0.001
H  H22  1  0.24363166  0.11334541  0.46353572  1  0.124919  0.001004  0.11051  0.125943  0.000515  1.010583  0.001
H  H23  1  0.70647358  0.53654413  0.61331323  1  0.125525  0.001002  0.110947  0.126805  0.000516  1.009967  0.001
H  H24  1  0.68062340  0.61325658  0.96357939  1  0.147454  0.000989  0.110949  0.127248  0.000515  1.010179  0.001
H  H25  1  0.64321082  0.03657308  0.11337734  1  0.122451  0.001006  0.111028  0.127293  0.000517  1.010307  0.001
H  H26  1  0.75636846  0.88665484  0.53646474  1  0.124914  0.001004  0.110519  0.125968  0.000515  1.010564  0.001
H  H27  1  0.29352542  0.46345540  0.38668683  1  0.12552  0.001002  0.110935  0.126859  0.000516  1.009917  0.001
H  H28  1  0.55912904  0.20668645  0.96076903  1  0.060247  3.2e-05  0.099133  0.097827  1.1e-05  1.015118  0.0
H  H29  1  0.52024005  0.03928739  0.70673443  1  0.056059  3.2e-05  0.099366  0.097904  1.1e-05  1.015401  0.0
H  H30  1  0.22587288  0.29324444  0.53934201  1  0.058215  3.2e-05  0.099028  0.09735  1.1e-05  1.015765  0.0
H  H31  1  0.76548867  0.46096450  0.79327080  1  0.073774  3.2e-05  0.099068  0.097801  1.1e-05  1.015551  0.0
H  H32  1  0.44086721  0.79331345  0.03923172  1  0.060203  3.2e-05  0.099125  0.097785  1.1e-05  1.015123  0.0
H  H33  1  0.47976463  0.96071105  0.29326242  1  0.055969  3.2e-05  0.099388  0.09796  1.1e-05  1.015442  0.0
H  H34  1  0.77413420  0.70675582  0.46065527  1  0.058214  3.2e-05  0.09901  0.097338  1.1e-05  1.015729  0.0
H  H35  1  0.23451310  0.53903539  0.20673006  1  0.073874  3.2e-05  0.099071  0.097819  1.1e-05  1.015532  0.0
H  H36  1  0.11420001  0.41251828  0.94039543  1  0.144686  0.00147  0.11791  0.097536  0.0006  1.015494  0.001
H  H37  1  0.05449055  0.05963380  0.91265673  1  0.144551  0.001465  0.117508  0.096202  0.000597  1.016654  0.001
H  H38  1  0.96754702  0.08749499  0.55965484  1  0.153191  0.001456  0.117921  0.097018  0.000597  1.017395  0.001
H  H39  1  0.52650078  0.44036906  0.58741358  1  0.147761  0.001461  0.11789  0.096321  0.000597  1.017373  0.001
H  H40  1  0.88580985  0.58748089  0.05960521  1  0.14473  0.00147  0.117922  0.09765  0.0006  1.015477  0.001
H  H41  1  0.94550865  0.94036682  0.08734445  1  0.144009  0.001466  0.117499  0.096165  0.000598  1.016702  0.001
H  H42  1  0.03245512  0.91250563  0.44034529  1  0.153154  0.001456  0.117922  0.097039  0.000597  1.017397  0.001
H  H43  1  0.47350063  0.55963083  0.41258763  1  0.147772  0.001462  0.117866  0.09632  0.000597  1.017342  0.001
H  H44  1  0.41380164  0.12466947  0.96497671  1  0.113283  0.000514  0.103734  0.113251  0.000439  1.00044  0.0
H  H45  1  0.37893445  0.03512261  0.62472162  1  0.07738  0.000523  0.104149  0.112939  0.00044  1.001413  0.0
H  H46  1  0.00275173  0.37524418  0.53515753  1  0.102068  0.000512  0.103729  0.11339  0.00044  1.00076  0.0
H  H47  1  0.53781713  0.46513886  0.87528242  1  0.075753  0.000526  0.103841  0.112951  0.000442  1.001282  0.0
H  H48  1  0.58619701  0.87533078  0.03502519  1  0.113221  0.000514  0.103718  0.113203  0.000439  1.000476  0.0
H  H49  1  0.62106709  0.96487330  0.37527588  1  0.077344  0.000524  0.104132  0.112884  0.00044  1.001377  0.0
H  H50  1  0.99725739  0.62475644  0.46484127  1  0.102046  0.000512  0.103754  0.113432  0.00044  1.000739  0.0
H  H51  1  0.46217656  0.53486176  0.12471865  1  0.075745  0.000526  0.10383  0.112947  0.000442  1.001279  0.0
H  H52  1  0.90267323  0.26037882  0.05466324  1  0.053181  0.000219  0.10077  0.101924  0.000114  0.998905  0.0
H  H53  1  0.95806645  0.94531229  0.76040378  1  0.051196  0.000219  0.10086  0.1016  0.000115  0.999463  0.0
H  H54  1  0.71823092  0.23957586  0.44523317  1  0.041802  0.00022  0.100916  0.101826  0.000114  0.998889  0.0
H  H55  1  0.16253731  0.55470751  0.73956496  1  0.047138  0.000219  0.101  0.102544  0.000114  0.998601  0.0
H  H56  1  0.09731862  0.73962252  0.94533560  1  0.053234  0.000219  0.100773  0.101936  0.000114  0.998898  0.0
H  H57  1  0.04193588  0.05468869  0.23959783  1  0.051231  0.000219  0.100832  0.101568  0.000114  0.99949  0.0
H  H58  1  0.28176423  0.76042403  0.55476682  1  0.041814  0.00022  0.100934  0.101847  0.000114  0.9989  0.0
H  H59  1  0.83746372  0.44529238  0.26043478  1  0.047142  0.000219  0.101008  0.102543  0.000114  0.998592  0.0
H  H60  1  0.94428275  0.33235415  0.93367220  1  0.07457  0.00115  0.106106  0.112827  0.000604  0.996448  0.001
H  H61  1  0.87825827  0.06636623  0.83244906  1  0.072318  0.001152  0.106387  0.113459  0.000604  0.995435  0.001
H  H62  1  0.71102184  0.16771456  0.56631735  1  0.069941  0.001155  0.105858  0.112779  0.000604  0.996307  0.001
H  H63  1  0.27657298  0.43373558  0.66763413  1  0.077179  0.001147  0.105624  0.112051  0.000603  0.996754  0.001
H  H64  1  0.05572490  0.66764574  0.06632840  1  0.074586  0.00115  0.106109  0.112878  0.000604  0.996399  0.001
H  H65  1  0.12174406  0.93363402  0.16755107  1  0.072332  0.001152  0.106382  0.113428  0.000604  0.995499  0.001
H  H66  1  0.28898673  0.83228715  0.43368145  1  0.070036  0.001155  0.105825  0.112767  0.000604  0.996311  0.001
H  H67  1  0.72342475  0.56626431  0.33236701  1  0.077114  0.001147  0.105598  0.112027  0.000603  0.996715  0.001
H  H68  1  0.64500541  0.27813000  0.95767562  1  0.07258  5.1e-05  0.099922  0.09857  4.5e-05  1.014497  0.0
H  H69  1  0.60354864  0.04226653  0.77814423  1  0.056384  5.3e-05  0.100234  0.098747  4.5e-05  1.013848  0.0
H  H70  1  0.38115522  0.22197613  0.54220614  1  0.050697  5.3e-05  0.100025  0.098212  4.5e-05  1.014811  0.0
H  H71  1  0.92283990  0.45779347  0.72186846  1  0.058231  5.2e-05  0.100265  0.098708  4.5e-05  1.0137  0.0
H  H72  1  0.35499691  0.72186953  0.04232487  1  0.072586  5.1e-05  0.099924  0.098592  4.5e-05  1.014472  0.0
H  H73  1  0.39646083  0.95773336  0.22185457  1  0.056245  5.3e-05  0.100212  0.098735  4.5e-05  1.013917  0.0
H  H74  1  0.61884452  0.77802485  0.45779248  1  0.050206  5.3e-05  0.100022  0.098192  4.5e-05  1.014815  0.0
H  H75  1  0.07716278  0.54220534  0.27813203  1  0.058273  5.2e-05  0.100248  0.098654  4.5e-05  1.013824  0.0
H  H76  1  0.20224157  0.31418834  0.03177938  1  0.063942  8e-05  0.105465  0.103107  5.7e-05  0.998148  0.0
H  H77  1  0.23493562  0.96815305  0.81417113  1  0.052665  7.8e-05  0.105268  0.103158  5.7e-05  0.998651  0.0
H  H78  1  0.04859168  0.18574244  0.46820698  1  0.08342  8.1e-05  0.105384  0.103182  5.7e-05  0.998488  0.0
H  H79  1  0.51663551  0.53193794  0.68578381  1  0.03918  7.9e-05  0.104778  0.101897  5.7e-05  0.999133  0.0
H  H80  1  0.79775910  0.68581300  0.96822000  1  0.063953  8e-05  0.105454  0.103125  5.7e-05  0.9981  0.0
H  H81  1  0.76506469  0.03184901  0.18582825  1  0.052613  7.8e-05  0.105268  0.103126  5.7e-05  0.998583  0.0
H  H82  1  0.95140805  0.81425709  0.53179236  1  0.083467  8.1e-05  0.105398  0.103167  5.7e-05  0.998502  0.0
H  H83  1  0.48336663  0.46806195  0.31421668  1  0.039148  7.9e-05  0.104766  0.101867  5.7e-05  0.999127  0.0
C  C84  1  0.93331528  0.18436409  0.03682317  1  0.012016  0.000745  -0.083225  -0.091052  0.000384  3.987364  0.001
C  C85  1  0.97057167  0.96320871  0.68441107  1  0.002889  0.00075  -0.083604  -0.092114  0.000385  3.986927  0.001
C  C86  1  0.65474479  0.31556884  0.46312678  1  -0.079569  0.000768  -0.083033  -0.090656  0.000383  3.987242  0.001
C  C87  1  0.11694244  0.53687632  0.81556461  1  -0.064492  0.000751  -0.083279  -0.090596  0.000384  3.985055  0.001
C  C88  1  0.06667270  0.81563689  0.96317595  1  0.01152  0.000746  -0.083198  -0.090955  0.000384  3.987351  0.001
C  C89  1  0.02942880  0.03678864  0.31559046  1  0.002198  0.00075  -0.083602  -0.092122  0.000384  3.986991  0.001
C  C90  1  0.34525753  0.68443141  0.53687336  1  -0.079564  0.000769  -0.083059  -0.090738  0.000383  3.987193  0.001
C  C91  1  0.88305657  0.46312466  0.18443473  1  -0.064883  0.000752  -0.083332  -0.090706  0.000384  3.985184  0.001
C  C92  1  0.60434962  0.43274528  0.01576059  1  0.372199  -0.000285  0.049533  0.105468  -0.000904  3.918096  0.0
C  C93  1  0.62015641  0.98421922  0.93274562  1  0.445187  -0.00041  0.047397  0.101147  -0.000879  3.918361  0.0
C  C94  1  0.55334545  0.06730093  0.48428757  1  0.475462  -0.000441  0.04868  0.104195  -0.000903  3.917432  0.0
C  C95  1  0.03699650  0.51574458  0.56723850  1  0.41761  -0.000348  0.047555  0.101638  -0.000882  3.92089  0.0
C  C96  1  0.39566024  0.56725462  0.98423968  1  0.371618  -0.000283  0.049641  0.105632  -0.000903  3.918358  0.0
C  C97  1  0.37984039  0.01578176  0.06725404  1  0.445043  -0.00041  0.047403  0.10113  -0.000879  3.918382  0.0
C  C98  1  0.44665688  0.93270005  0.51571220  1  0.475391  -0.00044  0.048595  0.104098  -0.000902  3.917398  0.0
C  C99  1  0.96300398  0.48425495  0.43276196  1  0.417657  -0.000347  0.047593  0.101695  -0.000882  3.92067  0.0
C  C100  1  0.61576114  0.35122052  0.98462270  1  -0.007379  -0.003218  0.00464  0.149366  -0.003562  4.039707  -0.002
C  C101  1  0.60116357  0.01531384  0.85121088  1  -0.025969  -0.003207  0.006151  0.15057  -0.00355  4.039852  -0.002
C  C102  1  0.45254525  0.14886508  0.51534509  1  -0.022814  -0.003208  0.005896  0.149839  -0.003553  4.038827  -0.002
C  C103  1  0.96713150  0.48471112  0.64879438  1  -0.040965  -0.003206  0.004855  0.148765  -0.003549  4.037407  -0.002
C  C104  1  0.38424559  0.64877901  0.01537715  1  -0.007432  -0.003218  0.004633  0.149412  -0.003562  4.039674  -0.002
C  C105  1  0.39884371  0.98468678  0.14878789  1  -0.026344  -0.003207  0.00613  0.150561  -0.00355  4.039871  -0.002
C  C106  1  0.54745689  0.85113554  0.48465505  1  -0.022996  -0.003207  0.00589  0.149846  -0.003552  4.038852  -0.002
C  C107  1  0.03287063  0.51528805  0.35120647  1  -0.040968  -0.003206  0.004891  0.148784  -0.003548  4.037452  -0.002
C  C108  1  0.49580005  0.38949947  0.01401657  1  -0.020242  0.005758  -0.080444  -0.170926  0.003907  3.901668  0.005
C  C109  1  0.51051811  0.98588053  0.88944503  1  -0.056325  0.005913  -0.080626  -0.170558  0.003906  3.90003  0.005
C  C110  1  0.40024739  0.11058617  0.48596353  1  -0.047145  0.00588  -0.078936  -0.167446  0.003896  3.900614  0.005
C  C111  1  0.88548463  0.51410507  0.61052920  1  -0.023383  0.005825  -0.079483  -0.168266  0.0039  3.899606  0.005
C  C112  1  0.50420576  0.61050043  0.98598400  1  -0.019711  0.005756  -0.080473  -0.171045  0.003906  3.901831  0.005
C  C113  1  0.48948145  0.01411936  0.11055431  1  -0.055849  0.005912  -0.080583  -0.17051  0.003905  3.900083  0.005
C  C114  1  0.59975071  0.88941445  0.51403690  1  -0.046705  0.005879  -0.078862  -0.167363  0.003895  3.90059  0.005
C  C115  1  0.11451419  0.48589410  0.38947123  1  -0.023572  0.005825  -0.07955  -0.168461  0.0039  3.899624  0.005
C  C116  1  0.38109572  0.20103814  0.98152106  1  0.004072  -0.000366  -0.089683  -0.1286  -0.000481  3.974491  0.0
C  C117  1  0.36306760  0.01851577  0.70106673  1  -0.051775  -0.000366  -0.09031  -0.130363  -0.000479  3.974056  0.0
C  C118  1  0.06315076  0.29890880  0.51855154  1  -0.000375  -0.000366  -0.0894  -0.127914  -0.00048  3.973376  0.0
C  C119  1  0.58180787  0.48170180  0.79893076  1  -0.088443  -0.000366  -0.089675  -0.129847  -0.000478  3.973806  0.0
C  C120  1  0.61890054  0.79896248  0.01847932  1  0.004401  -0.000366  -0.089631  -0.128469  -0.000481  3.974454  0.0
C  C121  1  0.63693855  0.98148195  0.29893087  1  -0.051443  -0.000366  -0.090402  -0.130599  -0.000479  3.974206  0.0
C  C122  1  0.93685413  0.70109145  0.48144790  1  -0.000371  -0.000366  -0.089419  -0.12793  -0.00048  3.97351  0.0
C  C123  1  0.41819187  0.51829773  0.20107042  1  -0.088509  -0.000366  -0.089698  -0.129897  -0.000478  3.973793  0.0
C  C124  1  0.93887184  0.40459937  0.96075205  1  0.432819  -0.000603  0.039616  0.086106  -0.001014  3.963413  0.0
C  C125  1  0.89966319  0.03927309  0.90467960  1  0.393418  -0.000515  0.040356  0.089007  -0.001025  3.963567  0.0
C  C126  1  0.80480630  0.09543555  0.53928478  1  0.416737  -0.000545  0.039821  0.087162  -0.001008  3.963683  0.0
C  C127  1  0.34333547  0.46073331  0.59535725  1  0.443431  -0.000609  0.040198  0.08822  -0.00101  3.961571  0.0
C  C128  1  0.06113636  0.59539943  0.03924855  1  0.432853  -0.000604  0.039684  0.08604  -0.001014  3.963429  0.0
C  C129  1  0.10033748  0.96072753  0.09532013  1  0.394004  -0.000516  0.040395  0.089075  -0.001024  3.963678  0.0
C  C130  1  0.19520172  0.90456579  0.46071474  1  0.416327  -0.000545  0.039764  0.087033  -0.001008  3.963793  0.0
C  C131  1  0.65666630  0.53926658  0.40464361  1  0.443427  -0.000609  0.04026  0.088263  -0.00101  3.961557  0.0
C  C132  1  0.07651991  0.14606056  0.01146124  1  -0.080636  0.007801  -0.015002  -0.01959  0.005489  3.947171  0.006
C  C133  1  0.08836076  0.98857949  0.64610571  1  -0.072645  0.007847  -0.013826  -0.015613  0.00551  3.943248  0.006
C  C134  1  0.73387399  0.35387514  0.48855116  1  -0.052338  0.007777  -0.014716  -0.019198  0.005503  3.94838  0.006
C  C135  1  0.22187133  0.51155108  0.85387818  1  -0.047003  0.007757  -0.01453  -0.019324  0.005503  3.947332  0.006
C  C136  1  0.92346936  0.85394006  0.98853864  1  -0.080309  0.007801  -0.01502  -0.019656  0.005489  3.947207  0.006
C  C137  1  0.91163860  0.01141787  0.35389507  1  -0.072357  0.007844  -0.013832  -0.01568  0.005509  3.943299  0.006
C  C138  1  0.26612852  0.64612548  0.51144861  1  -0.05236  0.007777  -0.014685  -0.019146  0.005503  3.94834  0.006
C  C139  1  0.77812897  0.48844954  0.14612191  1  -0.046612  0.007756  -0.014515  -0.019372  0.005502  3.947428  0.006
C  C140  1  0.99091416  0.09610691  0.01508572  1  1.570803  -0.001684  0.192164  0.545304  -0.002134  4.233846  -0.004
C  C141  1  0.00670141  0.98487870  0.59613823  1  1.555354  -0.001708  0.19203  0.544904  -0.00212  4.232729  -0.004
C  C142  1  0.60237256  0.40385725  0.48487459  1  1.553224  -0.001652  0.191483  0.545269  -0.002119  4.235014  -0.004
C  C143  1  0.08656254  0.51516241  0.90386786  1  1.545621  -0.001632  0.193512  0.549019  -0.002123  4.233977  -0.004
C  C144  1  0.00907750  0.90389334  0.98491384  1  1.571128  -0.001685  0.192237  0.545453  -0.002134  4.233692  -0.004
C  C145  1  0.99328233  0.01511829  0.40386335  1  1.556355  -0.001707  0.192098  0.544905  -0.002121  4.232661  -0.004
C  C146  1  0.39762664  0.59614337  0.51512658  1  1.553389  -0.001652  0.19138  0.545174  -0.002119  4.235037  -0.004
C  C147  1  0.91343390  0.48483857  0.09613216  1  1.545578  -0.001633  0.19356  0.549137  -0.002123  4.233863  -0.004
C  C148  1  0.30107849  0.15489030  0.98374221  1  -0.067588  0.000285  -0.083666  -0.087021  0.000192  3.979456  0.0
C  C149  1  0.28511818  0.01632542  0.65493135  1  0.032469  0.000271  -0.084184  -0.087571  0.000187  3.978875  0.0
C  C150  1  0.93914210  0.34504540  0.51634969  1  -0.053877  0.000285  -0.084063  -0.087871  0.000191  3.980732  0.0
C  C151  1  0.45539953  0.48388766  0.84506533  1  0.027866  0.000282  -0.084234  -0.086512  0.000194  3.977914  0.0
C  C152  1  0.69891539  0.84510996  0.01625886  1  -0.067633  0.000285  -0.083698  -0.087016  0.000192  3.979466  0.0
C  C153  1  0.71488631  0.98367122  0.34506659  1  0.03265  0.000271  -0.084075  -0.087337  0.000188  3.978717  0.0
C  C154  1  0.06086536  0.65495486  0.48364907  1  -0.053853  0.000285  -0.084109  -0.087982  0.000191  3.980844  0.0
C  C155  1  0.54459893  0.51611296  0.15493473  1  0.027867  0.000282  -0.084188  -0.086436  0.000194  3.977892  0.0
C  C156  1  0.23968435  0.23992423  0.00719737  1  -0.050659  -0.000256  -0.014806  0.095182  -0.000304  4.056635  0.0
C  C157  1  0.24760190  0.99277448  0.73993530  1  -0.02927  -0.000255  -0.014992  0.096714  -0.000305  4.0538  0.0
C  C158  1  0.98680869  0.26001583  0.49280660  1  -0.069263  -0.000259  -0.015723  0.094049  -0.000306  4.05361  0.0
C  C159  1  0.47936292  0.50735720  0.76004368  1  -0.032281  -0.000255  -0.014782  0.095593  -0.000304  4.055184  0.0
C  C160  1  0.76030878  0.76007675  0.99280222  1  -0.051074  -0.000256  -0.014806  0.095133  -0.000304  4.056527  0.0
C  C161  1  0.75240170  0.00722614  0.26006339  1  -0.029383  -0.000255  -0.015022  0.096792  -0.000305  4.05362  0.0
C  C162  1  0.01318718  0.73998334  0.50719302  1  -0.06927  -0.000259  -0.015702  0.094091  -0.000306  4.053617  0.0
C  C163  1  0.52063518  0.49264270  0.23995710  1  -0.032287  -0.000255  -0.014769  0.095621  -0.000304  4.055141  0.0
C  C164  1  0.01414636  0.23060715  0.03476182  1  -0.055183  0.000244  -0.088324  -0.131991  7.8e-05  3.973912  0.0
C  C165  1  0.04947972  0.96524057  0.73063854  1  -0.063842  0.000245  -0.088503  -0.131588  8.2e-05  3.973815  0.0
C  C166  1  0.77975135  0.26933705  0.46519389  1  0.007868  0.00023  -0.08823  -0.131449  8e-05  3.97275  0.0
C  C167  1  0.24423101  0.53483617  0.76933684  1  0.010942  0.000234  -0.088903  -0.133573  8.1e-05  3.97204  0.0
C  C168  1  0.98584732  0.76939419  0.96523705  1  -0.055096  0.000244  -0.088332  -0.132009  7.8e-05  3.973934  0.0
C  C169  1  0.95052609  0.03475933  0.26936202  1  -0.063746  0.000245  -0.088446  -0.131566  8.2e-05  3.973761  0.0
C  C170  1  0.22024895  0.73066357  0.53480621  1  0.007815  0.00023  -0.088233  -0.131427  8.1e-05  3.972639  0.0
C  C171  1  0.75577168  0.46516409  0.23066293  1  0.010967  0.000234  -0.088876  -0.133493  8.2e-05  3.971957  0.0
C  C172  1  0.84143949  0.36040930  0.95714578  1  -0.026485  0.005471  -0.089074  -0.186964  0.003689  3.960219  0.004
C  C173  1  0.79894827  0.04285608  0.86046472  1  0.024269  0.005348  -0.089692  -0.188569  0.003681  3.961016  0.004
C  C174  1  0.65974268  0.13965657  0.54285094  1  -0.006471  0.005436  -0.08976  -0.187858  0.003688  3.957884  0.004
C  C175  1  0.20187341  0.45720048  0.63958515  1  -0.000904  0.005438  -0.08828  -0.18545  0.003683  3.956164  0.004
C  C176  1  0.15856852  0.63959059  0.04285446  1  -0.026409  0.005471  -0.089131  -0.187105  0.003689  3.960206  0.004
C  C177  1  0.20105405  0.95714418  0.13953541  1  0.024288  0.005349  -0.089702  -0.188574  0.003681  3.960917  0.004
C  C178  1  0.34026149  0.86034441  0.45714886  1  -0.006774  0.005435  -0.089759  -0.187889  0.003687  3.957857  0.004
C  C179  1  0.79812487  0.54279905  0.36041563  1  -0.000772  0.005438  -0.088359  -0.185557  0.003683  3.956196  0.004
C  C180  1  0.52664584  0.30360809  0.98198501  1  -0.040557  0.000901  -0.095065  -0.153672  0.000541  4.003498  0.001
C  C181  1  0.50951856  0.01794983  0.80360166  1  -0.022889  0.000896  -0.095293  -0.151932  0.000538  4.002685  0.001
C  C182  1  0.31286754  0.19644771  0.51792337  1  -0.030704  0.000896  -0.094899  -0.15248  0.000538  4.003089  0.001
C  C183  1  0.83021846  0.48211638  0.69638993  1  -0.004419  0.000901  -0.095724  -0.153856  0.000539  4.002047  0.001
C  C184  1  0.47335648  0.69639217  0.01801512  1  -0.040577  0.000901  -0.095052  -0.15367  0.000541  4.003449  0.001
C  C185  1  0.49048725  0.98205006  0.19639707  1  -0.022693  0.000896  -0.095282  -0.151986  0.000538  4.002801  0.001
C  C186  1  0.68713404  0.80355254  0.48207565  1  -0.030017  0.000896  -0.094879  -0.15248  0.000538  4.002984  0.001
C  C187  1  0.16977852  0.51788279  0.30361045  1  -0.004167  0.000901  -0.095668  -0.153683  0.000539  4.002116  0.001
C  C188  1  0.32040520  0.28848700  0.00762358  1  -0.078839  -0.002014  -0.076721  -0.101392  -0.002223  3.982622  -0.001
C  C189  1  0.32893503  0.99231206  0.78847763  1  -0.086208  -0.002005  -0.077429  -0.104587  -0.002213  3.98095  -0.001
C  C190  1  0.11687334  0.21147816  0.49233243  1  -0.062923  -0.002005  -0.077363  -0.102547  -0.002216  3.980675  -0.001
C  C191  1  0.60891991  0.50778468  0.71149649  1  -0.077336  -0.002005  -0.076073  -0.099964  -0.002211  3.98051  -0.001
C  C192  1  0.67959565  0.71151326  0.99237615  1  -0.078831  -0.002014  -0.07672  -0.101414  -0.002223  3.982475  -0.001
C  C193  1  0.67106528  0.00768856  0.21152247  1  -0.086211  -0.002005  -0.077383  -0.10447  -0.002213  3.980815  -0.001
C  C194  1  0.88312566  0.78852065  0.50766799  1  -0.063097  -0.002004  -0.077424  -0.102557  -0.002215  3.980525  -0.001
C  C195  1  0.39108020  0.49221485  0.28850432  1  -0.077589  -0.002005  -0.076083  -0.099999  -0.002211  3.980457  -0.001
N  N196  1  0.82430455  0.44035449  0.99005812  1  -1.201392  0.08745  -0.349086  -0.233068  0.059074  3.589959  0.076
N  N197  1  0.81416193  0.00996501  0.94040586  1  -1.205756  0.087515  -0.347893  -0.232342  0.059096  3.590544  0.076
N  N198  1  0.75507589  0.05967205  0.51000682  1  -1.203405  0.08735  -0.349068  -0.234136  0.059013  3.588895  0.076
N  N199  1  0.26444664  0.49001125  0.55960375  1  -1.232384  0.08748  -0.348219  -0.232295  0.059064  3.588923  0.076
N  N200  1  0.17570328  0.55964505  0.00994248  1  -1.201373  0.08745  -0.349191  -0.233155  0.059074  3.590161  0.076
N  N201  1  0.18583286  0.99003489  0.05959449  1  -1.205788  0.087515  -0.347906  -0.232292  0.059096  3.590528  0.076
N  N202  1  0.24492240  0.94032965  0.48999288  1  -1.202869  0.087339  -0.348998  -0.234023  0.059005  3.58901  0.076
N  N203  1  0.73555495  0.50998901  0.44039710  1  -1.232403  0.087479  -0.348214  -0.232272  0.059063  3.588772  0.076
O  O204  1  0.13304640  0.06337132  0.98889339  1  -1.118347  0.117569  -0.33312  -0.551162  0.075799  2.372237  0.106
O  O205  1  0.12215059  0.01112269  0.56339277  1  -1.110652  0.117737  -0.332923  -0.550885  0.075689  2.371315  0.106
O  O206  1  0.68520657  0.43659255  0.51112141  1  -1.114116  0.117667  -0.333248  -0.552872  0.075691  2.373751  0.106
O  O207  1  0.19596521  0.48892719  0.93655763  1  -1.113228  0.117637  -0.333541  -0.553293  0.075836  2.371577  0.106
O  O208  1  0.86695170  0.93662930  0.01110703  1  -1.118399  0.117574  -0.333171  -0.55127  0.075802  2.372231  0.106
O  O209  1  0.87780523  0.98887721  0.43660902  1  -1.110408  0.117737  -0.332928  -0.5508  0.075688  2.371308  0.106
O  O210  1  0.31479466  0.56340771  0.48887980  1  -1.114163  0.117672  -0.333226  -0.552823  0.075694  2.373699  0.106
O  O211  1  0.80403398  0.51107343  0.06344171  1  -1.113308  0.117635  -0.333577  -0.553368  0.075836  2.371525  0.106
O  O212  1  0.79838084  0.08764511  0.04173486  1  -1.175445  0.000281  -0.324919  -0.557932  -0.000955  2.140343  0.001
O  O213  1  0.84120271  0.95812936  0.58768974  1  -1.165571  0.000301  -0.325794  -0.559151  -0.000943  2.137123  0.001
O  O214  1  0.42854857  0.41233445  0.45812796  1  -1.173905  0.000291  -0.324503  -0.557177  -0.00095  2.137524  0.001
O  O215  1  0.88578003  0.54185241  0.91239191  1  -1.175889  0.000285  -0.326155  -0.560196  -0.000953  2.140953  0.001
O  O216  1  0.20160805  0.91235551  0.95826354  1  -1.175609  0.000281  -0.324953  -0.558013  -0.000955  2.140245  0.001
O  O217  1  0.15879002  0.04186437  0.41231198  1  -1.166796  0.000301  -0.325848  -0.559199  -0.000943  2.13688  0.001
O  O218  1  0.57144880  0.58766544  0.54187354  1  -1.173969  0.000291  -0.324385  -0.557046  -0.00095  2.137486  0.001
O  O219  1  0.11421825  0.45814857  0.08760815  1  -1.175835  0.000285  -0.326152  -0.560204  -0.000953  2.140888  0.001
