# generated using pymatgen
data_AgH8AuC12SCl5O2F3
_symmetry_space_group_name_H-M   'P 1'
_cell_length_a   8.61376600
_cell_length_b   9.49085760
_cell_length_c   12.18046136
_cell_angle_alpha   77.84375303
_cell_angle_beta   73.39518830
_cell_angle_gamma   82.80755018
_symmetry_Int_Tables_number   1
_chemical_formula_structural   AgH8AuC12SCl5O2F3
_chemical_formula_sum   'Ag2 H16 Au2 C24 S2 Cl10 O4 F6'
_cell_volume   930.60489470
_cell_formula_units_Z   2
loop_
 _symmetry_equiv_pos_site_id
 _symmetry_equiv_pos_as_xyz
  1  'x, y, z'
loop_
 _atom_site_type_symbol
 _atom_site_label
 _atom_site_symmetry_multiplicity
 _atom_site_fract_x
 _atom_site_fract_y
 _atom_site_fract_z
 _atom_site_occupancy
 _atom_site_hle17_bader_spin_density
 _atom_site_hle17_ddec_charge
 _atom_site_hle17_ddec_spin_density
 _atom_site_hle17_ddec_sum_bond_order
 _atom_site_hle17_magmom
 _atom_site_hse06_10hf_bader_spin_density
 _atom_site_hse06_10hf_ddec_charge
 _atom_site_hse06_10hf_ddec_spin_density
 _atom_site_hse06_10hf_ddec_sum_bond_order
 _atom_site_hse06_10hf_magmom
 _atom_site_hse06_bader_spin_density
 _atom_site_hse06_ddec_charge
 _atom_site_hse06_ddec_spin_density
 _atom_site_hse06_ddec_sum_bond_order
 _atom_site_hse06_magmom
 _atom_site_pbe_bader_spin_density
 _atom_site_pbe_cm5_charge
 _atom_site_pbe_ddec_charge
 _atom_site_pbe_ddec_spin_density
 _atom_site_pbe_ddec_sum_bond_order
 _atom_site_pbe_magmom
Ag  Ag0  1  0.81929535  0.01241073  0.52211707  1  0  0.458295  0  1.623036  0  0  0.33937  0  2.109164  0  0  0.371529  0  2.052605  0  0  0.339844  0.317032  0  2.148082  0
Ag  Ag1  1  0.18070716  0.98758989  0.47788235  1  0  0.458257  0  1.623213  0  0  0.339314  0  2.109338  0  0  0.371485  0  2.052758  0  0  0.339801  0.316978  0  2.148252  0
H  H2  1  0.63825826  0.29777648  0.68123327  1  0  0.093631  0  0.976839  0  0  0.105366  0  1.045767  0  0  0.106022  0  1.046805  0  0  0.083134  0.104792  0  1.045203  0
H  H3  1  0.36174174  0.70222521  0.31876565  1  0  0.093655  0  0.976856  0  0  0.105392  0  1.045772  0  0  0.106048  0  1.046811  0  0  0.083162  0.10482  0  1.045206  0
H  H4  1  0.42399490  0.33462465  0.70417339  1  0  0.08178  0  0.994131  0  0  0.088331  0  1.074726  0  0  0.089291  0  1.074958  0  0  0.076939  0.087529  0  1.074706  0
H  H5  1  0.57600285  0.66537489  0.29582635  1  0  0.08178  0  0.99415  0  0  0.088318  0  1.074754  0  0  0.089277  0  1.074987  0  0  0.076949  0.087522  0  1.074727  0
H  H6  1  0.60102932  0.09851280  0.84847595  1  0  0.084978  0  0.92573  0  0  0.10243  0  0.982954  0  0  0.104033  0  0.982568  0  0  0.090451  0.101172  0  0.983404  0
H  H7  1  0.39897198  0.90148781  0.15152289  1  0  0.084999  0  0.925747  0  0  0.102442  0  0.982972  0  0  0.104046  0  0.982585  0  0  0.090464  0.101185  0  0.983424  0
H  H8  1  0.44490124  0.22923460  0.90003313  1  0  0.090139  0  0.926389  0  0  0.104484  0  0.988189  0  0  0.105832  0  0.987945  0  0  0.09161  0.103368  0  0.988574  0
H  H9  1  0.55509884  0.77076602  0.09996596  1  0  0.090155  0  0.926364  0  0  0.104494  0  0.988165  0  0  0.105842  0  0.987921  0  0  0.091618  0.10338  0  0.988546  0
H  H10  1  0.24488880  0.11198660  0.84170246  1  0  0.07438  0  0.933314  0  0  0.087069  0  1.00181  0  0  0.088356  0  1.001429  0  0  0.082413  0.086029  0  1.002212  0
H  H11  1  0.75511129  0.88801403  0.15829909  1  0  0.07437  0  0.933328  0  0  0.087059  0  1.001821  0  0  0.088344  0  1.001443  0  0  0.082412  0.086024  0  1.00222  0
H  H12  1  0.34488844  0.97128999  0.92267087  1  0  0.090207  0  0.920471  0  0  0.10756  0  0.976877  0  0  0.108721  0  0.976837  0  0  0.095017  0.106502  0  0.97726  0
H  H13  1  0.65511294  0.02870955  0.07732813  1  0  0.090211  0  0.920441  0  0  0.107567  0  0.976841  0  0  0.108729  0  0.9768  0  0  0.09502  0.106496  0  0.977242  0
H  H14  1  0.33477750  0.93527772  0.71172583  1  0  0.118116  0  0.972356  0  0  0.129174  0  1.039807  0  0  0.131462  0  1.038559  0  0  0.093652  0.127426  0  1.04084  0
H  H15  1  0.66522129  0.06472397  0.28827334  1  0  0.118055  0  0.972378  0  0  0.129137  0  1.039839  0  0  0.131422  0  1.038593  0  0  0.093636  0.127394  0  1.040868  0
H  H16  1  0.52711476  0.89991202  0.74601876  1  0  0.103404  0  0.956617  0  0  0.115717  0  1.021901  0  0  0.117245  0  1.021458  0  0  0.089876  0.114548  0  1.022293  0
H  H17  1  0.47288420  0.10008752  0.25398156  1  0  0.103398  0  0.95666  0  0  0.115732  0  1.02193  0  0  0.117263  0  1.021488  0  0  0.089902  0.114565  0  1.022324  0
Au  Au18  1  0.34702813  0.23097360  0.50196573  1  0  0.039005  0  2.236909  0  0  -0.02394  0  2.742976  0  0  -0.012951  0  2.710655  0  0  0.214171  -0.031063  0  2.765121  0
Au  Au19  1  0.65297317  0.76902702  0.49803475  1  0  0.038955  0  2.236909  0  0  -0.023982  0  2.742962  0  0  -0.012994  0  2.71064  0  0  0.214157  -0.0311  0  2.765108  0
C  C20  1  0.20856221  0.33745408  0.39581198  1  0  -0.224246  0  3.773392  0  0  -0.216782  0  4.090997  0  0  -0.226157  0  4.114951  0  0  -0.168218  -0.210402  0  4.074575  0
C  C21  1  0.79143554  0.66254545  0.60418858  1  0  -0.224232  0  3.773364  0  0  -0.216764  0  4.090964  0  0  -0.226137  0  4.114909  0  0  -0.168211  -0.210388  0  4.074547  0
C  C22  1  0.03861246  0.34948733  0.43497777  1  0  0.073488  0  3.811829  0  0  0.078493  0  4.079471  0  0  0.080324  0  4.104108  0  0  -0.014272  0.076981  0  4.063055  0
C  C23  1  0.96138521  0.65051329  0.56502345  1  0  0.073503  0  3.811964  0  0  0.078484  0  4.079651  0  0  0.080316  0  4.10429  0  0  -0.014285  0.07697  0  4.063244  0
C  C24  1  0.93948481  0.41820968  0.36304822  1  0  0.029572  0  3.79042  0  0  0.025463  0  4.066461  0  0  0.027556  0  4.087725  0  0  -0.009206  0.023914  0  4.052267  0
C  C25  1  0.06051173  0.58178986  0.63695423  1  0  0.029435  0  3.790563  0  0  0.025337  0  4.066566  0  0  0.02743  0  4.087829  0  0  -0.00927  0.023784  0  4.052384  0
C  C26  1  0.01259756  0.48280164  0.24753723  1  0  0.030439  0  3.800118  0  0  0.027718  0  4.080111  0  0  0.029007  0  4.100549  0  0  -0.005632  0.026513  0  4.066616  0
C  C27  1  0.98739890  0.51719898  0.75246506  1  0  0.030527  0  3.800158  0  0  0.027813  0  4.080119  0  0  0.029102  0  4.100551  0  0  -0.005551  0.026606  0  4.066623  0
C  C28  1  0.18311496  0.47786606  0.20632211  1  0  0.029938  0  3.789657  0  0  0.02362  0  4.069832  0  0  0.026414  0  4.089073  0  0  -0.007927  0.021619  0  4.057226  0
C  C29  1  0.81688150  0.52213456  0.79368018  1  0  0.029946  0  3.789685  0  0  0.023644  0  4.06983  0  0  0.026445  0  4.089061  0  0  -0.007955  0.021648  0  4.057215  0
C  C30  1  0.27762553  0.40426518  0.28046090  1  0  0.092232  0  3.788736  0  0  0.092413  0  4.063284  0  0  0.095845  0  4.085547  0  0  -0.008777  0.089783  0  4.048377  0
C  C31  1  0.72237213  0.59573544  0.71954032  1  0  0.092232  0  3.788707  0  0  0.092404  0  4.063257  0  0  0.095832  0  4.085524  0  0  -0.008754  0.089782  0  4.048338  0
C  C32  1  0.52078300  0.24998761  0.71273136  1  0  -0.139013  0  3.565286  0  0  -0.178255  0  3.820552  0  0  -0.177436  0  3.832682  0  0  -0.156257  -0.178683  0  3.812283  0
C  C33  1  0.47921597  0.75001194  0.28726977  1  0  -0.139073  0  3.565368  0  0  -0.178309  0  3.820629  0  0  -0.17749  0  3.832759  0  0  -0.156339  -0.178747  0  3.812366  0
C  C34  1  0.48827007  0.15866167  0.83502241  1  0  -0.103806  0  3.665325  0  0  -0.140263  0  3.922076  0  0  -0.142065  0  3.935861  0  0  -0.166916  -0.138832  0  3.912478  0
C  C35  1  0.51173011  0.84133787  0.16497766  1  0  -0.103866  0  3.665307  0  0  -0.140313  0  3.922042  0  0  -0.142114  0  3.935827  0  0  -0.166932  -0.138881  0  3.912447  0
C  C36  1  0.36318738  0.05345181  0.84267384  1  0  -0.093873  0  3.673937  0  0  -0.133935  0  3.937581  0  0  -0.134878  0  3.951163  0  0  -0.168484  -0.133118  0  3.928226  0
C  C37  1  0.63681271  0.94654881  0.15732689  1  0  -0.093859  0  3.673931  0  0  -0.133905  0  3.937558  0  0  -0.134848  0  3.951141  0  0  -0.168468  -0.133084  0  3.928207  0
C  C38  1  0.42743639  0.98122248  0.73642527  1  0  -0.154856  0  3.560043  0  0  -0.194086  0  3.8155  0  0  -0.193901  0  3.826433  0  0  -0.155802  -0.194089  0  3.808025  0
C  C39  1  0.57256360  0.01877921  0.26357202  1  0  -0.154748  0  3.560007  0  0  -0.194055  0  3.815497  0  0  -0.193874  0  3.826438  0  0  -0.155804  -0.194056  0  3.808016  0
C  C40  1  0.03231318  0.08978272  0.26627754  1  0  0.495999  0  4.000174  0  0  0.439847  0  4.29353  0  0  0.470794  0  4.291815  0  0  0.192557  0.418711  0  4.294453  0
C  C41  1  0.96767228  0.91021897  0.73372271  1  0  0.496243  0  3.999581  0  0  0.439981  0  4.293122  0  0  0.470969  0  4.291337  0  0  0.1926  0.418827  0  4.29407  0
C  C42  1  0.04779924  0.12238909  0.13323525  1  0  0.679701  0  3.644982  0  0  0.610477  0  3.987669  0  0  0.63672  0  3.962031  0  0  0.297642  0.591228  0  4.007029  0
C  C43  1  0.95220102  0.87760936  0.86676416  1  0  0.679704  0  3.644916  0  0  0.610532  0  3.987557  0  0  0.636744  0  3.961958  0  0  0.297653  0.5913  0  4.006892  0
S  S44  1  0.52006560  0.12373820  0.61613403  1  0  0.122656  0  3.000648  0  0  0.169214  0  3.48378  0  0  0.163621  0  3.468449  0  0  -0.018184  0.17263  0  3.494544  0
S  S45  1  0.47993336  0.87626134  0.38386464  1  0  0.122696  0  3.000545  0  0  0.16926  0  3.483699  0  0  0.163667  0  3.46837  0  0  -0.018165  0.172678  0  3.494465  0
Cl  Cl46  1  0.94696629  0.27445919  0.57844619  1  0  -0.057547  0  1.573907  0  0  -0.030999  0  1.85269  0  0  -0.035962  0  1.845183  0  0  0.0207  -0.027505  0  1.858101  0
Cl  Cl47  1  0.05303389  0.72554036  0.42155633  1  0  -0.057509  0  1.573958  0  0  -0.030966  0  1.85275  0  0  -0.035928  0  1.845242  0  0  0.020733  -0.027473  0  1.858172  0
Cl  Cl48  1  0.73171296  0.42311957  0.41355612  1  0  -0.049717  0  1.550804  0  0  -0.033985  0  1.835019  0  0  -0.036902  0  1.826822  0  0  0.018152  -0.031879  0  1.840845  0
Cl  Cl49  1  0.26828600  0.57687997  0.58644584  1  0  -0.049686  0  1.550737  0  0  -0.033953  0  1.834936  0  0  -0.036872  0  1.82674  0  0  0.018154  -0.031844  0  1.840767  0
Cl  Cl50  1  0.89564969  0.56879828  0.15751163  1  0  -0.031909  0  1.477365  0  0  -0.024681  0  1.731639  0  0  -0.026634  0  1.724372  0  0  0.019492  -0.02325  0  1.736696  0
Cl  Cl51  1  0.10434677  0.43120234  0.84249147  1  0  -0.031925  0  1.47732  0  0  -0.024698  0  1.731583  0  0  -0.026652  0  1.724316  0  0  0.019484  -0.023268  0  1.736638  0
Cl  Cl52  1  0.27329281  0.56054655  0.06692036  1  0  -0.050053  0  1.465893  0  0  -0.04592  0  1.714077  0  0  -0.047472  0  1.706462  0  0  0.001512  -0.044881  0  1.719543  0
Cl  Cl53  1  0.72670356  0.43945515  0.93308094  1  0  -0.050087  0  1.465913  0  0  -0.045964  0  1.714093  0  0  -0.047519  0  1.706475  0  0  0.001487  -0.044931  0  1.719555  0
Cl  Cl54  1  0.48685427  0.39793255  0.22711138  1  0  -0.059578  0  1.469137  0  0  -0.039646  0  1.725446  0  0  -0.044073  0  1.719024  0  0  0.007639  -0.036405  0  1.729903  0
Cl  Cl55  1  0.51314340  0.60206807  0.77288902  1  0  -0.059536  0  1.469114  0  0  -0.039606  0  1.725432  0  0  -0.044033  0  1.719011  0  0  0.007653  -0.036366  0  1.729888  0
O  O56  1  0.88905399  0.09274656  0.33093876  1  0  -0.542941  0  2.184815  0  0  -0.480366  0  2.456137  0  0  -0.510243  0  2.447927  0  0  -0.313956  -0.459514  0  2.46105  0
O  O57  1  0.11096477  0.90724758  0.66905596  1  0  -0.543197  0  2.184029  0  0  -0.480535  0  2.45536  0  0  -0.51044  0  2.447138  0  0  -0.313956  -0.459668  0  2.460267  0
O  O58  1  0.16591776  0.05866158  0.29118641  1  0  -0.539458  0  2.143832  0  0  -0.480553  0  2.405153  0  0  -0.510497  0  2.399744  0  0  -0.314297  -0.459738  0  2.408335  0
O  O59  1  0.83409972  0.94133365  0.70881168  1  0  -0.539416  0  2.144248  0  0  -0.480561  0  2.405738  0  0  -0.510503  0  2.400295  0  0  -0.314327  -0.459752  0  2.408933  0
F  F60  1  0.07647652  0.99407554  0.09379092  1  0  -0.253346  0  1.151168  0  0  -0.214549  0  1.312211  0  0  -0.223776  0  1.29621  0  0  -0.104091  -0.207915  0  1.323584  0
F  F61  1  0.92352356  0.00592507  0.90620571  1  0  -0.253374  0  1.151163  0  0  -0.214563  0  1.312171  0  0  -0.223786  0  1.296183  0  0  -0.104096  -0.207933  0  1.323533  0
F  F62  1  0.91246135  0.19087951  0.10582304  1  0  -0.239493  0  1.197042  0  0  -0.202289  0  1.365108  0  0  -0.212082  0  1.350503  0  0  -0.100855  -0.195264  0  1.37543  0
F  F63  1  0.08753658  0.80911788  0.89418113  1  0  -0.2395  0  1.197071  0  0  -0.20232  0  1.365128  0  0  -0.212107  0  1.350534  0  0  -0.100869  -0.195305  0  1.375451  0
F  F64  1  0.17443394  0.20484289  0.07243508  1  0  -0.24811  0  1.177676  0  0  -0.206448  0  1.341306  0  0  -0.217698  0  1.328062  0  0  -0.101916  -0.197198  0  1.349314  0
F  F65  1  0.82556381  0.79515664  0.92756303  1  0  -0.24813  0  1.17767  0  0  -0.206463  0  1.341277  0  0  -0.217709  0  1.328045  0  0  -0.101914  -0.197205  0  1.349267  0
