# generated using pymatgen
data_Zr3H23(C3O)16
_symmetry_space_group_name_H-M   'P 1'
_cell_length_a   18.25726124
_cell_length_b   22.47718586
_cell_length_c   22.58299561
_cell_angle_alpha   65.02098198
_cell_angle_beta   89.41385282
_cell_angle_gamma   88.78588958
_symmetry_Int_Tables_number   1
_chemical_formula_structural   Zr3H23(C3O)16
_chemical_formula_sum   'Zr6 H46 C96 O32'
_cell_volume   8398.67948793
_cell_formula_units_Z   2
loop_
 _symmetry_equiv_pos_site_id
 _symmetry_equiv_pos_as_xyz
  1  'x, y, z'
loop_
 _atom_site_type_symbol
 _atom_site_label
 _atom_site_symmetry_multiplicity
 _atom_site_fract_x
 _atom_site_fract_y
 _atom_site_fract_z
 _atom_site_occupancy
 _atom_site_pbe_bader_charge
 _atom_site_pbe_bader_spin_density
 _atom_site_pbe_cm5_charge
 _atom_site_pbe_ddec_charge
 _atom_site_pbe_ddec_spin_density
 _atom_site_pbe_ddec_sum_bond_order
 _atom_site_pbe_magmom
Zr  Zr0  1  0.21066864  0.97215313  0.03927693  1  2.607085  0  1.576546  2.332165  0  2.814212  0
Zr  Zr1  1  0.94725936  0.94634299  0.03100828  1  2.600082  0  1.573423  2.329843  0  2.816871  0
Zr  Zr2  1  0.08610922  0.85645057  0.13865487  1  2.604616  0  1.549883  2.369396  0  2.865902  0
Zr  Zr3  1  0.07318316  0.06244357  0.93246334  1  2.606457  0  1.558493  2.353744  0  2.796801  0
Zr  Zr4  1  0.10287388  0.89413436  0.96353106  1  2.593296  0  1.523293  2.360659  0  2.815074  0
Zr  Zr5  1  0.05459671  0.03008094  0.10016112  1  2.61537  0  1.551608  2.373698  0  2.77938  0
H  H6  1  0.74008113  0.01773898  0.74133764  1  0.093861  0  0.115578  0.126463  0  0.978366  0
H  H7  1  0.60823372  0.17323438  0.59931721  1  0.06927  0  0.113519  0.123329  0  0.978961  0
H  H8  1  0.74759015  0.21420324  0.73023382  1  0.109527  0  0.115714  0.126354  0  0.977319  0
H  H9  1  0.45204078  0.72496695  0.97636639  1  0.069186  0  0.115132  0.12604  0  0.977878  0
H  H10  1  0.56801065  0.73165673  0.80615850  1  0.086608  0  0.111914  0.122671  0  0.98317  0
H  H11  1  0.45082105  0.90370565  0.79853947  1  0.091532  0  0.115604  0.126342  0  0.97778  0
H  H12  1  0.70770474  0.19424204  0.09628549  1  0.12281  0  0.115841  0.126722  0  0.977168  0
H  H13  1  0.57611211  0.18351022  0.26036363  1  0.065722  0  0.111894  0.122684  0  0.983907  0
H  H14  1  0.70456693  0.01487764  0.27339540  1  0.079423  0  0.115949  0.12729  0  0.976422  0
H  H15  1  0.63060484  0.06507710  0.48732529  1  0.057996  0  0.114706  0.12621  0  0.976427  0
H  H16  1  0.51346371  0.84749058  0.57958915  1  0.088724  0  0.114673  0.126334  0  0.976746  0
H  H17  1  0.41022957  0.89139699  0.32141827  1  0.135738  0  0.113884  0.124182  0  0.981325  0
H  H18  1  0.54085436  0.74049386  0.46972641  1  0.073205  0  0.113784  0.12336  0  0.978921  0
H  H19  1  0.41143415  0.69291271  0.33739512  1  0.086748  0  0.117035  0.127199  0  0.975928  0
H  H20  1  0.40387945  0.25728536  0.96455032  1  0.062852  0  0.11479  0.125375  0  0.979319  0
H  H21  1  0.55231067  0.38811326  0.82075600  1  0.091283  0  0.114028  0.124141  0  0.978727  0
H  H22  1  0.40557079  0.27053474  0.76801046  1  0.104749  0  0.114913  0.12536  0  0.978871  0
H  H23  1  0.72195911  0.66271882  0.29453040  1  0.095171  0  0.117316  0.12839  0  0.974562  0
H  H24  1  0.60494945  0.52197327  0.24981797  1  0.105302  0  0.111973  0.120627  0  0.982085  0
H  H25  1  0.72010585  0.67881271  0.09715114  1  0.138102  0  0.114447  0.124862  0  0.980023  0
H  H26  1  0.65703406  0.40204473  0.48081906  1  0.092941  0  0.115279  0.127635  0  0.975491  0
H  H27  1  0.49837478  0.50909926  0.58922427  1  0.094375  0  0.115543  0.127862  0  0.974616  0
H  H28  1  0.51828307  0.50369946  0.92447323  1  0.092353  0  0.114492  0.126215  0  0.976513  0
H  H29  1  0.63063686  0.41290106  0.14480305  1  0.114837  0  0.11475  0.126451  0  0.976199  0
H  H30  1  0.19140301  0.00015631  0.89873169  1  0.635133  0  0.331121  0.445989  0  0.834572  0
H  H31  1  0.99876541  0.81021669  0.07135903  1  0.646215  0  0.32373  0.435032  0  0.852056  0
H  H32  1  0.95014829  0.08629012  0.99270761  1  0.614136  0  0.337978  0.441621  0  0.828153  0
H  H33  1  0.17350635  0.95123386  0.17194772  1  0.620158  0  0.328184  0.427406  0  0.858727  0
H  H34  1  0.08169516  0.77794071  0.98505366  1  0.658327  0  0.297769  0.401207  0  0.921622  0
H  H35  1  0.00803060  0.83338900  0.24194203  1  0.625514  0  0.298669  0.399852  0  0.908306  0
H  H36  1  0.99484134  0.97922959  0.22420830  1  0.608791  0  0.320361  0.406821  0  0.883404  0
H  H37  1  0.09677743  0.91750180  0.84295903  1  0.588341  0  0.285529  0.389739  0  0.914941  0
H  H38  1  0.04236269  0.11326419  0.80191273  1  0.652405  0  0.336267  0.425734  0  0.86361  0
H  H39  1  0.08681135  0.18969818  0.89637287  1  0.599933  0  0.2906  0.383654  0  0.925551  0
H  H40  1  0.07181203  0.15876829  0.05822981  1  0.633909  0  0.320055  0.420012  0  0.872167  0
H  H41  1  0.97455086  0.84966804  0.94204377  1  0.632171  0  0.270958  0.394838  0  0.930408  0
H  H42  1  0.85529844  0.92014753  0.94083277  1  0.61751  0  0.32848  0.410958  0  0.878251  0
H  H43  1  0.31425931  0.05294631  0.05525524  1  0.639313  0  0.331387  0.420937  0  0.870487  0
H  H44  1  0.12932529  0.06199281  0.18233537  1  0.606566  0  0.291229  0.399258  0  0.899573  0
H  H45  1  0.12460351  0.13509349  0.80431966  1  0.615442  0  0.341185  0.428306  0  0.853293  0
H  H46  1  0.85999073  0.86152177  0.01109561  1  0.63543  0  0.313152  0.401213  0  0.914273  0
H  H47  1  0.07759674  0.72735704  0.20849857  1  0.605169  0  0.304603  0.410569  0  0.877913  0
H  H48  1  0.16911302  0.76824245  0.99693879  1  0.649361  0  0.331824  0.416927  0  0.866243  0
H  H49  1  0.04300071  0.15579858  0.99023685  1  0.664942  0  0.28351  0.401281  0  0.938146  0
H  H50  1  0.04630097  0.91727092  0.22306261  1  0.650355  0  0.274528  0.407681  0  0.937439  0
H  H51  1  0.32392256  0.98273655  0.11499023  1  0.643752  0  0.330581  0.416809  0  0.876521  0
C  C52  1  0.74939995  0.11367492  0.74131774  1  0.10987  0  0.003112  0.129561  0  4.150363  0
C  C53  1  0.72146181  0.06880033  0.71926473  1  -0.000814  0  -0.068001  -0.162901  0  3.84984  0
C  C54  1  0.67073633  0.09026967  0.66770324  1  0.098062  0  0.004775  0.147952  0  4.146523  0
C  C55  1  0.64749124  0.15649627  0.63930048  1  0.017  0  -0.066845  -0.158964  0  3.839824  0
C  C56  1  0.67437291  0.20128222  0.66187569  1  0.032976  0  0.003887  0.146701  0  4.150588  0
C  C57  1  0.72576241  0.17974606  0.71287333  1  0.010563  0  -0.067175  -0.160099  0  3.847008  0
C  C58  1  0.44651960  0.81788070  0.89098274  1  0.093499  0  0.004957  0.135053  0  4.140993  0
C  C59  1  0.46957467  0.75216450  0.92595355  1  0.038729  0  -0.066807  -0.160062  0  3.843683  0
C  C60  1  0.51358651  0.72079906  0.89572608  1  0.05281  0  0.002919  0.145191  0  4.139975  0
C  C61  1  0.53459808  0.75587258  0.83001572  1  0.053022  0  -0.071819  -0.16852  0  3.847458  0
C  C62  1  0.51269391  0.82201477  0.79483855  1  0.060411  0  0.003628  0.144804  0  4.134475  0
C  C63  1  0.46889739  0.85291720  0.82575501  1  -0.030058  0  -0.067637  -0.160113  0  3.83996  0
C  C64  1  0.71157391  0.10114807  0.18162554  1  0.106017  0  0.005111  0.135165  0  4.140415  0
C  C65  1  0.68734300  0.16634233  0.14565993  1  -0.082871  0  -0.067405  -0.161333  0  3.841443  0
C  C66  1  0.63832578  0.19633806  0.17376002  1  0.077869  0  0.003461  0.145916  0  4.136088  0
C  C67  1  0.61341827  0.16033337  0.23815640  1  -0.01013  0  -0.071486  -0.168472  0  3.849089  0
C  C68  1  0.63660848  0.09470020  0.27417299  1  0.14802  0  0.002433  0.143647  0  4.138831  0
C  C69  1  0.68555648  0.06527053  0.24549793  1  0.064173  0  -0.066577  -0.159981  0  3.842281  0
C  C70  1  0.59457357  0.98489508  0.57528268  1  0.068295  0  0.008888  0.101547  0  4.072998  0
C  C71  1  0.56092229  0.92218716  0.60230191  1  0.12786  0  0.00915  0.100199  0  4.073882  0
C  C72  1  0.53949418  0.89514040  0.55954223  1  -0.03286  0  -0.067962  -0.15486  0  3.879157  0
C  C73  1  0.54931448  0.92778886  0.49153144  1  0.087828  0  0.009813  0.101225  0  4.070404  0
C  C74  1  0.58286690  0.99052092  0.46463354  1  0.108091  0  0.008525  0.100318  0  4.074818  0
C  C75  1  0.60437920  0.01752668  0.50737817  1  0.060426  0  -0.068301  -0.155004  0  3.883441  0
C  C76  1  0.40551001  0.79419715  0.32352535  1  0.040371  0  0.004173  0.132486  0  4.144483  0
C  C77  1  0.42985727  0.84068658  0.34512554  1  -0.016681  0  -0.067931  -0.16407  0  3.848209  0
C  C78  1  0.47833806  0.82129451  0.39827809  1  0.078994  0  0.004413  0.146566  0  4.143875  0
C  C79  1  0.50313110  0.75555848  0.42870590  1  0.029025  0  -0.066572  -0.158117  0  3.84158  0
C  C80  1  0.47987064  0.70927279  0.40665182  1  0.092005  0  0.003218  0.146112  0  4.152069  0
C  C81  1  0.43059086  0.72866673  0.35420579  1  0.093751  0  -0.064428  -0.155965  0  3.84319  0
C  C82  1  0.39884521  0.25857964  0.86816231  1  0.093555  0  0.002716  0.131069  0  4.149863  0
C  C83  1  0.42623426  0.27795050  0.91521547  1  -0.004506  0  -0.067895  -0.163101  0  3.84861  0
C  C84  1  0.48131080  0.32511517  0.89808222  1  0.104887  0  0.004052  0.149054  0  4.142493  0
C  C85  1  0.50965115  0.35157427  0.83410669  1  -0.099345  0  -0.066253  -0.159152  0  3.84139  0
C  C86  1  0.48297528  0.33186160  0.78719456  1  0.181939  0  0.004057  0.147273  0  4.152289  0
C  C87  1  0.42714556  0.28547765  0.80431144  1  0.020961  0  -0.067566  -0.161462  0  3.851547  0
C  C88  1  0.72595362  0.67699293  0.19368694  1  0.052301  0  0.005158  0.13886  0  4.137655  0
C  C89  1  0.70394948  0.64470095  0.25938104  1  0.076292  0  -0.062978  -0.151609  0  3.835874  0
C  C90  1  0.66003766  0.58896853  0.27978537  1  0.040309  0  0.0014  0.139952  0  4.155952  0
C  C91  1  0.63841842  0.56553868  0.23412648  1  -0.00334  0  -0.066923  -0.156981  0  3.846767  0
C  C92  1  0.65957525  0.59777343  0.16817488  1  0.126601  0  0.00241  0.14212  0  4.146187  0
C  C93  1  0.70303969  0.65388946  0.14796442  1  -0.07429  0  -0.06652  -0.159705  0  3.84514  0
C  C94  1  0.60223821  0.38981361  0.57003131  1  0.152476  0  0.009331  0.100057  0  4.08527  0
C  C95  1  0.55671070  0.42050432  0.60110980  1  0.057556  0  0.007392  0.09917  0  4.086348  0
C  C96  1  0.53342625  0.48576049  0.56557203  1  -0.026761  0  -0.068066  -0.15734  0  3.894323  0
C  C97  1  0.55337614  0.52141341  0.50012995  1  0.147249  0  0.009187  0.101158  0  4.0835  0
C  C98  1  0.59861608  0.49067167  0.46881318  1  0.110207  0  0.010074  0.104353  0  4.080634  0
C  C99  1  0.62209093  0.42548047  0.50445623  1  -0.032892  0  -0.068586  -0.158178  0  3.891244  0
C  C100  1  0.56303896  0.52745332  0.99944522  1  0.087145  0  0.00923  0.100969  0  4.075832  0
C  C101  1  0.59505188  0.50094601  0.06305076  1  0.212152  0  0.009471  0.102113  0  4.074031  0
C  C102  1  0.60559490  0.43266172  0.09657398  1  -0.056989  0  -0.068751  -0.155576  0  3.880117  0
C  C103  1  0.58610361  0.38916888  0.06973151  1  0.080071  0  0.009339  0.09998  0  4.074457  0
C  C104  1  0.55374218  0.41572236  0.00630094  1  0.124365  0  0.008378  0.098808  0  4.073799  0
C  C105  1  0.54339436  0.48400069  0.97267041  1  0.00517  0  -0.068167  -0.155039  0  3.884676  0
C  C106  1  0.28652839  0.89077690  0.96938706  1  1.654375  0  0.240391  0.714918  0  4.179595  0
C  C107  1  0.24387518  0.11775081  0.92129377  1  1.662717  0  0.237372  0.72143  0  4.190404  0
C  C108  1  0.25828240  0.84765200  0.17471309  1  1.677838  0  0.239925  0.714392  0  4.196019  0
C  C109  1  0.86688997  0.82840140  0.15057938  1  1.702403  0  0.223985  0.688529  0  4.246234  0
C  C110  1  0.87699620  0.02553196  0.11049719  1  1.659047  0  0.244222  0.717008  0  4.178489  0
C  C111  1  0.90181170  0.05629883  0.88643266  1  1.661831  0  0.240946  0.720083  0  4.182407  0
C  C112  1  0.77275248  0.73158437  0.17543191  1  -0.629315  0  -0.034783  -0.054325  0  4.096065  0
C  C113  1  0.81437045  0.77683682  0.16394585  1  0.279175  0  -0.046876  -0.189351  0  3.960335  0
C  C114  1  0.63745352  0.57050955  0.12497202  1  -0.201574  0  -0.035985  -0.092134  0  4.084654  0
C  C115  1  0.61667701  0.54104009  0.09377812  1  -0.123293  0  -0.040894  -0.097574  0  4.123233  0
C  C116  1  0.61982962  0.52553493  0.40286924  1  0.016056  0  -0.042017  -0.10126  0  4.129242  0
C  C117  1  0.63849881  0.55545672  0.34607676  1  -0.296293  0  -0.033787  -0.087743  0  4.092344  0
C  C118  1  0.34273254  0.21159616  0.88467385  1  -0.360498  0  -0.019532  -0.019326  0  4.083869  0
C  C119  1  0.29520477  0.17069000  0.89824003  1  0.071287  0  -0.051081  -0.213705  0  3.963314  0
C  C120  1  0.50741715  0.34935829  0.94251048  1  0.030564  0  -0.038381  -0.100611  0  4.08617  0
C  C121  1  0.53079655  0.37622648  0.97526395  1  -0.320416  0  -0.038631  -0.090339  0  4.118072  0
C  C122  1  0.51078599  0.36029722  0.72251708  1  -0.371868  0  -0.037221  -0.096528  0  4.093158  0
C  C123  1  0.53369975  0.38642722  0.66666092  1  0.014199  0  -0.039247  -0.092889  0  4.128174  0
C  C124  1  0.31094362  0.82473628  0.22721269  1  0.277549  0  -0.04344  -0.197276  0  3.946107  0
C  C125  1  0.35496970  0.81208276  0.27124426  1  -0.585718  0  -0.018131  -0.021732  0  4.074147  0
C  C126  1  0.52825064  0.58696444  0.46597181  1  -0.345653  0  -0.039015  -0.093372  0  4.127866  0
C  C127  1  0.50551969  0.64335559  0.43802787  1  -0.001333  0  -0.034631  -0.093313  0  4.092582  0
C  C128  1  0.52538508  0.89680560  0.45233191  1  0.227789  0  -0.039034  -0.093456  0  4.1195  0
C  C129  1  0.50234636  0.86514637  0.42413490  1  -0.538543  0  -0.037068  -0.095801  0  4.084201  0
C  C130  1  0.81359181  0.04888397  0.13383915  1  0.076601  0  -0.037931  -0.184803  0  3.926757  0
C  C131  1  0.76491808  0.07248359  0.15492993  1  -0.33104  0  -0.016847  -0.022369  0  4.061596  0
C  C132  1  0.59694281  0.02542697  0.39684521  1  -0.270284  0  -0.041306  -0.098374  0  4.11254  0
C  C133  1  0.61339195  0.05820505  0.33980559  1  -0.093253  0  -0.035719  -0.092176  0  4.07782  0
C  C134  1  0.60052561  0.32091559  0.10515055  1  -0.316721  0  -0.041071  -0.097028  0  4.111308  0
C  C135  1  0.61642810  0.26310892  0.13740883  1  -0.019631  0  -0.036588  -0.093995  0  4.078847  0
C  C136  1  0.35072624  0.86873810  0.94561180  1  0.293355  0  -0.040348  -0.187685  0  3.92648  0
C  C137  1  0.39716611  0.84686888  0.92066273  1  -0.543915  0  -0.020543  -0.028053  0  4.067077  0
C  C138  1  0.54918000  0.59570700  0.96383571  1  -0.311428  0  -0.041308  -0.097311  0  4.115031  0
C  C139  1  0.53423925  0.65369838  0.93152359  1  -0.023676  0  -0.035642  -0.092811  0  4.081553  0
C  C140  1  0.53259151  0.85721917  0.72804029  1  -0.438675  0  -0.035611  -0.09182  0  4.077276  0
C  C141  1  0.54740788  0.88796863  0.67026427  1  0.152726  0  -0.041377  -0.098594  0  4.112466  0
C  C142  1  0.80233502  0.09292939  0.79190430  1  -0.218796  0  -0.017479  -0.017339  0  4.082222  0
C  C143  1  0.84835805  0.07652657  0.83477758  1  -0.064628  0  -0.048733  -0.209977  0  3.962679  0
C  C144  1  0.64361915  0.04760979  0.64173094  1  -0.388992  0  -0.037905  -0.098591  0  4.089718  0
C  C145  1  0.61920987  0.01579858  0.61427136  1  0.03754  0  -0.038519  -0.091545  0  4.122222  0
C  C146  1  0.64994046  0.26771594  0.63201401  1  -0.327916  0  -0.036973  -0.096135  0  4.093434  0
C  C147  1  0.62733446  0.32419500  0.60427874  1  -0.00972  0  -0.039983  -0.094037  0  4.127731  0
O  O148  1  0.28921866  0.01893966  0.09227828  1  -1.235387  0  -0.577864  -0.776302  0  2.021697  0
O  O149  1  0.29459991  0.93342307  0.99254869  1  -1.164003  0  -0.364355  -0.62513  0  2.215298  0
O  O150  1  0.27839716  0.89695447  0.12303885  1  -1.177737  0  -0.348707  -0.63426  0  2.269292  0
O  O151  1  0.18203115  0.12625202  0.89319136  1  -1.184068  0  -0.333167  -0.631057  0  2.240177  0
O  O152  1  0.19685069  0.81975704  0.18434826  1  -1.170131  0  -0.337247  -0.606495  0  2.209672  0
O  O153  1  0.26640956  0.06609306  0.96978683  1  -1.178497  0  -0.344952  -0.625751  0  2.261244  0
O  O154  1  0.22694911  0.86593318  0.96365936  1  -1.159952  0  -0.324538  -0.59936  0  2.258715  0
O  O155  1  0.14867839  0.89626757  0.05220281  1  -1.22398  0  -0.786185  -1.186551  0  2.106902  0
O  O156  1  0.16398461  0.99311186  0.93827406  1  -1.27425  0  -0.688601  -1.05293  0  2.218502  0
O  O157  1  0.14774695  0.95273196  0.13392200  1  -1.275415  0  -0.666888  -1.031294  0  2.131205  0
O  O158  1  0.12437690  0.03937883  0.02041781  1  -1.222254  0  -0.783642  -1.164803  0  2.052919  0
O  O159  1  0.04834673  0.15908905  0.91923310  1  -1.247181  0  -0.667811  -0.941247  0  1.87757  0
O  O160  1  0.12327033  0.77823434  0.01358124  1  -1.279346  0  -0.588152  -0.781677  0  2.004036  0
O  O161  1  0.02807709  0.96833538  0.96041362  1  -1.227285  0  -0.779201  -1.178242  0  2.049432  0
O  O162  1  0.01719067  0.85453967  0.05662307  1  -1.293153  0  -0.673822  -1.02618  0  2.12333  0
O  O163  1  0.01497412  0.94011224  0.10220762  1  -1.216143  0  -0.788285  -1.179371  0  2.130123  0
O  O164  1  0.98619644  0.05064978  0.00600611  1  -1.244535  0  -0.686312  -1.038631  0  2.23829  0
O  O165  1  0.06072094  0.76239297  0.16793016  1  -1.228906  0  -0.700189  -0.96614  0  1.769837  0
O  O166  1  0.90256222  0.83212490  0.19514390  1  -1.135575  0  -0.294893  -0.53046  0  2.050034  0
O  O167  1  0.87222711  0.86763585  0.08800557  1  -1.197348  0  -0.392984  -0.698168  0  2.295628  0
O  O168  1  0.11568061  0.08139759  0.13656624  1  -1.245111  0  -0.701678  -0.979968  0  1.776797  0
O  O169  1  0.86685637  0.99369100  0.07639645  1  -1.159653  0  -0.338895  -0.598998  0  2.222873  0
O  O170  1  0.05587682  0.85403506  0.23026251  1  -1.259373  0  -0.657566  -0.922677  0  1.891467  0
O  O171  1  0.04305887  0.97004896  0.21092579  1  -1.263277  0  -0.615973  -0.847528  0  2.024902  0
O  O172  1  0.03443078  0.14148737  0.03934626  1  -1.281002  0  -0.610301  -0.808752  0  2.032858  0
O  O173  1  0.93857452  0.04062459  0.12646921  1  -1.169436  0  -0.350905  -0.629864  0  2.247544  0
O  O174  1  0.88815742  0.88611831  0.97067822  1  -1.223532  0  -0.563347  -0.765882  0  2.03589  0
O  O175  1  0.09138772  0.09812586  0.82006361  1  -1.207549  0  -0.574651  -0.7747  0  2.040492  0
O  O176  1  0.88106834  0.01342421  0.94210613  1  -1.179679  0  -0.347884  -0.6281  0  2.231819  0
O  O177  1  0.96431506  0.08271583  0.87231846  1  -1.171007  0  -0.331749  -0.613073  0  2.245585  0
O  O178  1  0.12789424  0.93392987  0.86719869  1  -1.21288  0  -0.703916  -0.956897  0  1.790459  0
O  O179  1  0.02649898  0.84358961  0.93536346  1  -1.297683  0  -0.700254  -1.000719  0  1.800184  0
