# generated using pymatgen
data_ZnH11C13(NO2)2
_symmetry_space_group_name_H-M   'P 1'
_cell_length_a   11.01892981
_cell_length_b   11.01892119
_cell_length_c   12.35471172
_cell_angle_alpha   101.81739819
_cell_angle_beta   101.81724215
_cell_angle_gamma   99.88969639
_symmetry_Int_Tables_number   1
_chemical_formula_structural   ZnH11C13(NO2)2
_chemical_formula_sum   'Zn4 H44 C52 N8 O16'
_cell_volume   1400.95106416
_cell_formula_units_Z   4
loop_
 _symmetry_equiv_pos_site_id
 _symmetry_equiv_pos_as_xyz
  1  'x, y, z'
loop_
 _atom_site_type_symbol
 _atom_site_label
 _atom_site_symmetry_multiplicity
 _atom_site_fract_x
 _atom_site_fract_y
 _atom_site_fract_z
 _atom_site_occupancy
 _atom_site_pbe_bader_charge
 _atom_site_pbe_bader_spin_density
 _atom_site_pbe_cm5_charge
 _atom_site_pbe_ddec_charge
 _atom_site_pbe_ddec_spin_density
 _atom_site_pbe_ddec_sum_bond_order
 _atom_site_pbe_magmom
Zn  Zn0  1  0.73146200  0.34186182  0.37420575  1  1.308342  0  0.680916  0.841399  0  2.383497  0
Zn  Zn1  1  0.65814030  0.26853675  0.12579507  1  1.302882  0  0.680931  0.841467  0  2.3834  0
Zn  Zn2  1  0.26853831  0.65814338  0.62579675  1  1.302811  0  0.680918  0.841384  0  2.383509  0
Zn  Zn3  1  0.34186187  0.73146423  0.87420701  1  1.308302  0  0.680919  0.841408  0  2.383543  0
H  H4  1  0.07379154  0.39589083  0.80930093  1  0.08029  0  0.10166  0.150534  0  0.994631  0
H  H5  1  0.98276730  0.27145317  0.85010412  1  0.065938  0  0.100999  0.145761  0  0.990004  0
H  H6  1  0.05844056  0.23522427  0.73711976  1  0.083124  0  0.096471  0.140467  0  1.018845  0
H  H7  1  0.50784573  0.24542210  0.48656602  1  0.117106  0  0.097784  0.144767  0  1.021181  0
H  H8  1  0.50773449  0.23989212  0.63021724  1  0.055386  0  0.091352  0.13354  0  1.028351  0
H  H9  1  0.52708900  0.38736216  0.59222193  1  0.065409  0  0.098762  0.147959  0  0.987875  0
H  H10  1  0.95918189  0.36632970  0.56015613  1  0.531876  0  0.345258  0.295687  0  0.910045  0
H  H11  1  0.01660194  0.23823871  0.07697400  1  0.110386  0  0.103064  0.109878  0  1.003383  0
H  H12  1  0.23831542  0.22516857  0.06187067  1  0.087955  0  0.103581  0.107681  0  1.010737  0
H  H13  1  0.37559250  0.38108063  0.42433592  1  0.113707  0  0.106308  0.108393  0  1.023188  0
H  H14  1  0.15587297  0.38802298  0.44031005  1  0.13808  0  0.100961  0.105481  0  1.053498  0
H  H15  1  0.60410939  0.92620536  0.69069598  1  0.080312  0  0.101655  0.150542  0  0.994648  0
H  H16  1  0.72854709  0.01723238  0.64989375  1  0.065908  0  0.100989  0.145747  0  0.990029  0
H  H17  1  0.76477567  0.94155348  0.76287561  1  0.083081  0  0.096481  0.140478  0  1.018856  0
H  H18  1  0.75457415  0.49215215  0.01343454  1  0.117093  0  0.097821  0.144804  0  1.021164  0
H  H19  1  0.76010488  0.49226166  0.86978153  1  0.055082  0  0.091336  0.133521  0  1.028391  0
H  H20  1  0.61263285  0.47290205  0.90777652  1  0.065396  0  0.098754  0.147948  0  0.9879  0
H  H21  1  0.63366871  0.04081061  0.93984269  1  0.531871  0  0.345269  0.295702  0  0.909874  0
H  H22  1  0.76176635  0.98339855  0.42302349  1  0.110402  0  0.103073  0.109821  0  1.003405  0
H  H23  1  0.77482628  0.76168165  0.43812653  1  0.087994  0  0.103598  0.107737  0  1.010757  0
H  H24  1  0.61891761  0.62440636  0.07566061  1  0.113635  0  0.106295  0.10835  0  1.02323  0
H  H25  1  0.61198185  0.84412732  0.05968575  1  0.138056  0  0.100973  0.105489  0  1.053631  0
H  H26  1  0.92620680  0.60410653  0.19069819  1  0.080252  0  0.101634  0.150494  0  0.994658  0
H  H27  1  0.01723391  0.72854481  0.14989724  1  0.065954  0  0.10101  0.14576  0  0.990029  0
H  H28  1  0.94155968  0.76477165  0.26288025  1  0.083135  0  0.096483  0.140477  0  1.018844  0
H  H29  1  0.49215264  0.75457713  0.51343668  1  0.117118  0  0.097807  0.144792  0  1.021189  0
H  H30  1  0.49226388  0.76010711  0.36978546  1  0.055006  0  0.091351  0.133571  0  1.028387  0
H  H31  1  0.47291127  0.61263656  0.40778101  1  0.065362  0  0.098755  0.147986  0  0.987869  0
H  H32  1  0.04081550  0.63366746  0.43984360  1  0.531856  0  0.345275  0.295674  0  0.909999  0
H  H33  1  0.98339930  0.76176669  0.92302465  1  0.110394  0  0.103086  0.109828  0  1.00341  0
H  H34  1  0.76168482  0.77483104  0.93812595  1  0.087996  0  0.103586  0.107708  0  1.010751  0
H  H35  1  0.62440682  0.61891972  0.57566391  1  0.113901  0  0.106302  0.108354  0  1.023205  0
H  H36  1  0.84412540  0.61197994  0.55968764  1  0.138105  0  0.100959  0.105468  0  1.053536  0
H  H37  1  0.39588991  0.07379221  0.30930416  1  0.080297  0  0.101649  0.150511  0  0.994625  0
H  H38  1  0.27145031  0.98276663  0.35010469  1  0.065855  0  0.101001  0.145766  0  0.98998  0
H  H39  1  0.23522452  0.05844055  0.23711920  1  0.083217  0  0.096481  0.140463  0  1.018867  0
H  H40  1  0.24542325  0.50784685  0.98656390  1  0.117085  0  0.097798  0.144779  0  1.021179  0
H  H41  1  0.23989344  0.50773476  0.13021580  1  0.055432  0  0.091373  0.133573  0  1.028363  0
H  H42  1  0.38736451  0.52709046  0.09222074  1  0.065383  0  0.098733  0.147967  0  0.987869  0
H  H43  1  0.36633057  0.95918510  0.06015712  1  0.531859  0  0.345257  0.295704  0  0.909932  0
H  H44  1  0.23823679  0.01660357  0.57697977  1  0.110447  0  0.103073  0.109803  0  1.003518  0
H  H45  1  0.22516922  0.23831602  0.56187294  1  0.087972  0  0.103571  0.107688  0  1.010768  0
H  H46  1  0.38107697  0.37559667  0.92433723  1  0.113875  0  0.106295  0.10833  0  1.023263  0
H  H47  1  0.38801845  0.15587881  0.94031448  1  0.138089  0  0.100965  0.105499  0  1.053533  0
C  C48  1  0.76405958  0.28159863  0.70469493  1  0.056064  0  -0.030746  -0.145099  0  4.071276  0
C  C49  1  0.94009287  0.32149554  0.26849532  1  1.55043  0  0.210383  0.589582  0  4.176799  0
C  C50  1  0.07254942  0.31406799  0.25932969  1  -0.087208  0  -0.018046  -0.031142  0  3.959478  0
C  C51  1  0.09620524  0.26829284  0.15255858  1  -0.017961  0  -0.083773  -0.09829  0  3.97043  0
C  C52  1  0.21914660  0.26148145  0.14421046  1  -0.088006  0  -0.085341  -0.102186  0  3.986409  0
C  C53  1  0.32054575  0.30243028  0.24240226  1  0.033079  0  -0.016855  -0.042283  0  3.979531  0
C  C54  1  0.45344259  0.29354894  0.23633317  1  1.550389  0  0.214184  0.576269  0  4.194475  0
C  C55  1  0.29664439  0.34893179  0.34853034  1  -0.087443  0  -0.082417  -0.089581  0  3.960383  0
C  C56  1  0.17358032  0.35326056  0.35727960  1  -0.04876  0  -0.088227  -0.101657  0  3.986349  0
C  C57  1  0.89022140  0.30801371  0.69644362  1  0.429499  0  0.111394  0.214286  0  3.989793  0
C  C58  1  0.00788823  0.30225165  0.77705292  1  -0.100626  0  -0.23242  -0.427629  0  3.958653  0
C  C59  1  0.55066666  0.29325881  0.57669689  1  -0.096543  0  -0.238166  -0.430845  0  3.947185  0
C  C60  1  0.69041345  0.30514455  0.60643960  1  0.46369  0  0.1087  0.228066  0  3.989519  0
C  C61  1  0.71840118  0.23593640  0.79530327  1  0.026929  0  -0.03084  -0.145295  0  4.07149  0
C  C62  1  0.67851205  0.05991235  0.23150495  1  1.55127  0  0.210355  0.5895  0  4.176608  0
C  C63  1  0.68594110  0.92745373  0.24066820  1  -0.087246  0  -0.01806  -0.031253  0  3.959406  0
C  C64  1  0.73170907  0.90379358  0.34743799  1  -0.017865  0  -0.083754  -0.098056  0  3.970367  0
C  C65  1  0.73851595  0.78084965  0.35578550  1  -0.08798  0  -0.085438  -0.102465  0  3.986389  0
C  C66  1  0.69756659  0.67945210  0.25759463  1  0.032986  0  -0.016799  -0.042169  0  3.979357  0
C  C67  1  0.70644254  0.54655380  0.26366557  1  1.550237  0  0.21427  0.576436  0  4.194399  0
C  C68  1  0.65107035  0.70335491  0.15146703  1  -0.087225  0  -0.082405  -0.089526  0  3.960299  0
C  C69  1  0.64674470  0.82642035  0.14271628  1  -0.048905  0  -0.088241  -0.101657  0  3.986252  0
C  C70  1  0.69198759  0.10977423  0.80355629  1  0.42944  0  0.111402  0.214316  0  3.989956  0
C  C71  1  0.69774945  0.99210767  0.72294475  1  -0.100604  0  -0.232402  -0.427637  0  3.958711  0
C  C72  1  0.70673942  0.44933077  0.92330396  1  -0.096141  0  -0.238157  -0.430855  0  3.947174  0
C  C73  1  0.69485558  0.30958095  0.89356009  1  0.463592  0  0.108695  0.22819  0  3.989417  0
C  C74  1  0.23593968  0.71839522  0.29530292  1  0.056267  0  -0.030806  -0.145281  0  4.071239  0
C  C75  1  0.05990740  0.67850687  0.73150425  1  1.55037  0  0.210334  0.589461  0  4.176623  0
C  C76  1  0.92745278  0.68593762  0.74067079  1  -0.087193  0  -0.018049  -0.031207  0  3.959507  0
C  C77  1  0.90379311  0.73170729  0.84743942  1  -0.01791  0  -0.08375  -0.098107  0  3.970547  0
C  C78  1  0.78085177  0.73852147  0.85578723  1  -0.088028  0  -0.085378  -0.102306  0  3.986449  0
C  C79  1  0.67945260  0.69756893  0.75759719  1  0.033121  0  -0.016839  -0.042254  0  3.979467  0
C  C80  1  0.54656055  0.70645225  0.76367154  1  1.550727  0  0.214221  0.576394  0  4.194002  0
C  C81  1  0.70335398  0.65107021  0.65146881  1  -0.087672  0  -0.082396  -0.089534  0  3.960265  0
C  C82  1  0.82641900  0.64674164  0.64271894  1  -0.048775  0  -0.088229  -0.101644  0  3.986104  0
C  C83  1  0.10977788  0.69198108  0.30355602  1  0.42983  0  0.111416  0.214343  0  3.989702  0
C  C84  1  0.99211106  0.69774499  0.22294624  1  -0.100892  0  -0.232411  -0.427594  0  3.95861  0
C  C85  1  0.44933361  0.70673898  0.42330589  1  -0.096146  0  -0.23814  -0.430906  0  3.947216  0
C  C86  1  0.30958584  0.69485209  0.39355955  1  0.463597  0  0.108672  0.228084  0  3.989509  0
C  C87  1  0.28160095  0.76405900  0.20469618  1  0.026758  0  -0.030781  -0.145145  0  4.071205  0
C  C88  1  0.32149395  0.94009408  0.76849636  1  1.550531  0  0.210356  0.589598  0  4.176607  0
C  C89  1  0.31406396  0.07255342  0.75933388  1  -0.086908  0  -0.018069  -0.031407  0  3.959612  0
C  C90  1  0.26829214  0.09620718  0.65256145  1  -0.017968  0  -0.083809  -0.098105  0  3.970417  0
C  C91  1  0.26147954  0.21914894  0.64421171  1  -0.087997  0  -0.085372  -0.10232  0  3.986269  0
C  C92  1  0.30242798  0.32054816  0.74240433  1  0.032854  0  -0.016807  -0.042207  0  3.979273  0
C  C93  1  0.29354917  0.45344583  0.73633115  1  1.550371  0  0.214265  0.576437  0  4.19411  0
C  C94  1  0.34892708  0.29664781  0.84853289  1  -0.087716  0  -0.082399  -0.089477  0  3.9603  0
C  C95  1  0.35325560  0.17358485  0.85728459  1  -0.04902  0  -0.08816  -0.10152  0  3.986281  0
C  C96  1  0.30801645  0.89022067  0.19644584  1  0.429751  0  0.111358  0.214236  0  3.989795  0
C  C97  1  0.30225077  0.00788824  0.27705364  1  -0.100886  0  -0.232394  -0.42758  0  3.958605  0
C  C98  1  0.29326082  0.55066700  0.07669476  1  -0.096551  0  -0.238145  -0.430891  0  3.947164  0
C  C99  1  0.30514561  0.69041517  0.10644013  1  0.463615  0  0.108666  0.228092  0  3.989553  0
N  N100  1  0.76680274  0.34227935  0.54174155  1  -0.762392  0  -0.25471  -0.220968  0  3.43619  0
N  N101  1  0.88701012  0.34335872  0.59751091  1  -0.843263  0  -0.27774  -0.139423  0  3.663387  0
N  N102  1  0.65772233  0.23319333  0.95825949  1  -0.762419  0  -0.254689  -0.221049  0  3.436161  0
N  N103  1  0.65664421  0.11298610  0.90248862  1  -0.843318  0  -0.277737  -0.139382  0  3.663261  0
N  N104  1  0.23319847  0.65771957  0.45825998  1  -0.762226  0  -0.254704  -0.220961  0  3.436166  0
N  N105  1  0.11299012  0.65663720  0.40248828  1  -0.843473  0  -0.277754  -0.139371  0  3.663371  0
N  N106  1  0.34227982  0.76680393  0.04174192  1  -0.762399  0  -0.254682  -0.220975  0  3.436282  0
N  N107  1  0.34335889  0.88701137  0.09751299  1  -0.843237  0  -0.277732  -0.139402  0  3.663294  0
O  O108  1  0.85609802  0.29971871  0.17522744  1  -1.17776  0  -0.317849  -0.560588  0  2.346947  0
O  O109  1  0.92073050  0.34927296  0.36826150  1  -1.166705  0  -0.318383  -0.557894  0  2.308028  0
O  O110  1  0.53882181  0.33480075  0.33003003  1  -1.175937  0  -0.31186  -0.553387  0  2.38775  0
O  O111  1  0.47166121  0.24469407  0.13968261  1  -1.170734  0  -0.315251  -0.53879  0  2.318224  0
O  O112  1  0.70030295  0.14390821  0.32477560  1  -1.177769  0  -0.317898  -0.560541  0  2.346762  0
O  O113  1  0.65073588  0.07927033  0.13173826  1  -1.167412  0  -0.318295  -0.557807  0  2.307998  0
O  O114  1  0.66518817  0.46117616  0.16997172  1  -1.176004  0  -0.311904  -0.553527  0  2.387897  0
O  O115  1  0.75529972  0.52834141  0.36032082  1  -1.170708  0  -0.315273  -0.538824  0  2.31809  0
O  O116  1  0.14390327  0.70029319  0.82477401  1  -1.177704  0  -0.317845  -0.560572  0  2.346904  0
O  O117  1  0.07926878  0.65072460  0.63173540  1  -1.166687  0  -0.318327  -0.557775  0  2.307849  0
O  O118  1  0.46118038  0.66519839  0.66997576  1  -1.176334  0  -0.311884  -0.553437  0  2.387736  0
O  O119  1  0.52834385  0.75530756  0.86032576  1  -1.170746  0  -0.315299  -0.538862  0  2.317748  0
O  O120  1  0.29971067  0.85609803  0.67523027  1  -1.177682  0  -0.317844  -0.560566  0  2.34693  0
O  O121  1  0.34927675  0.92073383  0.86826464  1  -1.166839  0  -0.318347  -0.557849  0  2.307878  0
O  O122  1  0.33480356  0.53882441  0.83002840  1  -1.175863  0  -0.311935  -0.553498  0  2.387781  0
O  O123  1  0.24469960  0.47166079  0.63967691  1  -1.170626  0  -0.315274  -0.538868  0  2.317945  0
