# generated using pymatgen
data_SrH11C11NO5
_symmetry_space_group_name_H-M   'P 1'
_cell_length_a   9.79765800
_cell_length_b   10.61123303
_cell_length_c   10.61104789
_cell_angle_alpha   119.99341070
_cell_angle_beta   90.00319983
_cell_angle_gamma   90.00635462
_symmetry_Int_Tables_number   1
_chemical_formula_structural   SrH11C11NO5
_chemical_formula_sum   'Sr3 H33 C33 N3 O15'
_cell_volume   955.44537080
_cell_formula_units_Z   3
loop_
 _symmetry_equiv_pos_site_id
 _symmetry_equiv_pos_as_xyz
  1  'x, y, z'
loop_
 _atom_site_type_symbol
 _atom_site_label
 _atom_site_symmetry_multiplicity
 _atom_site_fract_x
 _atom_site_fract_y
 _atom_site_fract_z
 _atom_site_occupancy
 _atom_site_hle17_bader_spin_density
 _atom_site_hle17_ddec_charge
 _atom_site_hle17_ddec_spin_density
 _atom_site_hle17_ddec_sum_bond_order
 _atom_site_hle17_magmom
 _atom_site_hse06_10hf_bader_spin_density
 _atom_site_hse06_10hf_ddec_charge
 _atom_site_hse06_10hf_ddec_spin_density
 _atom_site_hse06_10hf_ddec_sum_bond_order
 _atom_site_hse06_10hf_magmom
 _atom_site_hse06_bader_spin_density
 _atom_site_hse06_ddec_charge
 _atom_site_hse06_ddec_spin_density
 _atom_site_hse06_ddec_sum_bond_order
 _atom_site_hse06_magmom
 _atom_site_pbe_bader_spin_density
 _atom_site_pbe_cm5_charge
 _atom_site_pbe_ddec_charge
 _atom_site_pbe_ddec_spin_density
 _atom_site_pbe_ddec_sum_bond_order
 _atom_site_pbe_magmom
Sr  Sr0  1  0.83191966  0.09869885  0.12217539  1  0  1.615918  0  1.188081  0  0  1.471048  0  1.574611  0  0  1.512229  0  1.525984  0  0  1.003088  1.439685  0  1.610901  0
Sr  Sr1  1  0.16522273  0.87777676  0.97642548  1  0  1.616406  0  1.187655  0  0  1.471498  0  1.57431  0  0  1.512542  0  1.525911  0  0  1.003376  1.440272  0  1.610385  0
Sr  Sr2  1  0.49860395  0.02345393  0.90125598  1  0  1.615779  0  1.188006  0  0  1.470732  0  1.574778  0  0  1.512013  0  1.525941  0  0  1.00306  1.439354  0  1.611099  0
H  H3  1  0.11317286  0.85622337  0.65895770  1  0  0.105311  0  1.007989  0  0  0.109988  0  1.077997  0  0  0.114338  0  1.074749  0  0  0.108961  0.106549  0  1.080953  0
H  H4  1  0.44652702  0.34116270  0.19699510  1  0  0.105406  0  1.007913  0  0  0.109836  0  1.078084  0  0  0.114174  0  1.074861  0  0  0.108913  0.106413  0  1.081026  0
H  H5  1  0.77972664  0.80292265  0.14401418  1  0  0.10508  0  1.008704  0  0  0.109733  0  1.078424  0  0  0.114036  0  1.075261  0  0  0.108737  0.106334  0  1.081347  0
H  H6  1  0.18817879  0.84092375  0.42780290  1  0  0.098234  0  0.958668  0  0  0.108089  0  1.019553  0  0  0.111446  0  1.018103  0  0  0.104147  0.105663  0  1.020851  0
H  H7  1  0.52149494  0.57245489  0.41263500  1  0  0.098499  0  0.958528  0  0  0.108064  0  1.019742  0  0  0.111405  0  1.018347  0  0  0.103862  0.105649  0  1.021009  0
H  H8  1  0.85485968  0.58727141  0.15956794  1  0  0.098537  0  0.958313  0  0  0.108354  0  1.019263  0  0  0.111641  0  1.017894  0  0  0.104039  0.105979  0  1.020509  0
H  H9  1  0.80043108  0.00753127  0.38953953  1  0  0.093095  0  0.971202  0  0  0.099418  0  1.041715  0  0  0.103559  0  1.038765  0  0  0.10781  0.09607  0  1.04468  0
H  H10  1  0.13408430  0.61027471  0.61788332  1  0  0.09313  0  0.971445  0  0  0.09931  0  1.042145  0  0  0.103394  0  1.039191  0  0  0.107881  0.095962  0  1.045156  0
H  H11  1  0.46738505  0.38193272  0.99247378  1  0  0.093014  0  0.970812  0  0  0.098911  0  1.041915  0  0  0.103063  0  1.038886  0  0  0.107892  0.095544  0  1.044936  0
H  H12  1  0.72242929  0.01889372  0.62063800  1  0  0.099074  0  0.95914  0  0  0.106814  0  1.024388  0  0  0.110789  0  1.021783  0  0  0.108879  0.103921  0  1.026452  0
H  H13  1  0.05605228  0.37914028  0.39826324  1  0  0.098919  0  0.959045  0  0  0.106797  0  1.02412  0  0  0.110685  0  1.021605  0  0  0.108652  0.103846  0  1.026264  0
H  H14  1  0.38919349  0.60162265  0.98118016  1  0  0.09892  0  0.959292  0  0  0.106531  0  1.024751  0  0  0.110491  0  1.022108  0  0  0.108527  0.103653  0  1.026833  0
H  H15  1  0.90061620  0.61603329  0.53023213  1  0  0.097474  0  0.946541  0  0  0.118722  0  1.010011  0  0  0.117951  0  1.012164  0  0  0.104394  0.119193  0  1.008542  0
H  H16  1  0.23441434  0.46951032  0.08547562  1  0  0.097542  0  0.947384  0  0  0.119068  0  1.010443  0  0  0.118278  0  1.012615  0  0  0.10481  0.119548  0  1.008973  0
H  H17  1  0.56698158  0.91427272  0.38414208  1  0  0.097207  0  0.947131  0  0  0.119056  0  1.009716  0  0  0.118239  0  1.011918  0  0  0.104689  0.119543  0  1.008235  0
H  H18  1  0.72176281  0.64445697  0.52643797  1  0  0.116507  0  0.939724  0  0  0.135484  0  1.002622  0  0  0.136667  0  1.001792  0  0  0.111356  0.13431  0  1.003857  0
H  H19  1  0.05568204  0.47357796  0.11826316  1  0  0.116869  0  0.939128  0  0  0.136089  0  1.001669  0  0  0.137285  0  1.000844  0  0  0.111525  0.134948  0  1.002863  0
H  H20  1  0.38814420  0.88193030  0.35558158  1  0  0.117191  0  0.94005  0  0  0.136017  0  1.003051  0  0  0.137215  0  1.002187  0  0  0.111515  0.134863  0  1.00426  0
H  H21  1  0.80068289  0.48172247  0.38360177  1  0  0.114616  0  0.958559  0  0  0.13056  0  1.025616  0  0  0.132356  0  1.024556  0  0  0.115191  0.129115  0  1.026774  0
H  H22  1  0.13461907  0.61632805  0.09814515  1  0  0.115175  0  0.958144  0  0  0.130774  0  1.025501  0  0  0.132604  0  1.024384  0  0  0.115337  0.129319  0  1.026692  0
H  H23  1  0.46701000  0.90197738  0.51844412  1  0  0.114794  0  0.958377  0  0  0.130727  0  1.025387  0  0  0.132491  0  1.024348  0  0  0.115261  0.129311  0  1.026522  0
H  H24  1  0.73110598  0.51444959  0.78860415  1  0  0.093648  0  0.957594  0  0  0.110615  0  1.027497  0  0  0.110459  0  1.029166  0  0  0.103368  0.110355  0  1.026862  0
H  H25  1  0.06401833  0.21153222  0.72603242  1  0  0.093143  0  0.957725  0  0  0.110396  0  1.027406  0  0  0.110242  0  1.029072  0  0  0.103269  0.110143  0  1.026766  0
H  H26  1  0.39743223  0.27403280  0.48533134  1  0  0.093288  0  0.957674  0  0  0.110319  0  1.027542  0  0  0.110164  0  1.029201  0  0  0.103274  0.110078  0  1.026892  0
H  H27  1  0.66619383  0.65435345  0.75706986  1  0  0.117346  0  0.941808  0  0  0.135723  0  1.004148  0  0  0.136914  0  1.004152  0  0  0.113522  0.134811  0  1.004112  0
H  H28  1  0.99914685  0.24319722  0.89751688  1  0  0.11755  0  0.941832  0  0  0.135277  0  1.004944  0  0  0.136478  0  1.004971  0  0  0.1133  0.134381  0  1.004874  0
H  H29  1  0.33259303  0.10254583  0.34548151  1  0  0.117054  0  0.942066  0  0  0.135231  0  1.004585  0  0  0.136393  0  1.004655  0  0  0.113455  0.134347  0  1.00452  0
H  H30  1  0.84415023  0.64768215  0.79033115  1  0  0.112106  0  0.934379  0  0  0.130028  0  0.998662  0  0  0.131275  0  0.99842  0  0  0.113351  0.12903  0  0.999013  0
H  H31  1  0.17705429  0.20950235  0.85740798  1  0  0.111595  0  0.934939  0  0  0.130044  0  0.998638  0  0  0.131299  0  0.998376  0  0  0.113326  0.129044  0  0.998995  0
H  H32  1  0.51053101  0.14252177  0.35223793  1  0  0.111456  0  0.935698  0  0  0.130025  0  0.999  0  0  0.131238  0  0.998791  0  0  0.11331  0.129063  0  0.999307  0
H  H33  1  0.74322932  0.30535940  0.59734700  1  0  0.028512  0  0.915202  0  0  0.039723  0  0.980852  0  0  0.041773  0  0.975628  0  0  0.11924  0.038167  0  0.984512  0
H  H34  1  0.07615971  0.40271100  0.70819580  1  0  0.028782  0  0.914679  0  0  0.039965  0  0.980487  0  0  0.042022  0  0.97523  0  0  0.119105  0.038405  0  0.984161  0
H  H35  1  0.40959153  0.29202130  0.69456356  1  0  0.028833  0  0.914418  0  0  0.040022  0  0.980185  0  0  0.042006  0  0.975027  0  0  0.11915  0.038446  0  0.98384  0
C  C36  1  0.86885803  0.94939039  0.79408870  1  0  0.680942  0  3.912064  0  0  0.633035  0  4.20076  0  0  0.66738  0  4.191676  0  0  0.221738  0.60953  0  4.205898  0
C  C37  1  0.20229703  0.20585605  0.15515624  1  0  0.683311  0  3.910502  0  0  0.635087  0  4.199468  0  0  0.669449  0  4.190321  0  0  0.222772  0.611577  0  4.204643  0
C  C38  1  0.53544142  0.84471841  0.05069366  1  0  0.681492  0  3.9122  0  0  0.633432  0  4.20101  0  0  0.667774  0  4.191941  0  0  0.221892  0.609929  0  4.206142  0
C  C39  1  0.91222563  0.93703911  0.65302796  1  0  -0.065907  0  3.756697  0  0  -0.042304  0  3.984696  0  0  -0.048735  0  4.006494  0  0  -0.01187  -0.037524  0  3.969581  0
C  C40  1  0.24571364  0.34691508  0.28387264  1  0  -0.067181  0  3.756833  0  0  -0.04327  0  3.984717  0  0  -0.049714  0  4.006505  0  0  -0.011833  -0.038475  0  3.969575  0
C  C41  1  0.57888731  0.71605444  0.06310470  1  0  -0.065513  0  3.755369  0  0  -0.041726  0  3.983185  0  0  -0.048176  0  4.004983  0  0  -0.011666  -0.036941  0  3.968081  0
C  C42  1  0.04352871  0.88714293  0.59904378  1  0  -0.080717  0  3.734826  0  0  -0.102826  0  3.982795  0  0  -0.103556  0  4.001832  0  0  -0.083171  -0.102327  0  3.97014  0
C  C43  1  0.37692387  0.40103637  0.28781019  1  0  -0.080209  0  3.73539  0  0  -0.102036  0  3.98313  0  0  -0.102777  0  4.002208  0  0  -0.083091  -0.101526  0  3.970432  0
C  C44  1  0.71016282  0.71210286  0.11315372  1  0  -0.080831  0  3.735809  0  0  -0.102821  0  3.983802  0  0  -0.103538  0  4.002819  0  0  -0.082884  -0.102337  0  3.971156  0
C  C45  1  0.08637750  0.88008902  0.47082274  1  0  -0.073297  0  3.732266  0  0  -0.093778  0  3.97519  0  0  -0.095123  0  3.99557  0  0  -0.084015  -0.092845  0  3.961632  0
C  C46  1  0.41980773  0.52930246  0.40891027  1  0  -0.073216  0  3.731216  0  0  -0.093582  0  3.973907  0  0  -0.094968  0  3.994288  0  0  -0.08369  -0.092619  0  3.960372  0
C  C47  1  0.75311909  0.59099853  0.12025087  1  0  -0.072976  0  3.731314  0  0  -0.093499  0  3.974373  0  0  -0.094778  0  3.994735  0  0  -0.083886  -0.092619  0  3.960808  0
C  C48  1  0.99923878  0.92301095  0.39452040  1  0  -0.055076  0  3.747044  0  0  -0.032211  0  3.975381  0  0  -0.038218  0  3.997821  0  0  -0.013433  -0.028223  0  3.96039  0
C  C49  1  0.33277062  0.60544942  0.52825748  1  0  -0.055375  0  3.746852  0  0  -0.032177  0  3.974784  0  0  -0.038112  0  3.997073  0  0  -0.013313  -0.028246  0  3.959922  0
C  C50  1  0.66606737  0.47163587  0.07715073  1  0  -0.055841  0  3.746842  0  0  -0.032949  0  3.9755  0  0  -0.038974  0  3.997911  0  0  -0.013348  -0.028939  0  3.960526  0
C  C51  1  0.04869765  0.91310124  0.25598825  1  0  0.654402  0  3.932959  0  0  0.607721  0  4.222955  0  0  0.641528  0  4.214445  0  0  0.208803  0.584801  0  4.227525  0
C  C52  1  0.38226812  0.74387892  0.65695616  1  0  0.653788  0  3.936957  0  0  0.606701  0  4.227323  0  0  0.640513  0  4.218811  0  0  0.207935  0.58377  0  4.231912  0
C  C53  1  0.71562791  0.34296605  0.08692873  1  0  0.65378  0  3.933874  0  0  0.606792  0  4.224285  0  0  0.640633  0  4.215744  0  0  0.207902  0.583828  0  4.228898  0
C  C54  1  0.86743946  0.97287275  0.44852947  1  0  -0.088667  0  3.75441  0  0  -0.111785  0  4.006455  0  0  -0.114073  0  4.028292  0  0  -0.084239  -0.109997  0  3.991885  0
C  C55  1  0.20100209  0.55137597  0.52418268  1  0  -0.088705  0  3.75546  0  0  -0.111795  0  4.007577  0  0  -0.114002  0  4.029364  0  0  -0.08445  -0.110017  0  3.993023  0
C  C56  1  0.53426930  0.47570165  0.02724549  1  0  -0.087809  0  3.754735  0  0  -0.110525  0  4.006757  0  0  -0.112757  0  4.028561  0  0  -0.084261  -0.108752  0  3.992185  0
C  C57  1  0.82421610  0.97993641  0.57697967  1  0  -0.080656  0  3.738718  0  0  -0.101816  0  3.985226  0  0  -0.102696  0  4.005461  0  0  -0.082868  -0.101211  0  3.971526  0
C  C58  1  0.15776507  0.42290638  0.40286211  1  0  -0.080591  0  3.738529  0  0  -0.101939  0  3.985021  0  0  -0.102758  0  4.005275  0  0  -0.083108  -0.101288  0  3.971333  0
C  C59  1  0.49095581  0.59703773  0.02017655  1  0  -0.081426  0  3.739147  0  0  -0.102504  0  3.985544  0  0  -0.103354  0  4.005752  0  0  -0.083102  -0.101922  0  3.971874  0
C  C60  1  0.80081980  0.56147339  0.50008527  1  0  -0.175555  0  3.619066  0  0  -0.274036  0  3.860314  0  0  -0.270638  0  3.8703  0  0  -0.13036  -0.276025  0  3.853879  0
C  C61  1  0.13457932  0.49982448  0.06136119  1  0  -0.177004  0  3.620116  0  0  -0.275577  0  3.861762  0  0  -0.272231  0  3.871774  0  0  -0.13138  -0.27757  0  3.855277  0
C  C62  1  0.46716492  0.93862451  0.43861643  1  0  -0.177191  0  3.620266  0  0  -0.275709  0  3.861826  0  0  -0.272194  0  3.8718  0  0  -0.131182  -0.27779  0  3.855362  0
C  C63  1  0.75281165  0.58147347  0.73897196  1  0  -0.186124  0  3.652551  0  0  -0.288659  0  3.905211  0  0  -0.286198  0  3.916806  0  0  -0.130142  -0.290008  0  3.897391  0
C  C64  1  0.08583412  0.26108888  0.84265013  1  0  -0.18541  0  3.652012  0  0  -0.288203  0  3.904875  0  0  -0.285755  0  3.916474  0  0  -0.130098  -0.289578  0  3.897018  0
C  C65  1  0.41917534  0.15738710  0.41841200  1  0  -0.185422  0  3.653215  0  0  -0.287887  0  3.906317  0  0  -0.285302  0  3.917897  0  0  -0.130204  -0.289348  0  3.898468  0
C  C66  1  0.76565197  0.34362965  0.51963473  1  0  0.402384  0  3.862459  0  0  0.330442  0  4.147152  0  0  0.358437  0  4.14782  0  0  0.181605  0.311809  0  4.145675  0
C  C67  1  0.09895088  0.48039315  0.82408852  1  0  0.401992  0  3.861508  0  0  0.329992  0  4.14623  0  0  0.357978  0  4.146913  0  0  0.181763  0.311362  0  4.144746  0
C  C68  1  0.43198672  0.17603225  0.65635615  1  0  0.401308  0  3.860333  0  0  0.329867  0  4.145071  0  0  0.357925  0  4.145842  0  0  0.181552  0.311247  0  4.143518  0
N  N69  1  0.77427893  0.48842636  0.58298803  1  0  -0.084863  0  3.504023  0  0  0.021111  0  3.734962  0  0  0.000826  0  3.760734  0  0  -0.276143  0.034724  0  3.716805  0
N  N70  1  0.10764039  0.41702177  0.90550881  1  0  -0.084102  0  3.503712  0  0  0.021945  0  3.73478  0  0  0.001664  0  3.760566  0  0  -0.275443  0.035554  0  3.716641  0
N  N71  1  0.44059685  0.09453624  0.51156579  1  0  -0.082537  0  3.502275  0  0  0.022044  0  3.734375  0  0  0.00165  0  3.760271  0  0  -0.27526  0.035735  0  3.716118  0
O  O72  1  0.95428478  0.91716573  0.86488663  1  0  -0.759464  0  1.98435  0  0  -0.694881  0  2.232585  0  0  -0.721121  0  2.22003  0  0  -0.40329  -0.676123  0  2.241502  0
O  O73  1  0.28773457  0.13509538  0.05218290  1  0  -0.759542  0  1.984497  0  0  -0.694856  0  2.232968  0  0  -0.721094  0  2.220296  0  0  -0.403234  -0.676109  0  2.241959  0
O  O74  1  0.62090981  0.94768974  0.08278951  1  0  -0.759143  0  1.982361  0  0  -0.694768  0  2.231254  0  0  -0.720948  0  2.218466  0  0  -0.403207  -0.676049  0  2.240337  0
O  O75  1  0.74990634  0.99658332  0.84232126  1  0  -0.738512  0  2.026844  0  0  -0.675628  0  2.272529  0  0  -0.702417  0  2.262423  0  0  -0.392644  -0.656086  0  2.279121  0
O  O76  1  0.08336568  0.15755178  0.15416211  1  0  -0.739839  0  2.025664  0  0  -0.677063  0  2.271664  0  0  -0.703758  0  2.261421  0  0  -0.393284  -0.657574  0  2.278342  0
O  O77  1  0.41645039  0.84572525  0.00359829  1  0  -0.738626  0  2.027696  0  0  -0.675929  0  2.273766  0  0  -0.702647  0  2.263573  0  0  -0.392538  -0.656448  0  2.280434  0
O  O78  1  0.17515636  0.89269803  0.22614432  1  0  -0.67831  0  1.932348  0  0  -0.629383  0  2.166372  0  0  -0.653238  0  2.156703  0  0  -0.365987  -0.612953  0  2.172778  0
O  O79  1  0.50875348  0.77363476  0.66649250  1  0  -0.678444  0  1.933109  0  0  -0.629328  0  2.16726  0  0  -0.653186  0  2.1575  0  0  -0.365761  -0.612904  0  2.173727  0
O  O80  1  0.84212655  0.33351637  0.10722018  1  0  -0.678556  0  1.931776  0  0  -0.629495  0  2.165997  0  0  -0.653391  0  2.156331  0  0  -0.365635  -0.613048  0  2.172431  0
O  O81  1  0.96083913  0.92223446  0.17128610  1  0  -0.755074  0  2.031977  0  0  -0.687962  0  2.276057  0  0  -0.714832  0  2.26446  0  0  -0.402639  -0.668344  0  2.284117  0
O  O82  1  0.29444689  0.82853558  0.75088780  1  0  -0.754192  0  2.033148  0  0  -0.686904  0  2.277292  0  0  -0.713823  0  2.265703  0  0  -0.401711  -0.667246  0  2.285327  0
O  O83  1  0.62781325  0.24902258  0.07770833  1  0  -0.754252  0  2.032701  0  0  -0.686994  0  2.277  0  0  -0.713934  0  2.265406  0  0  -0.402022  -0.667317  0  2.285044  0
O  O84  1  0.78088813  0.25514864  0.38701528  1  0  -0.607735  0  2.04547  0  0  -0.55347  0  2.30308  0  0  -0.577339  0  2.29418  0  0  -0.364971  -0.536284  0  2.308589  0
O  O85  1  0.11429751  0.61299564  0.86816484  1  0  -0.607912  0  2.045399  0  0  -0.553541  0  2.302865  0  0  -0.577374  0  2.29397  0  0  -0.365277  -0.536387  0  2.308378  0
O  O86  1  0.44722203  0.13197453  0.74493234  1  0  -0.607606  0  2.044876  0  0  -0.553343  0  2.302307  0  0  -0.577182  0  2.29328  0  0  -0.364894  -0.536181  0  2.30786  0
