# generated using pymatgen
data_ZnH10C12(NO2)2
_symmetry_space_group_name_H-M   'P 1'
_cell_length_a   9.22049625
_cell_length_b   9.42004244
_cell_length_c   14.89370391
_cell_angle_alpha   94.24878139
_cell_angle_beta   89.99985896
_cell_angle_gamma   90.00002846
_symmetry_Int_Tables_number   1
_chemical_formula_structural   ZnH10C12(NO2)2
_chemical_formula_sum   'Zn4 H40 C48 N8 O16'
_cell_volume   1290.07417794
_cell_formula_units_Z   4
loop_
 _symmetry_equiv_pos_site_id
 _symmetry_equiv_pos_as_xyz
  1  'x, y, z'
loop_
 _atom_site_type_symbol
 _atom_site_label
 _atom_site_symmetry_multiplicity
 _atom_site_fract_x
 _atom_site_fract_y
 _atom_site_fract_z
 _atom_site_occupancy
 _atom_site_hle17_bader_spin_density
 _atom_site_hle17_ddec_charge
 _atom_site_hle17_ddec_spin_density
 _atom_site_hle17_ddec_sum_bond_order
 _atom_site_hle17_magmom
 _atom_site_hse06_10hf_bader_spin_density
 _atom_site_hse06_10hf_ddec_charge
 _atom_site_hse06_10hf_ddec_spin_density
 _atom_site_hse06_10hf_ddec_sum_bond_order
 _atom_site_hse06_10hf_magmom
 _atom_site_hse06_bader_spin_density
 _atom_site_hse06_ddec_charge
 _atom_site_hse06_ddec_spin_density
 _atom_site_hse06_ddec_sum_bond_order
 _atom_site_hse06_magmom
 _atom_site_pbe_bader_spin_density
 _atom_site_pbe_cm5_charge
 _atom_site_pbe_ddec_charge
 _atom_site_pbe_ddec_spin_density
 _atom_site_pbe_ddec_sum_bond_order
 _atom_site_pbe_magmom
Zn  Zn0  1  0.84062955  0.75104457  0.00512681  1  0  0.969102  0  1.906052  0  0  0.792148  0  2.35693  0  0  0.837158  0  2.309594  0  0  0.663857  0.759578  0  2.389573  0
Zn  Zn1  1  0.65936812  0.25104566  0.50512542  1  0  0.969081  0  1.906111  0  0  0.792137  0  2.356968  0  0  0.837141  0  2.309634  0  0  0.663875  0.759567  0  2.389608  0
Zn  Zn2  1  0.15937020  0.24895619  0.99487448  1  0  0.969095  0  1.906059  0  0  0.792145  0  2.356911  0  0  0.837154  0  2.309569  0  0  0.663881  0.759574  0  2.389552  0
Zn  Zn3  1  0.34062729  0.74895725  0.49487329  1  0  0.969073  0  1.90606  0  0  0.792119  0  2.356932  0  0  0.837126  0  2.309599  0  0  0.663856  0.759549  0  2.389571  0
H  H4  1  0.72769056  0.68071548  0.19018118  1  0  0.08321  0  0.959018  0  0  0.091489  0  1.024188  0  0  0.093646  0  1.022403  0  0  0.117585  0.090032  0  1.024905  0
H  H5  1  0.77230635  0.18071554  0.69017957  1  0  0.08316  0  0.959012  0  0  0.091443  0  1.024197  0  0  0.093602  0  1.022396  0  0  0.117567  0.089985  0  1.024914  0
H  H6  1  0.27230919  0.31928529  0.80981944  1  0  0.0832  0  0.959018  0  0  0.091475  0  1.0242  0  0  0.093631  0  1.022412  0  0  0.117584  0.090017  0  1.024918  0
H  H7  1  0.22769232  0.81928311  0.30981960  1  0  0.0832  0  0.959036  0  0  0.091477  0  1.024211  0  0  0.093636  0  1.022417  0  0  0.117576  0.090019  0  1.024928  0
H  H8  1  0.54740722  0.77474535  0.30558836  1  0  0.123377  0  0.966203  0  0  0.129677  0  1.029413  0  0  0.133565  0  1.027537  0  0  0.107507  0.126698  0  1.031215  0
H  H9  1  0.95258819  0.27474226  0.80558833  1  0  0.123395  0  0.966184  0  0  0.129685  0  1.029413  0  0  0.133574  0  1.027538  0  0  0.107498  0.126705  0  1.031216  0
H  H10  1  0.45259471  0.22525542  0.69441159  1  0  0.123371  0  0.966218  0  0  0.129669  0  1.029434  0  0  0.133557  0  1.027559  0  0  0.107496  0.126689  0  1.031238  0
H  H11  1  0.04741048  0.72525425  0.19441208  1  0  0.123369  0  0.966268  0  0  0.129664  0  1.029484  0  0  0.133554  0  1.027608  0  0  0.107487  0.126685  0  1.031285  0
H  H12  1  0.40576962  0.99467994  0.27509264  1  0  0.104354  0  0.952965  0  0  0.113682  0  1.014001  0  0  0.117025  0  1.010928  0  0  0.108798  0.110903  0  1.016696  0
H  H13  1  0.09422995  0.49467673  0.77509315  1  0  0.104295  0  0.952879  0  0  0.113639  0  1.013927  0  0  0.116984  0  1.010852  0  0  0.108779  0.11087  0  1.016612  0
H  H14  1  0.59423230  0.00532083  0.72490798  1  0  0.104288  0  0.952935  0  0  0.113666  0  1.013925  0  0  0.117028  0  1.010827  0  0  0.10878  0.110874  0  1.016637  0
H  H15  1  0.90576872  0.50531977  0.22490793  1  0  0.104341  0  0.952864  0  0  0.113664  0  1.013923  0  0  0.117028  0  1.010821  0  0  0.108768  0.11087  0  1.016637  0
H  H16  1  0.44916757  0.10717641  0.12957262  1  0  0.099084  0  0.992388  0  0  0.105877  0  1.05762  0  0  0.107742  0  1.059629  0  0  0.102719  0.105008  0  1.055259  0
H  H17  1  0.05083673  0.60717506  0.62957286  1  0  0.099108  0  0.992359  0  0  0.105911  0  1.057563  0  0  0.107779  0  1.059568  0  0  0.102751  0.105044  0  1.0552  0
H  H18  1  0.55083327  0.89282222  0.87042789  1  0  0.099102  0  0.992342  0  0  0.105902  0  1.057571  0  0  0.107769  0  1.05958  0  0  0.102733  0.105034  0  1.055209  0
H  H19  1  0.94916520  0.39282463  0.37042905  1  0  0.099101  0  0.992323  0  0  0.105868  0  1.057582  0  0  0.107734  0  1.059592  0  0  0.102713  0.105  0  1.05522  0
H  H20  1  0.63792657  0.00063678  0.02322888  1  0  0.078685  0  0.959663  0  0  0.086499  0  1.025017  0  0  0.088782  0  1.023766  0  0  0.114048  0.08475  0  1.026027  0
H  H21  1  0.86207525  0.50063872  0.52322813  1  0  0.07871  0  0.959601  0  0  0.086518  0  1.024964  0  0  0.088802  0  1.023712  0  0  0.114053  0.084753  0  1.025992  0
H  H22  1  0.36207318  0.99936293  0.97677169  1  0  0.078711  0  0.959622  0  0  0.08652  0  1.024978  0  0  0.088804  0  1.023727  0  0  0.114054  0.084756  0  1.026005  0
H  H23  1  0.13792668  0.49936310  0.47677321  1  0  0.078754  0  0.959572  0  0  0.086542  0  1.024955  0  0  0.088825  0  1.023703  0  0  0.114047  0.084755  0  1.026005  0
H  H24  1  0.52308046  0.64493559  0.00492492  1  0  0.074009  0  0.945182  0  0  0.082831  0  1.007011  0  0  0.084745  0  1.006622  0  0  0.114232  0.081327  0  1.00748  0
H  H25  1  0.97692042  0.14493677  0.50492506  1  0  0.074017  0  0.945164  0  0  0.082842  0  1.007003  0  0  0.084756  0  1.006613  0  0  0.114235  0.081339  0  1.007472  0
H  H26  1  0.47691930  0.35506305  0.99507560  1  0  0.074022  0  0.945161  0  0  0.082842  0  1.007007  0  0  0.084754  0  1.006619  0  0  0.11424  0.081337  0  1.007477  0
H  H27  1  0.02307825  0.85506401  0.49507421  1  0  0.073983  0  0.945174  0  0  0.082852  0  1.006963  0  0  0.084764  0  1.006576  0  0  0.11426  0.081349  0  1.007432  0
H  H28  1  0.33226682  0.56441370  0.89253636  1  0  0.120329  0  0.976659  0  0  0.126558  0  1.039024  0  0  0.130605  0  1.037054  0  0  0.106382  0.123379  0  1.040683  0
H  H29  1  0.16773207  0.06441390  0.39253515  1  0  0.120344  0  0.976685  0  0  0.126575  0  1.039042  0  0  0.130624  0  1.037069  0  0  0.106381  0.123397  0  1.040701  0
H  H30  1  0.66773402  0.43558494  0.10746416  1  0  0.120332  0  0.976705  0  0  0.126553  0  1.039077  0  0  0.130602  0  1.037102  0  0  0.106367  0.123374  0  1.040735  0
H  H31  1  0.83226443  0.93558688  0.60746345  1  0  0.120331  0  0.976677  0  0  0.126548  0  1.039053  0  0  0.130594  0  1.037086  0  0  0.10637  0.123368  0  1.040713  0
H  H32  1  0.39781351  0.55168623  0.72680164  1  0  0.107201  0  0.947836  0  0  0.116621  0  1.008528  0  0  0.120082  0  1.005538  0  0  0.109876  0.114076  0  1.010632  0
H  H33  1  0.10218929  0.05168747  0.22680193  1  0  0.107284  0  0.947819  0  0  0.116735  0  1.008472  0  0  0.120187  0  1.00549  0  0  0.109907  0.114187  0  1.010579  0
H  H34  1  0.60218733  0.44831347  0.27319893  1  0  0.10728  0  0.947808  0  0  0.116714  0  1.00848  0  0  0.120173  0  1.00549  0  0  0.109896  0.114166  0  1.010588  0
H  H35  1  0.89781047  0.94831543  0.77319813  1  0  0.107222  0  0.94786  0  0  0.116664  0  1.008533  0  0  0.120121  0  1.005547  0  0  0.109872  0.114118  0  1.010638  0
H  H36  1  0.64942263  0.61709960  0.68363603  1  0  0.109703  0  0.940529  0  0  0.119996  0  0.997572  0  0  0.122562  0  0.99781  0  0  0.10921  0.118148  0  0.997612  0
H  H37  1  0.85057970  0.11710092  0.18363460  1  0  0.109693  0  0.940539  0  0  0.119985  0  0.997586  0  0  0.122551  0  0.997824  0  0  0.109207  0.118137  0  0.997626  0
H  H38  1  0.35057930  0.38289797  0.31636510  1  0  0.109702  0  0.940552  0  0  0.119988  0  0.997603  0  0  0.122559  0  0.997835  0  0  0.109219  0.118141  0  0.997641  0
H  H39  1  0.14942006  0.88289773  0.81636390  1  0  0.10968  0  0.94056  0  0  0.119995  0  0.997584  0  0  0.12254  0  0.997846  0  0  0.109197  0.118146  0  0.997626  0
H  H40  1  0.82857762  0.68935912  0.80558631  1  0  0.08309  0  0.954235  0  0  0.09045  0  1.021142  0  0  0.092398  0  1.020328  0  0  0.116097  0.089061  0  1.02149  0
H  H41  1  0.67142534  0.18936039  0.30558582  1  0  0.083105  0  0.954235  0  0  0.090467  0  1.021139  0  0  0.092415  0  1.020324  0  0  0.116113  0.089077  0  1.021488  0
H  H42  1  0.17142322  0.31063951  0.19441488  1  0  0.083047  0  0.9543  0  0  0.09044  0  1.021171  0  0  0.092388  0  1.020356  0  0  0.116105  0.089051  0  1.021519  0
H  H43  1  0.32857441  0.81063933  0.69441273  1  0  0.083046  0  0.954314  0  0  0.090448  0  1.021173  0  0  0.092397  0  1.020357  0  0  0.116126  0.089058  0  1.021522  0
C  C44  1  0.66350534  0.77525711  0.18022129  1  0  0.122898  0  3.694515  0  0  0.092851  0  3.942473  0  0  0.099372  0  3.96172  0  0  0.046298  0.088836  0  3.928459  0
C  C45  1  0.83649165  0.27525613  0.68021953  1  0  0.122989  0  3.694413  0  0  0.092915  0  3.942382  0  0  0.09944  0  3.961633  0  0  0.046331  0.088899  0  3.928368  0
C  C46  1  0.33649441  0.22474153  0.81977855  1  0  0.122973  0  3.694535  0  0  0.092934  0  3.942478  0  0  0.099456  0  3.961729  0  0  0.046342  0.08892  0  3.928461  0
C  C47  1  0.16350702  0.72474252  0.31978031  1  0  0.122919  0  3.694507  0  0  0.09287  0  3.942458  0  0  0.099394  0  3.961705  0  0  0.04633  0.088856  0  3.928445  0
C  C48  1  0.56299437  0.82851914  0.24388455  1  0  -0.123017  0  3.71044  0  0  -0.132145  0  3.955232  0  0  -0.139924  0  3.977574  0  0  -0.082693  -0.127158  0  3.939838  0
C  C49  1  0.93700240  0.32851817  0.74388599  1  0  -0.123049  0  3.710401  0  0  -0.13217  0  3.955188  0  0  -0.139956  0  3.977539  0  0  -0.082681  -0.127182  0  3.939797  0
C  C50  1  0.43700539  0.17148057  0.75611400  1  0  -0.123106  0  3.710349  0  0  -0.132259  0  3.955149  0  0  -0.140045  0  3.977505  0  0  -0.0827  -0.127271  0  3.939752  0
C  C51  1  0.06299627  0.67148153  0.25611591  1  0  -0.123047  0  3.710508  0  0  -0.132193  0  3.95529  0  0  -0.139977  0  3.977641  0  0  -0.082679  -0.127203  0  3.93989  0
C  C52  1  0.48398350  0.94965118  0.22611202  1  0  0.001947  0  3.702326  0  0  -0.018331  0  3.949725  0  0  -0.014877  0  3.96783  0  0  -0.063348  -0.019724  0  3.937077  0
C  C53  1  0.01601299  0.44965012  0.72610671  1  0  0.002063  0  3.702518  0  0  -0.01822  0  3.949911  0  0  -0.014768  0  3.968023  0  0  -0.063303  -0.01962  0  3.937255  0
C  C54  1  0.51601408  0.05034637  0.77389314  1  0  0.002099  0  3.702418  0  0  -0.018187  0  3.94979  0  0  -0.014747  0  3.967896  0  0  -0.063288  -0.01957  0  3.937142  0
C  C55  1  0.98398785  0.55034640  0.27389302  1  0  0.002004  0  3.702549  0  0  -0.018237  0  3.9499  0  0  -0.014798  0  3.968006  0  0  -0.063292  -0.019618  0  3.93725  0
C  C56  1  0.50944518  0.01339740  0.14601390  1  0  -0.123796  0  3.74845  0  0  -0.133623  0  3.997366  0  0  -0.140557  0  4.020168  0  0  -0.086095  -0.129021  0  3.980866  0
C  C57  1  0.99055941  0.51339405  0.64601538  1  0  -0.123871  0  3.748756  0  0  -0.133712  0  3.997692  0  0  -0.140646  0  4.020495  0  0  -0.08615  -0.12911  0  3.981188  0
C  C58  1  0.49055566  0.98660445  0.85398476  1  0  -0.123842  0  3.748681  0  0  -0.133703  0  3.99764  0  0  -0.140639  0  4.020449  0  0  -0.086139  -0.1291  0  3.981131  0
C  C59  1  0.00944360  0.48660565  0.35398586  1  0  -0.123842  0  3.748731  0  0  -0.133673  0  3.997664  0  0  -0.140609  0  4.020475  0  0  -0.086139  -0.129067  0  3.981145  0
C  C60  1  0.61263846  0.95415635  0.08632718  1  0  0.102493  0  3.721059  0  0  0.072818  0  3.971006  0  0  0.078411  0  3.990174  0  0  0.039278  0.068551  0  3.958602  0
C  C61  1  0.88736442  0.45415751  0.58632612  1  0  0.102493  0  3.721001  0  0  0.072821  0  3.970934  0  0  0.078415  0  3.9901  0  0  0.039245  0.068562  0  3.958547  0
C  C62  1  0.38736346  0.04584335  0.91367338  1  0  0.102432  0  3.720995  0  0  0.072774  0  3.970929  0  0  0.078368  0  3.990093  0  0  0.039237  0.068511  0  3.958545  0
C  C63  1  0.11263859  0.54584325  0.41367517  1  0  0.102375  0  3.720966  0  0  0.072731  0  3.970883  0  0  0.078325  0  3.990049  0  0  0.03926  0.068482  0  3.95852  0
C  C64  1  0.54655457  0.63577268  0.93293320  1  0  0.113389  0  3.722029  0  0  0.084193  0  3.973418  0  0  0.090568  0  3.991997  0  0  0.042534  0.079803  0  3.960494  0
C  C65  1  0.95344460  0.13577404  0.43293229  1  0  0.113393  0  3.722077  0  0  0.084161  0  3.973479  0  0  0.090535  0  3.992059  0  0  0.0425  0.079768  0  3.960554  0
C  C66  1  0.45344518  0.36422488  0.06706860  1  0  0.113409  0  3.722146  0  0  0.084172  0  3.973537  0  0  0.090546  0  3.992117  0  0  0.042501  0.079779  0  3.960611  0
C  C67  1  0.04655081  0.86422780  0.56706771  1  0  0.113347  0  3.722013  0  0  0.084088  0  3.973408  0  0  0.090464  0  3.991987  0  0  0.04244  0.079698  0  3.960483  0
C  C68  1  0.44062872  0.59234411  0.87012175  1  0  -0.138313  0  3.73625  0  0  -0.14823  0  3.985855  0  0  -0.156197  0  4.007963  0  0  -0.087473  -0.141645  0  3.968103  0
C  C69  1  0.05937136  0.09234747  0.37012153  1  0  -0.138361  0  3.736166  0  0  -0.14827  0  3.985777  0  0  -0.156236  0  4.007881  0  0  -0.087484  -0.141685  0  3.968025  0
C  C70  1  0.55937321  0.40765347  0.12987804  1  0  -0.138338  0  3.736283  0  0  -0.148228  0  3.985871  0  0  -0.156194  0  4.007977  0  0  -0.087446  -0.141642  0  3.968118  0
C  C71  1  0.94062622  0.90765544  0.62987718  1  0  -0.138254  0  3.736276  0  0  -0.148146  0  3.985872  0  0  -0.156115  0  4.007983  0  0  -0.087412  -0.141561  0  3.968118  0
C  C72  1  0.47685254  0.58449047  0.77885506  1  0  -0.001528  0  3.698894  0  0  -0.020578  0  3.947466  0  0  -0.01749  0  3.966741  0  0  -0.062373  -0.022349  0  3.932929  0
C  C73  1  0.02314790  0.08449064  0.27885340  1  0  -0.001583  0  3.698792  0  0  -0.020649  0  3.947336  0  0  -0.017553  0  3.966617  0  0  -0.062356  -0.02242  0  3.9328  0
C  C74  1  0.52314721  0.41550816  0.22114612  1  0  -0.001621  0  3.69892  0  0  -0.020689  0  3.947476  0  0  -0.017601  0  3.966756  0  0  -0.062386  -0.022459  0  3.932938  0
C  C75  1  0.97685077  0.91551121  0.72114526  1  0  -0.001594  0  3.698955  0  0  -0.020678  0  3.947525  0  0  -0.017584  0  3.966799  0  0  -0.062364  -0.022447  0  3.932987  0
C  C76  1  0.61741987  0.62030575  0.75412202  1  0  -0.107388  0  3.709431  0  0  -0.11891  0  3.958063  0  0  -0.125971  0  3.980647  0  0  -0.079167  -0.114915  0  3.943862  0
C  C77  1  0.88258217  0.12030388  0.25412173  1  0  -0.107415  0  3.709397  0  0  -0.118948  0  3.958042  0  0  -0.126009  0  3.980624  0  0  -0.079213  -0.114953  0  3.943841  0
C  C78  1  0.38258314  0.37969395  0.24587855  1  0  -0.107373  0  3.709376  0  0  -0.118887  0  3.958021  0  0  -0.125952  0  3.980603  0  0  -0.079186  -0.114892  0  3.943819  0
C  C79  1  0.11741650  0.87969476  0.74587744  1  0  -0.107404  0  3.709452  0  0  -0.118947  0  3.958109  0  0  -0.12599  0  3.980698  0  0  -0.079217  -0.11495  0  3.943904  0
C  C80  1  0.71718553  0.66154781  0.82117701  1  0  0.122928  0  3.691555  0  0  0.093468  0  3.938866  0  0  0.09975  0  3.957901  0  0  0.047655  0.089097  0  3.926329  0
C  C81  1  0.78281519  0.16154912  0.32117569  1  0  0.122902  0  3.691465  0  0  0.09344  0  3.938759  0  0  0.099722  0  3.957795  0  0  0.047639  0.089067  0  3.926222  0
C  C82  1  0.28281531  0.33845081  0.17882551  1  0  0.122951  0  3.691381  0  0  0.093445  0  3.93869  0  0  0.099727  0  3.957728  0  0  0.04761  0.089072  0  3.926153  0
C  C83  1  0.21718240  0.83845166  0.67882359  1  0  0.122967  0  3.691542  0  0  0.093458  0  3.93886  0  0  0.099742  0  3.957889  0  0  0.047636  0.089086  0  3.926324  0
C  C84  1  0.04306749  0.52282591  0.95837469  1  0  0.530319  0  3.910203  0  0  0.488754  0  4.197696  0  0  0.518284  0  4.190447  0  0  0.203671  0.468859  0  4.201911  0
C  C85  1  0.45693437  0.02283367  0.45837140  1  0  0.530423  0  3.910174  0  0  0.488853  0  4.197678  0  0  0.518388  0  4.190423  0  0  0.203736  0.468966  0  4.201891  0
C  C86  1  0.95693552  0.47716847  0.04162696  1  0  0.530453  0  3.910101  0  0  0.488907  0  4.197573  0  0  0.518442  0  4.190323  0  0  0.203769  0.46903  0  4.201763  0
C  C87  1  0.54306322  0.97717778  0.54162438  1  0  0.530346  0  3.910119  0  0  0.4888  0  4.197604  0  0  0.518331  0  4.190355  0  0  0.203655  0.468903  0  4.20183  0
C  C88  1  0.95466580  0.02036399  0.95834157  1  0  0.522655  0  3.919784  0  0  0.481827  0  4.210526  0  0  0.511179  0  4.20343  0  0  0.197728  0.461921  0  4.21427  0
C  C89  1  0.54534080  0.52035856  0.45834252  1  0  0.522523  0  3.919888  0  0  0.48166  0  4.210667  0  0  0.511011  0  4.203575  0  0  0.197675  0.461755  0  4.214412  0
C  C90  1  0.04533829  0.97964104  0.04165792  1  0  0.522561  0  3.919865  0  0  0.481719  0  4.210627  0  0  0.511073  0  4.203529  0  0  0.19767  0.461816  0  4.214369  0
C  C91  1  0.45466655  0.47963688  0.54165783  1  0  0.522678  0  3.919768  0  0  0.481877  0  4.210487  0  0  0.511229  0  4.203392  0  0  0.197782  0.461973  0  4.21423  0
N  N92  1  0.68236294  0.66978902  0.90927422  1  0  -0.325387  0  3.289749  0  0  -0.247227  0  3.553993  0  0  -0.265184  0  3.570648  0  0  -0.325629  -0.235022  0  3.542508  0
N  N93  1  0.81763743  0.16979139  0.40927424  1  0  -0.325336  0  3.289754  0  0  -0.247141  0  3.553955  0  0  -0.265102  0  3.570615  0  0  -0.325573  -0.234932  0  3.542466  0
N  N94  1  0.31763790  0.33020856  0.09072624  1  0  -0.325374  0  3.28973  0  0  -0.247156  0  3.553925  0  0  -0.265115  0  3.570584  0  0  -0.325566  -0.234946  0  3.542437  0
N  N95  1  0.18236015  0.83020938  0.59072504  1  0  -0.325297  0  3.289605  0  0  -0.247105  0  3.553832  0  0  -0.265063  0  3.570488  0  0  -0.325563  -0.2349  0  3.542346  0
N  N96  1  0.68775041  0.83606782  0.10255737  1  0  -0.328333  0  3.302442  0  0  -0.249903  0  3.569507  0  0  -0.26821  0  3.587397  0  0  -0.325864  -0.237915  0  3.557702  0
N  N97  1  0.81225126  0.33606789  0.60255637  1  0  -0.328379  0  3.302422  0  0  -0.249917  0  3.569449  0  0  -0.268227  0  3.587341  0  0  -0.325842  -0.237928  0  3.557636  0
N  N98  1  0.31224935  0.16393295  0.89744257  1  0  -0.328323  0  3.302478  0  0  -0.249891  0  3.569517  0  0  -0.2682  0  3.587408  0  0  -0.325863  -0.2379  0  3.557703  0
N  N99  1  0.18775066  0.66393289  0.39744357  1  0  -0.328231  0  3.302434  0  0  -0.249785  0  3.569453  0  0  -0.268094  0  3.587344  0  0  -0.325838  -0.237793  0  3.557629  0
O  O100  1  0.85416933  0.93535749  0.93122778  1  0  -0.587557  0  2.073951  0  0  -0.532815  0  2.329876  0  0  -0.556897  0  2.319135  0  0  -0.312718  -0.51547  0  2.336299  0
O  O101  1  0.64583109  0.43536194  0.43122681  1  0  -0.587431  0  2.074355  0  0  -0.532708  0  2.330336  0  0  -0.556789  0  2.3196  0  0  -0.312647  -0.51536  0  2.33675  0
O  O102  1  0.14583043  0.06464009  0.06877201  1  0  -0.587438  0  2.074239  0  0  -0.532732  0  2.330218  0  0  -0.556813  0  2.319476  0  0  -0.312673  -0.515386  0  2.336635  0
O  O103  1  0.35416975  0.56464308  0.56877401  1  0  -0.587577  0  2.073954  0  0  -0.532851  0  2.329868  0  0  -0.556932  0  2.319128  0  0  -0.312746  -0.515501  0  2.336283  0
O  O104  1  0.98775306  0.13410144  0.92327829  1  0  -0.570736  0  2.069074  0  0  -0.516832  0  2.314528  0  0  -0.540783  0  2.304839  0  0  -0.307201  -0.499949  0  2.320627  0
O  O105  1  0.51224615  0.63410559  0.42327708  1  0  -0.570746  0  2.068762  0  0  -0.516827  0  2.314232  0  0  -0.540779  0  2.304548  0  0  -0.307231  -0.499944  0  2.320329  0
O  O106  1  0.01224778  0.86589720  0.07672223  1  0  -0.570727  0  2.068806  0  0  -0.516814  0  2.314272  0  0  -0.540769  0  2.304586  0  0  -0.307187  -0.499932  0  2.320369  0
O  O107  1  0.48775577  0.36590158  0.57672050  1  0  -0.570715  0  2.069097  0  0  -0.516831  0  2.314557  0  0  -0.540784  0  2.304868  0  0  -0.307234  -0.499951  0  2.320657  0
O  O108  1  0.01077756  0.63981809  0.92738263  1  0  -0.571074  0  2.051321  0  0  -0.51964  0  2.296894  0  0  -0.543333  0  2.287968  0  0  -0.308234  -0.502868  0  2.302672  0
O  O109  1  0.48922123  0.13981626  0.42738151  1  0  -0.571184  0  2.051582  0  0  -0.519747  0  2.297168  0  0  -0.543433  0  2.288237  0  0  -0.30836  -0.502976  0  2.302946  0
O  O110  1  0.98922219  0.36018268  0.07261799  1  0  -0.571142  0  2.051463  0  0  -0.519715  0  2.297028  0  0  -0.543406  0  2.288101  0  0  -0.308313  -0.502947  0  2.302797  0
O  O111  1  0.51077419  0.86018240  0.57261431  1  0  -0.571049  0  2.051318  0  0  -0.519624  0  2.296888  0  0  -0.54332  0  2.287964  0  0  -0.308187  -0.502848  0  2.302666  0
O  O112  1  0.14084535  0.43771017  0.92689350  1  0  -0.591681  0  2.104425  0  0  -0.531534  0  2.360766  0  0  -0.556469  0  2.349911  0  0  -0.306707  -0.514023  0  2.367932  0
O  O113  1  0.35915034  0.93771020  0.42688888  1  0  -0.591638  0  2.104179  0  0  -0.531503  0  2.360519  0  0  -0.556464  0  2.349685  0  0  -0.306618  -0.513992  0  2.367683  0
O  O114  1  0.85915332  0.56229058  0.07310913  1  0  -0.591714  0  2.104232  0  0  -0.531567  0  2.360536  0  0  -0.556527  0  2.349705  0  0  -0.30671  -0.514057  0  2.36769  0
O  O115  1  0.64084182  0.06229167  0.57310643  1  0  -0.591705  0  2.104351  0  0  -0.53158  0  2.360712  0  0  -0.556511  0  2.349843  0  0  -0.30674  -0.514065  0  2.367876  0
