# generated using pymatgen
data_Cu6H6C37O44
_symmetry_space_group_name_H-M   'P 1'
_cell_length_a   6.34801923
_cell_length_b   15.21697330
_cell_length_c   15.21278214
_cell_angle_alpha   118.17658770
_cell_angle_beta   97.97054883
_cell_angle_gamma   98.00356721
_symmetry_Int_Tables_number   1
_chemical_formula_structural   Cu6H6C37O44
_chemical_formula_sum   'Cu6 H6 C37 O44'
_cell_volume   1247.09169738
_cell_formula_units_Z   1
loop_
 _symmetry_equiv_pos_site_id
 _symmetry_equiv_pos_as_xyz
  1  'x, y, z'
loop_
 _atom_site_type_symbol
 _atom_site_label
 _atom_site_symmetry_multiplicity
 _atom_site_fract_x
 _atom_site_fract_y
 _atom_site_fract_z
 _atom_site_occupancy
 _atom_site_pbe_bader_charge
 _atom_site_pbe_bader_spin_density
 _atom_site_pbe_cm5_charge
 _atom_site_pbe_ddec_charge
 _atom_site_pbe_ddec_spin_density
 _atom_site_pbe_ddec_sum_bond_order
 _atom_site_pbe_magmom
Cu  Cu0  1  0.56733176  0.42396597  0.73711155  1  1.119546  0.549252  0.694318  0.91439  0.704508  2.115386  0.548
Cu  Cu1  1  0.83028328  0.26291515  0.68633223  1  1.121806  0.553997  0.696527  0.917967  0.712123  2.118191  0.552
Cu  Cu2  1  0.14327457  0.31323955  0.57570029  1  1.115663  0.549402  0.6945  0.915195  0.704797  2.116518  0.548
Cu  Cu3  1  0.43260197  0.57604381  0.26290798  1  1.119431  0.549222  0.694158  0.91412  0.704489  2.115782  0.548
Cu  Cu4  1  0.16968045  0.73710690  0.31369350  1  1.121876  0.553963  0.696435  0.917708  0.7121  2.118019  0.552
Cu  Cu5  1  0.85667425  0.68677176  0.42431885  1  1.115873  0.549398  0.694469  0.915159  0.704805  2.116551  0.548
H  H6  1  0.17376917  0.54279561  0.56744026  1  0.124912  0.000119  0.109786  0.136167  -0.000169  1.007437  0.0
H  H7  1  0.60639511  0.43266594  0.97528248  1  0.095737  0.000211  0.109779  0.135621  -0.000131  1.00876  0.0
H  H8  1  0.63104874  0.02434430  0.45694201  1  0.099952  0.000184  0.109996  0.135952  -0.000156  1.008263  0.0
H  H9  1  0.82615398  0.45720574  0.43257862  1  0.125099  0.000118  0.109826  0.136223  -0.000169  1.007364  0.0
H  H10  1  0.39351464  0.56734996  0.02473000  1  0.095977  0.000211  0.109687  0.135461  -0.000131  1.008748  0.0
H  H11  1  0.36891182  0.97567776  0.54309143  1  0.10008  0.000184  0.110015  0.135788  -0.000155  1.008229  0.0
C  C12  1  0.79130125  0.40698231  0.57565605  1  1.539889  -0.000874  0.227956  0.640647  -0.00138  4.065281  -0.004
C  C13  1  0.21557267  0.42428344  0.83105350  1  1.552478  -0.001071  0.225951  0.637606  -0.001493  4.066273  -0.004
C  C14  1  0.38429654  0.16898323  0.59279428  1  1.536724  -0.000939  0.225679  0.637057  -0.001459  4.069461  -0.004
C  C15  1  0.20863589  0.59301520  0.42436314  1  1.540198  -0.00087  0.228221  0.640997  -0.00138  4.064922  -0.004
C  C16  1  0.78436177  0.57573093  0.16896232  1  1.550348  -0.001077  0.22595  0.637351  -0.001493  4.066736  -0.004
C  C17  1  0.61566890  0.83103268  0.40722865  1  1.537962  -0.000942  0.225731  0.637275  -0.001459  4.069386  -0.004
C  C18  1  0.63515548  0.45181776  0.53665670  1  -0.043141  0.023272  -0.028026  -0.13421  0.015297  3.947032  0.014
C  C19  1  0.09856142  0.46323414  0.91504599  1  -0.04097  0.023001  -0.02729  -0.132821  0.015037  3.947013  0.014
C  C20  1  0.18336246  0.08500753  0.54814459  1  -0.016087  0.023097  -0.02727  -0.132789  0.015184  3.948855  0.014
C  C21  1  0.36477212  0.54817975  0.46336194  1  -0.044492  0.023276  -0.027974  -0.134144  0.015294  3.946766  0.014
C  C22  1  0.90135101  0.53678713  0.08496852  1  -0.035878  0.022986  -0.027002  -0.132475  0.015027  3.94752  0.014
C  C23  1  0.81660610  0.91501145  0.45188457  1  -0.017159  0.0231  -0.027292  -0.133043  0.015185  3.949304  0.014
C  C24  1  0.44543714  0.47522123  0.57510923  1  0.558259  0.025652  0.067793  0.283565  0.018032  4.093277  0.011
C  C25  1  0.87042081  0.42490044  0.89999019  1  0.586415  0.024819  0.068533  0.284072  0.017604  4.093334  0.011
C  C26  1  0.97027484  0.09983081  0.52455937  1  0.578242  0.025032  0.069166  0.284178  0.017721  4.092795  0.011
C  C27  1  0.55449239  0.52478012  0.42491725  1  0.55966  0.025643  0.067836  0.283673  0.01803  4.092678  0.011
C  C28  1  0.12949759  0.57512006  0.10001904  1  0.586273  0.024829  0.068067  0.283509  0.017608  4.094051  0.011
C  C29  1  0.02968337  0.90018971  0.47547386  1  0.579063  0.025029  0.069133  0.284056  0.017725  4.093689  0.011
C  C30  1  0.31793116  0.52467504  0.53802536  1  0.024407  0.037122  -0.096473  -0.185004  0.025474  3.921569  0.023
C  C31  1  0.77995844  0.46211224  0.98661784  1  0.016591  0.036661  -0.097076  -0.18524  0.025061  3.924236  0.022
C  C32  1  0.79333298  0.01315937  0.47512403  1  0.000212  0.036379  -0.097685  -0.185292  0.024941  3.923477  0.022
C  C33  1  0.68198772  0.47532094  0.46199205  1  0.023947  0.037115  -0.096563  -0.185098  0.025468  3.92189  0.023
C  C34  1  0.21995432  0.53791286  0.01339587  1  0.023761  0.036637  -0.097022  -0.185039  0.025055  3.924389  0.022
C  C35  1  0.20661963  0.98686268  0.52491157  1  -0.000981  0.03637  -0.097667  -0.185133  0.02493  3.923736  0.022
C  C36  1  0.79652177  0.66700535  0.95183113  1  2.149162  -0.000129  0.36211  0.715821  -6.6e-05  4.127875  0.0
C  C37  1  0.84505296  0.04827147  0.71536822  1  2.141306  -0.000125  0.362308  0.718231  -6.2e-05  4.132057  0.0
C  C38  1  0.12957999  0.28439803  0.33240435  1  2.124487  -0.000132  0.361094  0.714117  -6.7e-05  4.135204  0.0
C  C39  1  0.20332311  0.33299216  0.04818010  1  2.14984  -0.000129  0.361546  0.715415  -6.6e-05  4.128625  0.0
C  C40  1  0.15483004  0.95175135  0.28466044  1  2.141068  -0.000125  0.362643  0.718494  -6.2e-05  4.131433  0.0
C  C41  1  0.87035680  0.71561787  0.66760575  1  2.123627  -0.000132  0.360966  0.714002  -6.7e-05  4.13493  0.0
C  C42  1  0.58665785  0.28919437  0.17863218  1  2.117702  4.1e-05  0.353381  0.701226  7.3e-05  4.139041  0.0
C  C43  1  0.40773359  0.81977475  0.11135197  1  2.120261  3.5e-05  0.353242  0.70125  7.1e-05  4.13909  0.0
C  C44  1  0.29584764  0.88860024  0.70829637  1  2.122286  2.8e-05  0.352933  0.701254  6.8e-05  4.141021  0.0
C  C45  1  0.41327493  0.71082307  0.82138170  1  2.11692  4.1e-05  0.35358  0.701418  7.4e-05  4.139255  0.0
C  C46  1  0.59206896  0.18020815  0.88861378  1  2.120068  3.6e-05  0.353473  0.701531  7.1e-05  4.138774  0.0
C  C47  1  0.70407102  0.11137956  0.29163518  1  2.121903  2.9e-05  0.353334  0.701581  6.8e-05  4.139887  0.0
C  C48  1  0.50122344  0.99987139  0.99984449  1  2.068751  0.0  0.340953  0.687066  -9e-06  4.188264  0.0
O  O49  1  0.79054529  0.40724662  0.66000117  1  -1.125148  0.076369  -0.332866  -0.594788  0.048683  2.511769  0.07
O  O50  1  0.13047743  0.33994926  0.74674392  1  -1.131529  0.076158  -0.332267  -0.59401  0.048605  2.512922  0.07
O  O51  1  0.38319806  0.25292714  0.59231452  1  -1.124324  0.076439  -0.331367  -0.5924  0.048771  2.512837  0.07
O  O52  1  0.20942773  0.59276854  0.34002775  1  -1.125563  0.07636  -0.332908  -0.594869  0.048677  2.512075  0.07
O  O53  1  0.86946980  0.66006205  0.25328237  1  -1.131356  0.076159  -0.332194  -0.593659  0.048601  2.512823  0.07
O  O54  1  0.61676167  0.74709645  0.40771565  1  -1.125275  0.076424  -0.331295  -0.592337  0.048759  2.512893  0.07
O  O55  1  0.93417866  0.37188399  0.52570127  1  -1.104645  0.090797  -0.309087  -0.527169  0.05894  2.390968  0.081
O  O56  1  0.40836335  0.47422749  0.84595809  1  -1.108271  0.091141  -0.308306  -0.525568  0.059132  2.389248  0.081
O  O57  1  0.56231678  0.15430404  0.62794695  1  -1.099424  0.091999  -0.308167  -0.525493  0.059688  2.389568  0.082
O  O58  1  0.06575245  0.62811736  0.47432004  1  -1.105233  0.0908  -0.309328  -0.527449  0.058942  2.390612  0.081
O  O59  1  0.59156117  0.52578612  0.15406271  1  -1.1063  0.091141  -0.308358  -0.525561  0.059128  2.38891  0.081
O  O60  1  0.43765605  0.84572031  0.37207776  1  -1.099509  0.092001  -0.30817  -0.525519  0.05969  2.389172  0.082
O  O61  1  0.37453851  0.44935284  0.64096581  1  -1.070997  0.197118  -0.352685  -0.551569  0.128513  2.511392  0.179
O  O62  1  0.73359170  0.35889429  0.80810689  1  -1.079317  0.19772  -0.352817  -0.552341  0.129173  2.508164  0.179
O  O63  1  0.92507036  0.19160652  0.55030782  1  -1.074549  0.195383  -0.354644  -0.554342  0.12757  2.508555  0.177
O  O64  1  0.62539513  0.55066308  0.35906580  1  -1.071953  0.19715  -0.352778  -0.551727  0.128529  2.511029  0.179
O  O65  1  0.26633835  0.64112085  0.19190771  1  -1.079656  0.197729  -0.352681  -0.552094  0.12917  2.50813  0.179
O  O66  1  0.07489662  0.80841246  0.44972256  1  -1.074475  0.195381  -0.354648  -0.554226  0.127571  2.508334  0.177
O  O67  1  0.75737172  0.71322494  0.03251750  1  -1.081098  0.000136  -0.170997  -0.345628  3.3e-05  2.220197  0.0
O  O68  1  0.72560506  0.96751946  0.68079657  1  -1.079275  0.000139  -0.171484  -0.347219  3.5e-05  2.222411  0.0
O  O69  1  0.04504843  0.31902753  0.28629233  1  -1.069897  0.000144  -0.17008  -0.344249  3.7e-05  2.22309  0.0
O  O70  1  0.24238847  0.28674954  0.96746682  1  -1.081182  0.000136  -0.170791  -0.345554  3.3e-05  2.219701  0.0
O  O71  1  0.27429578  0.03250720  0.31924348  1  -1.079802  0.00014  -0.171605  -0.3473  3.5e-05  2.221975  0.0
O  O72  1  0.95484960  0.68097765  0.71372230  1  -1.069149  0.000144  -0.170123  -0.344305  3.7e-05  2.222563  0.0
O  O73  1  0.83508204  0.62156826  0.87082565  1  -1.080883  2.8e-05  -0.16888  -0.362626  -0.00033  2.273055  0.0
O  O74  1  0.96409230  0.12936956  0.75103398  1  -1.07436  -5e-06  -0.168812  -0.363673  -0.000344  2.275062  0.0
O  O75  1  0.21273414  0.24866557  0.37773643  1  -1.066721  2.6e-05  -0.168652  -0.362159  -0.000326  2.278223  0.0
O  O76  1  0.16483737  0.37844152  0.12919173  1  -1.081441  2.8e-05  -0.168502  -0.362187  -0.00033  2.274143  0.0
O  O77  1  0.03580144  0.87065248  0.24898640  1  -1.07363  -5e-06  -0.169021  -0.363874  -0.000345  2.274875  0.0
O  O78  1  0.78725414  0.75136107  0.62227710  1  -1.066585  2.5e-05  -0.168471  -0.361886  -0.000326  2.278348  0.0
O  O79  1  0.48342420  0.22295161  0.18549245  1  -1.07757  0.000168  -0.188804  -0.372663  7.8e-05  2.205661  0.0
O  O80  1  0.29542809  0.80990908  0.03718720  1  -1.075101  0.000177  -0.18858  -0.372623  8.4e-05  2.208764  0.0
O  O81  1  0.25539324  0.96299893  0.77126890  1  -1.076099  0.000169  -0.188481  -0.372088  7.8e-05  2.210122  0.0
O  O82  1  0.51653595  0.77709501  0.81458476  1  -1.076894  0.000168  -0.188662  -0.372601  7.8e-05  2.206747  0.0
O  O83  1  0.70434344  0.18998639  0.96272697  1  -1.07552  0.000177  -0.18865  -0.372721  8.4e-05  2.208781  0.0
O  O84  1  0.74443530  0.03702677  0.22854501  1  -1.076609  0.000168  -0.188935  -0.372426  7.8e-05  2.209332  0.0
O  O85  1  0.68632528  0.35491044  0.17076027  1  -1.046128  0.000297  -0.162071  -0.316601  0.000205  2.260049  0.0
O  O86  1  0.51755149  0.83067416  0.18597139  1  -1.050815  0.000307  -0.162363  -0.316863  0.000212  2.26155  0.0
O  O87  1  0.33346228  0.81371840  0.64593322  1  -1.052097  0.000303  -0.162759  -0.317936  0.000204  2.261758  0.0
O  O88  1  0.31357210  0.64506172  0.82919470  1  -1.045951  0.000297  -0.162303  -0.316796  0.000205  2.25968  0.0
O  O89  1  0.48223965  0.16938772  0.81402308  1  -1.050201  0.000307  -0.162475  -0.317088  0.000212  2.261374  0.0
O  O90  1  0.66655638  0.18621935  0.35411769  1  -1.051215  0.000303  -0.162653  -0.317891  0.000204  2.261371  0.0
O  O91  1  0.31324095  0.99544648  0.99543474  1  -1.03107  2e-06  -0.186668  -0.350279  -8e-06  2.168529  0.0
O  O92  1  0.68917438  0.00429086  0.00424970  1  -1.04224  2e-06  -0.188347  -0.350497  -8e-06  2.167171  0.0
