# generated using pymatgen
data_CuH3C4SN2
_symmetry_space_group_name_H-M   'P 1'
_cell_length_a   7.72876209
_cell_length_b   11.77989865
_cell_length_c   17.31017626
_cell_angle_alpha   89.99994302
_cell_angle_beta   90.00018987
_cell_angle_gamma   90.00016633
_symmetry_Int_Tables_number   1
_chemical_formula_structural   CuH3C4SN2
_chemical_formula_sum   'Cu12 H36 C48 S12 N24'
_cell_volume   1575.98827746
_cell_formula_units_Z   12
loop_
 _symmetry_equiv_pos_site_id
 _symmetry_equiv_pos_as_xyz
  1  'x, y, z'
loop_
 _atom_site_type_symbol
 _atom_site_label
 _atom_site_symmetry_multiplicity
 _atom_site_fract_x
 _atom_site_fract_y
 _atom_site_fract_z
 _atom_site_occupancy
 _atom_site_hle17_bader_spin_density
 _atom_site_hle17_ddec_charge
 _atom_site_hle17_ddec_spin_density
 _atom_site_hle17_ddec_sum_bond_order
 _atom_site_hle17_magmom
 _atom_site_hse06_10hf_bader_spin_density
 _atom_site_hse06_10hf_ddec_charge
 _atom_site_hse06_10hf_ddec_spin_density
 _atom_site_hse06_10hf_ddec_sum_bond_order
 _atom_site_hse06_10hf_magmom
 _atom_site_hse06_bader_spin_density
 _atom_site_hse06_ddec_charge
 _atom_site_hse06_ddec_spin_density
 _atom_site_hse06_ddec_sum_bond_order
 _atom_site_hse06_magmom
 _atom_site_pbe_bader_spin_density
 _atom_site_pbe_cm5_charge
 _atom_site_pbe_ddec_charge
 _atom_site_pbe_ddec_spin_density
 _atom_site_pbe_ddec_sum_bond_order
 _atom_site_pbe_magmom
Cu  Cu0  1  0.94474977  0.11609430  0.14460519  1  0  0.338702  0  2.200808  0  0  0.261813  0  2.695019  0  0  0.262994  0  2.647007  0  0  0.389185  0.263536  0  2.725655  0
Cu  Cu1  1  0.05524629  0.38390612  0.64460628  1  0  0.338697  0  2.200856  0  0  0.261818  0  2.69508  0  0  0.262974  0  2.647067  0  0  0.38919  0.263532  0  2.725712  0
Cu  Cu2  1  0.55525006  0.61609179  0.85539299  1  0  0.33869  0  2.200828  0  0  0.261801  0  2.69505  0  0  0.262978  0  2.647041  0  0  0.389152  0.263523  0  2.725666  0
Cu  Cu3  1  0.44475503  0.88390759  0.35539444  1  0  0.338737  0  2.200831  0  0  0.261846  0  2.695054  0  0  0.263008  0  2.647046  0  0  0.389197  0.263565  0  2.725682  0
Cu  Cu4  1  0.17775733  0.94129585  0.26062338  1  0  0.296766  0  2.232425  0  0  0.218357  0  2.727383  0  0  0.226297  0  2.669255  0  0  0.376984  0.214387  0  2.766213  0
Cu  Cu5  1  0.82224835  0.55870112  0.76062525  1  0  0.29672  0  2.232364  0  0  0.218357  0  2.727302  0  0  0.226279  0  2.669178  0  0  0.376972  0.214371  0  2.766138  0
Cu  Cu6  1  0.32224684  0.44129559  0.73937557  1  0  0.296691  0  2.232452  0  0  0.218362  0  2.727369  0  0  0.226301  0  2.669247  0  0  0.376975  0.214342  0  2.766263  0
Cu  Cu7  1  0.67775122  0.05870385  0.23937470  1  0  0.296707  0  2.232391  0  0  0.218337  0  2.727323  0  0  0.226276  0  2.669166  0  0  0.37696  0.214338  0  2.766209  0
Cu  Cu8  1  0.94984452  0.15926263  0.32874137  1  0  0.327389  0  2.193195  0  0  0.247641  0  2.6876  0  0  0.248341  0  2.641702  0  0  0.386323  0.249718  0  2.716542  0
Cu  Cu9  1  0.05015939  0.34073753  0.82874191  1  0  0.327399  0  2.193218  0  0  0.247636  0  2.687612  0  0  0.248342  0  2.641702  0  0  0.38632  0.249717  0  2.71654  0
Cu  Cu10  1  0.55015680  0.65925952  0.67125850  1  0  0.327341  0  2.19322  0  0  0.247641  0  2.687562  0  0  0.248343  0  2.641655  0  0  0.386322  0.249737  0  2.716473  0
Cu  Cu11  1  0.44984303  0.84073928  0.17125942  1  0  0.327359  0  2.193262  0  0  0.247615  0  2.687626  0  0  0.24832  0  2.641717  0  0  0.386303  0.249699  0  2.716564  0
H  H12  1  0.47179426  0.53110502  0.21589109  1  0  0.070325  0  0.973806  0  0  0.075892  0  1.046059  0  0  0.078676  0  1.042573  0  0  0.102245  0.073748  0  1.048622  0
H  H13  1  0.52820979  0.96889626  0.71588820  1  0  0.070374  0  0.97384  0  0  0.07592  0  1.046103  0  0  0.078735  0  1.042587  0  0  0.102255  0.073773  0  1.048675  0
H  H14  1  0.02820675  0.03110160  0.78411045  1  0  0.070386  0  0.973902  0  0  0.075957  0  1.046138  0  0  0.078741  0  1.042655  0  0  0.102255  0.073812  0  1.048704  0
H  H15  1  0.97179165  0.46889437  0.28411955  1  0  0.070416  0  0.973731  0  0  0.075936  0  1.046033  0  0  0.078743  0  1.042525  0  0  0.102244  0.073792  0  1.048599  0
H  H16  1  0.23496040  0.38241846  0.21725895  1  0  0.117628  0  0.983592  0  0  0.124837  0  1.048015  0  0  0.127906  0  1.047968  0  0  0.101336  0.122628  0  1.048282  0
H  H17  1  0.76503750  0.11758440  0.71725665  1  0  0.11761  0  0.983634  0  0  0.124818  0  1.048062  0  0  0.127885  0  1.048016  0  0  0.101347  0.122604  0  1.048333  0
H  H18  1  0.26504092  0.88241390  0.78274408  1  0  0.117632  0  0.983617  0  0  0.124818  0  1.048053  0  0  0.127886  0  1.048007  0  0  0.101349  0.122609  0  1.048322  0
H  H19  1  0.73496622  0.61758474  0.28274441  1  0  0.117632  0  0.983582  0  0  0.124846  0  1.048013  0  0  0.127914  0  1.047967  0  0  0.101357  0.122632  0  1.048284  0
H  H20  1  0.32954820  0.17702968  0.22595224  1  0  0.080716  0  0.97336  0  0  0.09773  0  1.031879  0  0  0.10011  0  1.028263  0  0  0.101516  0.095652  0  1.034825  0
H  H21  1  0.67045106  0.32297317  0.72595197  1  0  0.080702  0  0.97338  0  0  0.097706  0  1.031928  0  0  0.100088  0  1.028307  0  0  0.101498  0.095628  0  1.034867  0
H  H22  1  0.17044959  0.67702750  0.77404805  1  0  0.080707  0  0.97342  0  0  0.097725  0  1.031943  0  0  0.1001  0  1.028323  0  0  0.101513  0.09565  0  1.034883  0
H  H23  1  0.82955230  0.82296945  0.27404606  1  0  0.08075  0  0.973385  0  0  0.097765  0  1.031909  0  0  0.100143  0  1.02829  0  0  0.101516  0.095687  0  1.034851  0
H  H24  1  0.94620734  0.83231977  0.92457505  1  0  0.070285  0  0.94609  0  0  0.080307  0  1.006874  0  0  0.081552  0  1.006357  0  0  0.110723  0.079289  0  1.007396  0
H  H25  1  0.05378792  0.66768206  0.42457434  1  0  0.07026  0  0.946085  0  0  0.080285  0  1.006854  0  0  0.081531  0  1.006339  0  0  0.110715  0.079269  0  1.00737  0
H  H26  1  0.55378701  0.33232250  0.07542760  1  0  0.07036  0  0.946072  0  0  0.080392  0  1.006817  0  0  0.081636  0  1.006301  0  0  0.110773  0.079378  0  1.007343  0
H  H27  1  0.44620854  0.16768481  0.57542364  1  0  0.070308  0  0.946162  0  0  0.080344  0  1.006916  0  0  0.081583  0  1.006398  0  0  0.110714  0.079324  0  1.007435  0
H  H28  1  0.12674588  0.65375210  0.94217687  1  0  0.115891  0  0.988791  0  0  0.125399  0  1.048779  0  0  0.127416  0  1.051572  0  0  0.095456  0.123914  0  1.04706  0
H  H29  1  0.87323657  0.84624631  0.44217262  1  0  0.115899  0  0.988774  0  0  0.125382  0  1.048805  0  0  0.127395  0  1.051597  0  0  0.095447  0.123899  0  1.047082  0
H  H30  1  0.37325051  0.15375375  0.05782574  1  0  0.115914  0  0.988792  0  0  0.125367  0  1.048854  0  0  0.12738  0  1.051644  0  0  0.095461  0.123882  0  1.047139  0
H  H31  1  0.62675008  0.34625189  0.55782250  1  0  0.115868  0  0.988795  0  0  0.125381  0  1.048795  0  0  0.127397  0  1.051589  0  0  0.095447  0.123894  0  1.047074  0
H  H32  1  0.34423921  0.65436839  0.05082215  1  0  0.081236  0  0.920578  0  0  0.092494  0  0.981173  0  0  0.095322  0  0.977401  0  0  0.118696  0.090286  0  0.984082  0
H  H33  1  0.65575066  0.84563228  0.55082069  1  0  0.08122  0  0.920499  0  0  0.092476  0  0.981105  0  0  0.095304  0  0.977333  0  0  0.118681  0.090272  0  0.984016  0
H  H34  1  0.15575848  0.15436327  0.94917873  1  0  0.081283  0  0.920594  0  0  0.092591  0  0.981137  0  0  0.095375  0  0.977417  0  0  0.118705  0.090384  0  0.984047  0
H  H35  1  0.84424634  0.34563841  0.44917732  1  0  0.081247  0  0.92057  0  0  0.092523  0  0.981151  0  0  0.095332  0  0.977402  0  0  0.118708  0.090315  0  0.984062  0
H  H36  1  0.55533635  0.96364909  0.88206793  1  0  0.071116  0  0.946434  0  0  0.078978  0  1.012509  0  0  0.081342  0  1.009673  0  0  0.106448  0.077136  0  1.014665  0
H  H37  1  0.44466377  0.53634601  0.38206846  1  0  0.071174  0  0.946471  0  0  0.079009  0  1.012555  0  0  0.081371  0  1.009725  0  0  0.106464  0.077164  0  1.014712  0
H  H38  1  0.94466248  0.46365503  0.11793347  1  0  0.071141  0  0.946486  0  0  0.078978  0  1.012563  0  0  0.081339  0  1.009734  0  0  0.106455  0.077133  0  1.014722  0
H  H39  1  0.05533597  0.03634882  0.61792961  1  0  0.071165  0  0.946455  0  0  0.079023  0  1.012517  0  0  0.081388  0  1.00968  0  0  0.106448  0.077178  0  1.014678  0
H  H40  1  0.70889721  0.15315585  0.86831629  1  0  0.108217  0  0.979042  0  0  0.115443  0  1.045818  0  0  0.118143  0  1.047125  0  0  0.099813  0.113471  0  1.045189  0
H  H41  1  0.29110441  0.34683576  0.36831812  1  0  0.108218  0  0.979023  0  0  0.115449  0  1.045806  0  0  0.11815  0  1.047114  0  0  0.099806  0.113475  0  1.045179  0
H  H42  1  0.79110280  0.65316415  0.13168243  1  0  0.10821  0  0.979033  0  0  0.115442  0  1.045814  0  0  0.118143  0  1.047123  0  0  0.099803  0.113466  0  1.04519  0
H  H43  1  0.20889415  0.84684149  0.63168031  1  0  0.108184  0  0.979163  0  0  0.115381  0  1.04598  0  0  0.118081  0  1.047288  0  0  0.099737  0.113405  0  1.045356  0
H  H44  1  0.85562637  0.23220327  0.98736542  1  0  0.080624  0  0.950049  0  0  0.083745  0  1.026998  0  0  0.087627  0  1.021632  0  0  0.111954  0.080741  0  1.031103  0
H  H45  1  0.14436967  0.26779326  0.48736824  1  0  0.080655  0  0.950005  0  0  0.08377  0  1.026971  0  0  0.087652  0  1.021606  0  0  0.11194  0.080766  0  1.031075  0
H  H46  1  0.64437399  0.73220468  0.01263094  1  0  0.080679  0  0.950008  0  0  0.083795  0  1.026958  0  0  0.087678  0  1.021591  0  0  0.111964  0.080793  0  1.031062  0
H  H47  1  0.35562465  0.76779519  0.51263198  1  0  0.080649  0  0.950016  0  0  0.083779  0  1.026943  0  0  0.087661  0  1.021579  0  0  0.111951  0.080777  0  1.031049  0
C  C48  1  0.70954853  0.30187491  0.22242045  1  0  0.398236  0  3.743583  0  0  0.381381  0  4.013921  0  0  0.39933  0  4.026895  0  0  0.223557  0.369177  0  4.005132  0
C  C49  1  0.29045071  0.19812540  0.72241971  1  0  0.398191  0  3.743499  0  0  0.381333  0  4.013831  0  0  0.399278  0  4.02681  0  0  0.223524  0.369126  0  4.005043  0
C  C50  1  0.79045474  0.80187210  0.77757817  1  0  0.398206  0  3.743518  0  0  0.381318  0  4.013896  0  0  0.39926  0  4.026876  0  0  0.223507  0.369107  0  4.005131  0
C  C51  1  0.20955494  0.69812655  0.27758114  1  0  0.398146  0  3.743668  0  0  0.381308  0  4.013907  0  0  0.399249  0  4.0269  0  0  0.223561  0.369117  0  4.005111  0
C  C52  1  0.50162937  0.44050240  0.21765542  1  0  0.177613  0  3.710623  0  0  0.144834  0  3.971507  0  0  0.157709  0  3.982617  0  0  0.057806  0.136463  0  3.964018  0
C  C53  1  0.49837371  0.05949791  0.71765335  1  0  0.177459  0  3.710797  0  0  0.144693  0  3.97168  0  0  0.157544  0  3.982781  0  0  0.057724  0.136323  0  3.964197  0
C  C54  1  0.99837453  0.94050167  0.78234426  1  0  0.177359  0  3.710839  0  0  0.144571  0  3.971694  0  0  0.157445  0  3.982807  0  0  0.057754  0.136206  0  3.964201  0
C  C55  1  0.00163131  0.55949697  0.28235049  1  0  0.17749  0  3.710457  0  0  0.144724  0  3.971395  0  0  0.157581  0  3.982499  0  0  0.057787  0.136355  0  3.963907  0
C  C56  1  0.37095884  0.35918239  0.21898810  1  0  -0.19672  0  3.742233  0  0  -0.205895  0  3.99295  0  0  -0.216388  0  4.011394  0  0  -0.094796  -0.199518  0  3.981095  0
C  C57  1  0.62904295  0.14081962  0.71898674  1  0  -0.196615  0  3.742196  0  0  -0.205785  0  3.992883  0  0  -0.216276  0  4.011337  0  0  -0.094794  -0.199409  0  3.981026  0
C  C58  1  0.12904625  0.85917928  0.78101206  1  0  -0.196605  0  3.742134  0  0  -0.205728  0  3.992788  0  0  -0.216223  0  4.011233  0  0  -0.094813  -0.199358  0  3.980935  0
C  C59  1  0.87096346  0.64081936  0.28101373  1  0  -0.19669  0  3.742063  0  0  -0.205874  0  3.9928  0  0  -0.216364  0  4.011248  0  0  -0.094844  -0.199496  0  3.98094  0
C  C60  1  0.42253478  0.24644802  0.22376975  1  0  0.181184  0  3.655794  0  0  0.147369  0  3.897585  0  0  0.159097  0  3.911835  0  0  0.05317  0.139702  0  3.888401  0
C  C61  1  0.57746446  0.25355568  0.72376766  1  0  0.181167  0  3.655722  0  0  0.147337  0  3.897511  0  0  0.159063  0  3.911758  0  0  0.053214  0.13967  0  3.888313  0
C  C62  1  0.07746850  0.74644142  0.77623280  1  0  0.181185  0  3.655652  0  0  0.147336  0  3.897434  0  0  0.159072  0  3.911666  0  0  0.053219  0.139672  0  3.888255  0
C  C63  1  0.92254117  0.75355468  0.27623099  1  0  0.181135  0  3.655722  0  0  0.147276  0  3.897508  0  0  0.159012  0  3.911753  0  0  0.053192  0.139615  0  3.888326  0
C  C64  1  0.16845882  0.90617428  0.07611977  1  0  0.415973  0  3.721891  0  0  0.401051  0  3.986865  0  0  0.41848  0  4.000694  0  0  0.227291  0.389244  0  3.977556  0
C  C65  1  0.83154289  0.59382720  0.57612221  1  0  0.415912  0  3.721847  0  0  0.401011  0  3.986807  0  0  0.418439  0  4.000633  0  0  0.227268  0.389203  0  3.977499  0
C  C66  1  0.33153872  0.40617122  0.92387978  1  0  0.41594  0  3.721959  0  0  0.401002  0  3.986906  0  0  0.41844  0  4.000737  0  0  0.227253  0.389198  0  3.977584  0
C  C67  1  0.66845814  0.09383050  0.42387713  1  0  0.415968  0  3.721843  0  0  0.401062  0  3.986808  0  0  0.418478  0  4.000657  0  0  0.227235  0.38926  0  3.977485  0
C  C68  1  0.04165902  0.82493683  0.97074780  1  0  0.17769  0  3.717246  0  0  0.14982  0  3.973232  0  0  0.161457  0  3.988108  0  0  0.056029  0.142205  0  3.963288  0
C  C69  1  0.95833788  0.67506578  0.47074900  1  0  0.177594  0  3.717251  0  0  0.149756  0  3.973234  0  0  0.161389  0  3.988113  0  0  0.055971  0.14214  0  3.963288  0
C  C70  1  0.45834074  0.32493529  0.02925354  1  0  0.177496  0  3.717288  0  0  0.149646  0  3.973267  0  0  0.161282  0  3.988148  0  0  0.055929  0.142019  0  3.963341  0
C  C71  1  0.54165834  0.17506784  0.52925029  1  0  0.177527  0  3.717338  0  0  0.149661  0  3.973341  0  0  0.161306  0  3.98821  0  0  0.055924  0.142047  0  3.963388  0
C  C72  1  0.13938211  0.72658718  0.98043296  1  0  -0.195874  0  3.746123  0  0  -0.207064  0  3.994636  0  0  -0.218758  0  4.017188  0  0  -0.099769  -0.199864  0  3.980046  0
C  C73  1  0.86060839  0.77341203  0.48043163  1  0  -0.195779  0  3.746092  0  0  -0.206979  0  3.994639  0  0  -0.218672  0  4.01719  0  0  -0.099698  -0.199785  0  3.980053  0
C  C74  1  0.36061461  0.22658631  0.01956960  1  0  -0.195706  0  3.745967  0  0  -0.206883  0  3.994547  0  0  -0.218565  0  4.017077  0  0  -0.099692  -0.199687  0  3.97997  0
C  C75  1  0.63938827  0.27341684  0.51956585  1  0  -0.195601  0  3.745967  0  0  -0.206808  0  3.99447  0  0  -0.218502  0  4.017015  0  0  -0.099601  -0.19961  0  3.97987  0
C  C76  1  0.25869653  0.72652429  0.04046457  1  0  0.177597  0  3.670738  0  0  0.145248  0  3.91908  0  0  0.156931  0  3.931497  0  0  0.057845  0.137582  0  3.911089  0
C  C77  1  0.74129585  0.77347555  0.54046386  1  0  0.177622  0  3.670693  0  0  0.145294  0  3.919047  0  0  0.156979  0  3.931463  0  0  0.057862  0.137627  0  3.911073  0
C  C78  1  0.24130019  0.22652101  0.95953625  1  0  0.177359  0  3.670783  0  0  0.14494  0  3.919137  0  0  0.156663  0  3.931562  0  0  0.057691  0.137278  0  3.911149  0
C  C79  1  0.75869952  0.27348151  0.45953304  1  0  0.177507  0  3.670775  0  0  0.145144  0  3.91913  0  0  0.156841  0  3.931551  0  0  0.057731  0.13748  0  3.911139  0
C  C80  1  0.69232552  0.99625195  0.05881932  1  0  0.411867  0  3.737738  0  0  0.396171  0  4.006983  0  0  0.414305  0  4.019898  0  0  0.226805  0.383941  0  3.998178  0
C  C81  1  0.30766829  0.50374870  0.55882047  1  0  0.411721  0  3.737992  0  0  0.396038  0  4.007212  0  0  0.414171  0  4.020126  0  0  0.226729  0.38382  0  3.99838  0
C  C82  1  0.80767475  0.49625137  0.94118090  1  0  0.41194  0  3.737657  0  0  0.396245  0  4.006853  0  0  0.414384  0  4.019756  0  0  0.226821  0.384021  0  3.998034  0
C  C83  1  0.19232612  0.00374862  0.44117820  1  0  0.411711  0  3.738013  0  0  0.396192  0  4.007019  0  0  0.414333  0  4.019919  0  0  0.226769  0.383978  0  3.998191  0
C  C84  1  0.61888010  0.00441760  0.93115446  1  0  0.183178  0  3.702689  0  0  0.152727  0  3.961683  0  0  0.165227  0  3.974162  0  0  0.057425  0.144573  0  3.953256  0
C  C85  1  0.38111811  0.49557647  0.43115516  1  0  0.183184  0  3.702614  0  0  0.152764  0  3.961598  0  0  0.165263  0  3.974077  0  0  0.057413  0.14461  0  3.95317  0
C  C86  1  0.88111793  0.50442276  0.06884668  1  0  0.18319  0  3.702394  0  0  0.15277  0  3.961375  0  0  0.16527  0  3.973853  0  0  0.05743  0.144616  0  3.952949  0
C  C87  1  0.11888242  0.99558043  0.56884201  1  0  0.183152  0  3.702806  0  0  0.152739  0  3.961777  0  0  0.165239  0  3.974256  0  0  0.057445  0.144587  0  3.95335  0
C  C88  1  0.70493807  0.10788547  0.92302112  1  0  -0.192223  0  3.737301  0  0  -0.203348  0  3.989404  0  0  -0.215243  0  4.011258  0  0  -0.09768  -0.195944  0  3.975125  0
C  C89  1  0.29506525  0.39210691  0.42302408  1  0  -0.192154  0  3.737154  0  0  -0.203314  0  3.989293  0  0  -0.215207  0  4.011148  0  0  -0.097636  -0.195912  0  3.975015  0
C  C90  1  0.79506172  0.60789301  0.07697706  1  0  -0.192116  0  3.737061  0  0  -0.203283  0  3.989202  0  0  -0.215178  0  4.011054  0  0  -0.097628  -0.195877  0  3.974925  0
C  C91  1  0.20493481  0.89211102  0.57697490  1  0  -0.19217  0  3.737515  0  0  -0.20329  0  3.989623  0  0  -0.215188  0  4.01148  0  0  -0.09761  -0.195882  0  3.975348  0
C  C92  1  0.78647023  0.15122543  0.98817533  1  0  0.17071  0  3.684118  0  0  0.135345  0  3.942473  0  0  0.147112  0  3.954612  0  0  0.053596  0.127678  0  3.934573  0
C  C93  1  0.21352970  0.34877110  0.48817820  1  0  0.17056  0  3.684058  0  0  0.135204  0  3.942416  0  0  0.146964  0  3.954561  0  0  0.053558  0.127533  0  3.934514  0
C  C94  1  0.71352976  0.65122867  0.01182224  1  0  0.170594  0  3.68405  0  0  0.135239  0  3.942401  0  0  0.147004  0  3.954544  0  0  0.05357  0.127559  0  3.934509  0
C  C95  1  0.28646758  0.84877291  0.51182197  1  0  0.170577  0  3.684078  0  0  0.135211  0  3.942436  0  0  0.146972  0  3.954582  0  0  0.053542  0.127532  0  3.934545  0
S  S96  1  0.92966131  0.26491639  0.22230624  1  0  -0.41748  0  2.752126  0  0  -0.391809  0  3.24315  0  0  -0.399536  0  3.209078  0  0  -0.250268  -0.386446  0  3.264983  0
S  S97  1  0.07034051  0.23508476  0.72230631  1  0  -0.417459  0  2.752173  0  0  -0.391814  0  3.243243  0  0  -0.399528  0  3.209157  0  0  -0.250271  -0.386452  0  3.265071  0
S  S98  1  0.57034179  0.76491318  0.77769298  1  0  -0.417448  0  2.75205  0  0  -0.391771  0  3.243093  0  0  -0.399502  0  3.209028  0  0  -0.250249  -0.386411  0  3.264926  0
S  S99  1  0.42966272  0.73508632  0.27769452  1  0  -0.417408  0  2.752203  0  0  -0.391775  0  3.243231  0  0  -0.399491  0  3.209161  0  0  -0.250252  -0.386415  0  3.265058  0
S  S100  1  0.18914600  0.01752569  0.14271734  1  0  -0.424378  0  2.830667  0  0  -0.395889  0  3.336513  0  0  -0.404251  0  3.299482  0  0  -0.253048  -0.390465  0  3.361099  0
S  S101  1  0.81085005  0.48247473  0.64271716  1  0  -0.424366  0  2.830736  0  0  -0.395908  0  3.336631  0  0  -0.404262  0  3.29959  0  0  -0.253049  -0.390475  0  3.361196  0
S  S102  1  0.31084848  0.51752450  0.85728248  1  0  -0.424362  0  2.83064  0  0  -0.395918  0  3.336552  0  0  -0.404278  0  3.299516  0  0  -0.253055  -0.390487  0  3.361121  0
S  S103  1  0.68915016  0.98247658  0.35728191  1  0  -0.424371  0  2.830751  0  0  -0.395889  0  3.336596  0  0  -0.404241  0  3.299561  0  0  -0.253058  -0.390467  0  3.361181  0
S  S104  1  0.69897229  0.92556114  0.14825749  1  0  -0.418548  0  2.804028  0  0  -0.391767  0  3.312142  0  0  -0.402204  0  3.278736  0  0  -0.26017  -0.384788  0  3.333919  0
S  S105  1  0.30102478  0.57443770  0.64825916  1  0  -0.418476  0  2.804049  0  0  -0.391736  0  3.312183  0  0  -0.402169  0  3.278775  0  0  -0.260166  -0.384758  0  3.333944  0
S  S106  1  0.80102895  0.42556067  0.85174220  1  0  -0.418561  0  2.804034  0  0  -0.391804  0  3.312178  0  0  -0.402238  0  3.278762  0  0  -0.260189  -0.384822  0  3.333927  0
S  S107  1  0.19897384  0.07443860  0.35174004  1  0  -0.418482  0  2.804247  0  0  -0.391748  0  3.31228  0  0  -0.402182  0  3.278861  0  0  -0.260136  -0.384774  0  3.334044  0
N  N108  1  0.59052670  0.21626710  0.22577507  1  0  -0.34866  0  3.298065  0  0  -0.274079  0  3.582569  0  0  -0.289568  0  3.5879  0  0  -0.366236  -0.264526  0  3.579178  0
N  N109  1  0.40947386  0.28373405  0.72577386  1  0  -0.34863  0  3.298016  0  0  -0.274033  0  3.582512  0  0  -0.28952  0  3.587846  0  0  -0.366235  -0.264474  0  3.579103  0
N  N110  1  0.90947359  0.71626452  0.77422477  1  0  -0.34864  0  3.298098  0  0  -0.27404  0  3.582604  0  0  -0.289512  0  3.587912  0  0  -0.366232  -0.264501  0  3.579229  0
N  N111  1  0.09053219  0.78373244  0.27422519  1  0  -0.348704  0  3.298125  0  0  -0.274016  0  3.582502  0  0  -0.289514  0  3.587843  0  0  -0.366284  -0.264492  0  3.579128  0
N  N112  1  0.66976620  0.41245817  0.21929448  1  0  -0.386511  0  3.047349  0  0  -0.339921  0  3.307576  0  0  -0.358022  0  3.322129  0  0  -0.318071  -0.327844  0  3.297729  0
N  N113  1  0.33023560  0.08754214  0.71929271  1  0  -0.386449  0  3.047324  0  0  -0.339861  0  3.307555  0  0  -0.357962  0  3.322118  0  0  -0.318035  -0.327787  0  3.297709  0
N  N114  1  0.83023239  0.91245543  0.78070580  1  0  -0.386387  0  3.047211  0  0  -0.339789  0  3.307449  0  0  -0.357889  0  3.322006  0  0  -0.31803  -0.327709  0  3.297603  0
N  N115  1  0.16976955  0.58754321  0.28071110  1  0  -0.38642  0  3.047211  0  0  -0.339834  0  3.307424  0  0  -0.357933  0  3.321988  0  0  -0.318051  -0.32776  0  3.297571  0
N  N116  1  0.05690259  0.91510214  0.01736119  1  0  -0.372239  0  3.037887  0  0  -0.330489  0  3.29567  0  0  -0.347456  0  3.310837  0  0  -0.319856  -0.319344  0  3.2855  0
N  N117  1  0.94309608  0.58490027  0.51736148  1  0  -0.372189  0  3.037781  0  0  -0.330457  0  3.29556  0  0  -0.34742  0  3.310727  0  0  -0.319837  -0.319311  0  3.285393  0
N  N118  1  0.44309499  0.41510175  0.98264009  1  0  -0.372168  0  3.03782  0  0  -0.330431  0  3.295596  0  0  -0.347397  0  3.310765  0  0  -0.319813  -0.31928  0  3.285424  0
N  N119  1  0.55690361  0.08490158  0.48263729  1  0  -0.372292  0  3.037842  0  0  -0.330554  0  3.295625  0  0  -0.347516  0  3.310793  0  0  -0.319803  -0.319409  0  3.285447  0
N  N120  1  0.27438507  0.81554456  0.08873905  1  0  -0.355265  0  3.312842  0  0  -0.282006  0  3.596858  0  0  -0.297682  0  3.604234  0  0  -0.365785  -0.272351  0  3.591937  0
N  N121  1  0.72561156  0.68445606  0.58873780  1  0  -0.355251  0  3.312824  0  0  -0.282033  0  3.596882  0  0  -0.297703  0  3.604254  0  0  -0.365791  -0.272377  0  3.591968  0
N  N122  1  0.22561724  0.31554047  0.91126403  1  0  -0.355186  0  3.31303  0  0  -0.281842  0  3.596986  0  0  -0.29754  0  3.604367  0  0  -0.365686  -0.272188  0  3.59206  0
N  N123  1  0.77438600  0.18445957  0.41126148  1  0  -0.355256  0  3.312854  0  0  -0.281999  0  3.596866  0  0  -0.297668  0  3.60424  0  0  -0.36575  -0.272348  0  3.59194  0
N  N124  1  0.78294599  0.09533427  0.05598264  1  0  -0.36512  0  3.325506  0  0  -0.294432  0  3.613852  0  0  -0.310154  0  3.620261  0  0  -0.368885  -0.284714  0  3.609489  0
N  N125  1  0.21704941  0.40466373  0.55598454  1  0  -0.36499  0  3.325394  0  0  -0.294305  0  3.613717  0  0  -0.310012  0  3.620109  0  0  -0.368851  -0.28459  0  3.609347  0
N  N126  1  0.71705375  0.59533448  0.94401555  1  0  -0.365136  0  3.325442  0  0  -0.294439  0  3.613767  0  0  -0.310158  0  3.62017  0  0  -0.368913  -0.284721  0  3.6094  0
N  N127  1  0.28294942  0.90466562  0.44401501  1  0  -0.365072  0  3.325368  0  0  -0.294436  0  3.613687  0  0  -0.310147  0  3.620078  0  0  -0.368894  -0.284719  0  3.609322  0
N  N128  1  0.61034944  0.94881871  0.99876118  1  0  -0.37987  0  3.009193  0  0  -0.339847  0  3.273969  0  0  -0.35608  0  3.285376  0  0  -0.319553  -0.329198  0  3.266356  0
N  N129  1  0.38964767  0.55117962  0.49876220  1  0  -0.379949  0  3.009361  0  0  -0.339903  0  3.274078  0  0  -0.356137  0  3.285487  0  0  -0.319559  -0.329258  0  3.266457  0
N  N130  1  0.88964932  0.44882047  0.00123907  1  0  -0.380011  0  3.009092  0  0  -0.339954  0  3.273809  0  0  -0.356186  0  3.285213  0  0  -0.319595  -0.329312  0  3.266201  0
N  N131  1  0.11035084  0.05117930  0.50123644  1  0  -0.379829  0  3.009405  0  0  -0.339893  0  3.274133  0  0  -0.356129  0  3.28554  0  0  -0.319555  -0.329247  0  3.266514  0
