# generated using pymatgen
data_LiH12C14(NO)3
_symmetry_space_group_name_H-M   'P 1'
_cell_length_a   7.70011541
_cell_length_b   10.19549196
_cell_length_c   16.11900000
_cell_angle_alpha   90.23348865
_cell_angle_beta   90.00000000
_cell_angle_gamma   90.00000000
_symmetry_Int_Tables_number   1
_chemical_formula_structural   LiH12C14(NO)3
_chemical_formula_sum   'Li4 H48 C56 N12 O12'
_cell_volume   1265.43519785
_cell_formula_units_Z   4
loop_
 _symmetry_equiv_pos_site_id
 _symmetry_equiv_pos_as_xyz
  1  'x, y, z'
loop_
 _atom_site_type_symbol
 _atom_site_label
 _atom_site_symmetry_multiplicity
 _atom_site_fract_x
 _atom_site_fract_y
 _atom_site_fract_z
 _atom_site_occupancy
 _atom_site_hle17_bader_spin_density
 _atom_site_hle17_ddec_charge
 _atom_site_hle17_ddec_spin_density
 _atom_site_hle17_ddec_sum_bond_order
 _atom_site_hle17_magmom
 _atom_site_hse06_10hf_bader_spin_density
 _atom_site_hse06_10hf_ddec_charge
 _atom_site_hse06_10hf_ddec_spin_density
 _atom_site_hse06_10hf_ddec_sum_bond_order
 _atom_site_hse06_10hf_magmom
 _atom_site_hse06_bader_spin_density
 _atom_site_hse06_ddec_charge
 _atom_site_hse06_ddec_spin_density
 _atom_site_hse06_ddec_sum_bond_order
 _atom_site_hse06_magmom
 _atom_site_pbe_bader_charge
 _atom_site_pbe_bader_spin_density
 _atom_site_pbe_cm5_charge
 _atom_site_pbe_ddec_charge
 _atom_site_pbe_ddec_spin_density
 _atom_site_pbe_ddec_sum_bond_order
 _atom_site_pbe_magmom
Li  Li0  1  0.34108060  0.36184822  0.68426044  1  0  0.795439  0  0.456636  0  0  0.721831  0  0.608834  0  0  0.735953  0  0.587691  0  0.866443  0  0.504806  0.712037  0  0.623423  0
Li  Li1  1  0.84107700  0.13815338  0.81573981  1  0  0.795419  0  0.456695  0  0  0.721824  0  0.608865  0  0  0.735947  0  0.587719  0  0.866437  0  0.504797  0.712029  0  0.623456  0
Li  Li2  1  0.65892259  0.63815597  0.31574006  1  0  0.795402  0  0.456713  0  0  0.721815  0  0.608864  0  0  0.735938  0  0.58772  0  0.866455  0  0.50479  0.71202  0  0.623454  0
Li  Li3  1  0.15891970  0.86184394  0.18425882  1  0  0.795427  0  0.45668  0  0  0.72183  0  0.608854  0  0  0.735953  0  0.587708  0  0.86643  0  0.504801  0.712035  0  0.623444  0
H  H4  1  0.12035664  0.53733998  0.34576310  1  0  0.10368  0  0.933524  0  0  0.116941  0  0.989889  0  0  0.119004  0  0.988854  0  0.069631  0  0.115282  0.115403  0  0.990663  0
H  H5  1  0.62034395  0.96266090  0.15423827  1  0  0.103659  0  0.9335  0  0  0.116918  0  0.989891  0  0  0.118983  0  0.988853  0  0.069832  0  0.115275  0.115377  0  0.990666  0
H  H6  1  0.87964785  0.46266028  0.65423864  1  0  0.103671  0  0.933475  0  0  0.116899  0  0.989874  0  0  0.118962  0  0.988839  0  0.069747  0  0.115254  0.115361  0  0.990647  0
H  H7  1  0.37965275  0.03733936  0.84576099  1  0  0.103699  0  0.933507  0  0  0.116966  0  0.989871  0  0  0.119029  0  0.988836  0  0.069804  0  0.115296  0.115427  0  0.990646  0
H  H8  1  0.07307683  0.30325419  0.38294929  1  0  0.098942  0  0.974697  0  0  0.111099  0  1.036108  0  0  0.113473  0  1.036616  0  0.062027  0  0.102705  0.109404  0  1.035935  0
H  H9  1  0.57306803  0.19674643  0.11704972  1  0  0.098862  0  0.974732  0  0  0.111069  0  1.036083  0  0  0.113442  0  1.036592  0  0.062001  0  0.102677  0.109373  0  1.035911  0
H  H10  1  0.92692377  0.69674705  0.61705059  1  0  0.098932  0  0.974723  0  0  0.111098  0  1.036123  0  0  0.113474  0  1.036634  0  0.061963  0  0.102685  0.109402  0  1.03595  0
H  H11  1  0.42692737  0.80325383  0.88294954  1  0  0.098897  0  0.974704  0  0  0.111053  0  1.036121  0  0  0.113426  0  1.036633  0  0.062007  0  0.10268  0.109358  0  1.035948  0
H  H12  1  0.11577099  0.17660795  0.59350318  1  0  0.13434  0  0.961965  0  0  0.153763  0  1.025265  0  0  0.155835  0  1.023975  0  0.116389  0  0.105752  0.152037  0  1.026456  0
H  H13  1  0.61576999  0.32339267  0.90649645  1  0  0.134357  0  0.961894  0  0  0.153763  0  1.025211  0  0  0.155839  0  1.023911  0  0.116388  0  0.105771  0.15204  0  1.026395  0
H  H14  1  0.88422701  0.82339329  0.40649670  1  0  0.134365  0  0.961913  0  0  0.153769  0  1.025231  0  0  0.155844  0  1.023933  0  0.116377  0  0.105748  0.152045  0  1.026415  0
H  H15  1  0.38422801  0.67660661  0.09350094  1  0  0.134344  0  0.96182  0  0  0.153765  0  1.02511  0  0  0.155836  0  1.02382  0  0.116428  0  0.105738  0.152038  0  1.026303  0
H  H16  1  0.05920561  0.13783755  0.48826211  1  0  0.110143  0  0.960569  0  0  0.131424  0  1.021028  0  0  0.132519  0  1.021704  0  0.042707  0  0.089545  0.130539  0  1.020485  0
H  H17  1  0.55920461  0.36216601  0.01173753  1  0  0.110133  0  0.960569  0  0  0.13141  0  1.021026  0  0  0.132506  0  1.021701  0  0.042787  0  0.089516  0.130523  0  1.020483  0
H  H18  1  0.94079239  0.86216173  0.51173963  1  0  0.110148  0  0.960582  0  0  0.131432  0  1.02103  0  0  0.132528  0  1.021704  0  0.042626  0  0.089525  0.130546  0  1.020488  0
H  H19  1  0.44079339  0.63783621  0.98825925  1  0  0.110189  0  0.960501  0  0  0.131432  0  1.020994  0  0  0.132528  0  1.021669  0  0.042603  0  0.089523  0.130546  0  1.020452  0
H  H20  1  0.27838024  0.12705329  0.52330534  1  0  0.121273  0  0.949464  0  0  0.143399  0  1.011827  0  0  0.144351  0  1.011887  0  0.059449  0  0.096977  0.143009  0  1.010244  0
H  H21  1  0.77838054  0.37294537  0.97669490  1  0  0.121301  0  0.949437  0  0  0.143408  0  1.011827  0  0  0.144358  0  1.011887  0  0.059458  0  0.096969  0.143016  0  1.010246  0
H  H22  1  0.72161905  0.87295188  0.47669579  1  0  0.121355  0  0.949485  0  0  0.143485  0  1.011824  0  0  0.144437  0  1.011881  0  0.059378  0  0.097023  0.143094  0  1.010242  0
H  H23  1  0.22162005  0.62704508  0.02330309  1  0  0.121311  0  0.949347  0  0  0.143417  0  1.011717  0  0  0.144365  0  1.011782  0  0.059399  0  0.097019  0.143026  0  1.010135  0
H  H24  1  0.22988487  0.75945568  0.38748644  1  0  0.103842  0  0.949963  0  0  0.113957  0  1.011446  0  0  0.116341  0  1.011105  0  0.102412  0  0.112306  0.112117  0  1.011947  0
H  H25  1  0.72987477  0.74054619  0.11251307  1  0  0.103798  0  0.949914  0  0  0.113922  0  1.011414  0  0  0.116298  0  1.011075  0  0.1024  0  0.112334  0.112087  0  1.011914  0
H  H26  1  0.77011963  0.24054556  0.61251344  1  0  0.103818  0  0.949895  0  0  0.113909  0  1.011428  0  0  0.116286  0  1.011087  0  0.102414  0  0.112297  0.112073  0  1.011926  0
H  H27  1  0.27011413  0.25945310  0.88748494  1  0  0.103769  0  0.949892  0  0  0.113894  0  1.011387  0  0  0.116281  0  1.011046  0  0.102428  0  0.112274  0.112057  0  1.011887  0
H  H28  1  0.52454279  0.92681143  0.63056065  1  0  0.102685  0  0.962945  0  0  0.109073  0  1.03115  0  0  0.113065  0  1.027144  0  0.118514  0  0.105295  0.106037  0  1.034364  0
H  H29  1  0.02453859  0.57319044  0.86944382  1  0  0.102789  0  0.96277  0  0  0.109101  0  1.031044  0  0  0.113093  0  1.027038  0  0.118562  0  0.105329  0.106064  0  1.034261  0
H  H30  1  0.47545521  0.07319178  0.36943985  1  0  0.102733  0  0.962841  0  0  0.109077  0  1.03108  0  0  0.11307  0  1.027074  0  0.11855  0  0.105313  0.106041  0  1.034296  0
H  H31  1  0.97546720  0.42680982  0.13056102  1  0  0.102736  0  0.96287  0  0  0.109121  0  1.031053  0  0  0.113114  0  1.027046  0  0.118605  0  0.105308  0.106086  0  1.034266  0
H  H32  1  0.61734529  0.82471350  0.76192104  1  0  0.113841  0  0.955751  0  0  0.123484  0  1.015974  0  0  0.12641  0  1.016078  0  0.073342  0  0.106562  0.121356  0  1.016098  0
H  H33  1  0.11733980  0.67528445  0.73808032  1  0  0.113896  0  0.955673  0  0  0.123538  0  1.015895  0  0  0.126464  0  1.015998  0  0.073411  0  0.106577  0.12141  0  1.016019  0
H  H34  1  0.38266439  0.17528775  0.23807760  1  0  0.113867  0  0.955762  0  0  0.123514  0  1.015973  0  0  0.12644  0  1.016077  0  0.073403  0  0.106545  0.121396  0  1.016086  0
H  H35  1  0.88267768  0.32471287  0.26192389  1  0  0.113846  0  0.95571  0  0  0.123498  0  1.015937  0  0  0.126424  0  1.016041  0  0.073504  0  0.106561  0.121387  0  1.016041  0
H  H36  1  0.66522639  0.49490029  0.80029481  1  0  0.141585  0  0.948956  0  0  0.16309  0  1.008254  0  0  0.164575  0  1.007983  0  0.109641  0  0.105003  0.161987  0  1.008475  0
H  H37  1  0.16522090  0.00509837  0.69970605  1  0  0.141597  0  0.948958  0  0  0.163098  0  1.008255  0  0  0.164584  0  1.007983  0  0.109668  0  0.105013  0.161995  0  1.008476  0
H  H38  1  0.33477810  0.50510292  0.19970507  1  0  0.141587  0  0.948939  0  0  0.163084  0  1.008261  0  0  0.16457  0  1.007989  0  0.109581  0  0.105005  0.161982  0  1.008483  0
H  H39  1  0.83477970  0.99489993  0.30029382  1  0  0.141578  0  0.948981  0  0  0.16308  0  1.008282  0  0  0.164566  0  1.00801  0  0.1096  0  0.104995  0.161978  0  1.008504  0
H  H40  1  0.45058545  0.51628541  0.83616729  1  0  0.129248  0  0.931502  0  0  0.154655  0  0.984001  0  0  0.156202  0  0.983359  0  0.075238  0  0.105853  0.153436  0  0.984592  0
H  H41  1  0.95058056  0.98371254  0.66383344  1  0  0.129239  0  0.931501  0  0  0.154648  0  0.984001  0  0  0.156196  0  0.983359  0  0.075198  0  0.10585  0.153427  0  0.984594  0
H  H42  1  0.54941904  0.48371780  0.16383321  1  0  0.129237  0  0.931507  0  0  0.15466  0  0.983982  0  0  0.156207  0  0.983341  0  0.075173  0  0.105847  0.153442  0  0.984573  0
H  H43  1  0.04941614  0.01628184  0.33616890  1  0  0.12923  0  0.931515  0  0  0.154661  0  0.983976  0  0  0.156206  0  0.983336  0  0.075174  0  0.105849  0.153442  0  0.984566  0
H  H44  1  0.61103110  0.64031576  0.85526111  1  0  0.103445  0  0.980499  0  0  0.121523  0  1.047469  0  0  0.122747  0  1.048094  0  0.034926  0  0.086026  0.120666  0  1.04689  0
H  H45  1  0.11102691  0.85968120  0.64474025  1  0  0.103449  0  0.980515  0  0  0.121527  0  1.047482  0  0  0.122752  0  1.048107  0  0.034886  0  0.086031  0.120669  0  1.046904  0
H  H46  1  0.38897209  0.35968548  0.14473877  1  0  0.103452  0  0.980508  0  0  0.12153  0  1.047479  0  0  0.122753  0  1.048103  0  0.034958  0  0.086046  0.120673  0  1.046901  0
H  H47  1  0.88897369  0.14031514  0.35526086  1  0  0.103431  0  0.980519  0  0  0.121515  0  1.047482  0  0  0.12274  0  1.048106  0  0.034914  0  0.08604  0.120658  0  1.046903  0
H  H48  1  0.37844757  0.90165304  0.49077126  1  0  0.092145  0  0.952365  0  0  0.104964  0  1.013078  0  0  0.107554  0  1.012042  0  0.068432  0  0.104011  0.103916  0  1.012029  0
H  H49  1  0.87844787  0.59834785  0.00923011  1  0  0.092174  0  0.952312  0  0  0.104997  0  1.013025  0  0  0.107588  0  1.011981  0  0.068398  0  0.104024  0.103949  0  1.011971  0
H  H50  1  0.62154783  0.09834820  0.50923110  1  0  0.092149  0  0.952352  0  0  0.104991  0  1.013047  0  0  0.107579  0  1.01201  0  0.068374  0  0.104022  0.103942  0  1.012  0
H  H51  1  0.12154883  0.40165046  0.99076976  1  0  0.09217  0  0.952326  0  0  0.105011  0  1.013019  0  0  0.107603  0  1.011974  0  0.068409  0  0.10403  0.103964  0  1.011965  0
C  C52  1  0.29802021  0.52860958  0.53978799  1  0  0.138985  0  3.765107  0  0  0.133785  0  4.009909  0  0  0.138154  0  4.030816  0  0.487758  0  0.118578  0.130653  0  3.995979  0
C  C53  1  0.79801531  0.97139130  0.96021399  1  0  0.139103  0  3.765269  0  0  0.133943  0  4.009927  0  0  0.138313  0  4.03083  0  0.487691  0  0.118613  0.130813  0  3.995999  0
C  C54  1  0.70198169  0.47139166  0.46021375  1  0  0.138946  0  3.765226  0  0  0.133814  0  4.009909  0  0  0.138184  0  4.030814  0  0.487632  0  0.118605  0.130682  0  3.99598  0
C  C55  1  0.20197879  0.02860504  0.03978401  1  0  0.138968  0  3.765309  0  0  0.133833  0  4.010021  0  0  0.138204  0  4.030926  0  0.487635  0  0.118664  0.130701  0  3.996092  0
C  C56  1  0.24583008  0.58380306  0.46280823  1  0  0.020554  0  3.789137  0  0  0.034834  0  4.025479  0  0  0.031962  0  4.049364  0  0.029865  0  -0.000952  0.036453  0  4.009418  0
C  C57  1  0.74582389  0.91619684  0.03719376  1  0  0.020436  0  3.789394  0  0  0.034847  0  4.025535  0  0  0.031976  0  4.049416  0  0.029765  0  -0.000945  0.036461  0  4.009477  0
C  C58  1  0.75417181  0.41619818  0.53719289  1  0  0.020562  0  3.789261  0  0  0.034862  0  4.025511  0  0  0.031991  0  4.049392  0  0.029756  0  -0.000959  0.036478  0  4.00945  0
C  C59  1  0.25416892  0.08380146  0.96280612  1  0  0.020478  0  3.789295  0  0  0.034783  0  4.025576  0  0  0.031911  0  4.049462  0  0.029792  0  -0.000955  0.0364  0  4.009518  0
C  C60  1  0.16295340  0.49940722  0.40551829  1  0  -0.021074  0  3.676548  0  0  -0.047657  0  3.931272  0  0  -0.044129  0  3.948351  0  -0.02259  0  -0.058464  -0.049499  0  3.91932  0
C  C61  1  0.66294201  0.00059242  0.09448195  1  0  -0.021052  0  3.676596  0  0  -0.047695  0  3.931316  0  0  -0.044169  0  3.948396  0  -0.02273  0  -0.058503  -0.049534  0  3.919364  0
C  C62  1  0.83704979  0.50059305  0.59448220  1  0  -0.021048  0  3.676533  0  0  -0.047608  0  3.931244  0  0  -0.04408  0  3.948322  0  -0.0226  0  -0.058453  -0.049451  0  3.919292  0
C  C63  1  0.33705079  0.99940686  0.90551730  1  0  -0.021071  0  3.676495  0  0  -0.04768  0  3.93122  0  0  -0.044152  0  3.948299  0  -0.022683  0  -0.058507  -0.049523  0  3.91927  0
C  C64  1  0.13566550  0.37020787  0.42631810  1  0  -0.171527  0  3.705631  0  0  -0.190996  0  3.956105  0  0  -0.19861  0  3.977931  0  -0.030706  0  -0.087593  -0.186235  0  3.941387  0
C  C65  1  0.63565801  0.12979275  0.07368029  1  0  -0.171448  0  3.705554  0  0  -0.190946  0  3.956016  0  0  -0.19856  0  3.977843  0  -0.030612  0  -0.087573  -0.186185  0  3.9413  0
C  C66  1  0.86433640  0.62979240  0.57368116  1  0  -0.171595  0  3.705737  0  0  -0.191089  0  3.956177  0  0  -0.198709  0  3.978008  0  -0.030616  0  -0.087597  -0.186326  0  3.94146  0
C  C67  1  0.36433480  0.87020653  0.92631772  1  0  -0.171513  0  3.705573  0  0  -0.190971  0  3.956055  0  0  -0.198585  0  3.977881  0  -0.03069  0  -0.087588  -0.186209  0  3.94134  0
C  C68  1  0.18829978  0.32330538  0.50491238  1  0  0.334642  0  3.72994  0  0  0.343966  0  3.977303  0  0  0.353311  0  3.995776  0  0.537659  0  0.135116  0.33789  0  3.964591  0
C  C69  1  0.68829358  0.17669623  0.99508725  1  0  0.3346  0  3.729944  0  0  0.343947  0  3.977271  0  0  0.353291  0  3.995747  0  0.537681  0  0.135099  0.337868  0  3.964563  0
C  C70  1  0.81169822  0.67669587  0.49508812  1  0  0.334683  0  3.729903  0  0  0.344055  0  3.977194  0  0  0.353401  0  3.995669  0  0.537756  0  0.135113  0.337977  0  3.964483  0
C  C71  1  0.31169533  0.82330110  0.00491014  1  0  0.334626  0  3.729982  0  0  0.343942  0  3.977342  0  0  0.353288  0  3.995814  0  0.537619  0  0.135095  0.337861  0  3.964636  0
C  C72  1  0.15698985  0.18333255  0.52853757  1  0  -0.38151  0  3.692153  0  0  -0.464804  0  3.922845  0  0  -0.467713  0  3.930299  0  -0.094093  0  -0.236928  -0.462105  0  3.916382  0
C  C73  1  0.65698756  0.31666807  0.97146206  1  0  -0.381511  0  3.691982  0  0  -0.464788  0  3.922689  0  0  -0.467696  0  3.930146  0  -0.094224  0  -0.236892  -0.462086  0  3.91623  0
C  C74  1  0.84300814  0.81666968  0.47146231  1  0  -0.381628  0  3.692097  0  0  -0.464928  0  3.922764  0  0  -0.467835  0  3.930215  0  -0.093968  0  -0.236938  -0.462227  0  3.916305  0
C  C75  1  0.34301174  0.68333121  0.02853533  1  0  -0.381578  0  3.691861  0  0  -0.464801  0  3.922588  0  0  -0.467709  0  3.930042  0  -0.093839  0  -0.236915  -0.462102  0  3.916131  0
C  C76  1  0.27563223  0.71963285  0.44627392  1  0  -0.092341  0  3.731901  0  0  -0.115978  0  3.990528  0  0  -0.118276  0  4.012911  0  -0.07034  0  -0.078368  -0.114334  0  3.975407  0
C  C77  1  0.77562604  0.78037000  0.05372621  1  0  -0.092284  0  3.731804  0  0  -0.115975  0  3.990414  0  0  -0.118265  0  4.012789  0  -0.070352  0  -0.078419  -0.114323  0  3.975272  0
C  C78  1  0.72436836  0.28036840  0.55372534  1  0  -0.092271  0  3.731827  0  0  -0.115908  0  3.990467  0  0  -0.118195  0  4.012834  0  -0.070323  0  -0.078336  -0.114272  0  3.975363  0
C  C79  1  0.22436807  0.21963125  0.94627491  1  0  -0.092192  0  3.731812  0  0  -0.115839  0  3.990415  0  0  -0.118141  0  4.012803  0  -0.070358  0  -0.078332  -0.114191  0  3.97528  0
C  C80  1  0.38502540  0.61159989  0.60001432  1  0  0.141781  0  3.76012  0  0  0.135631  0  4.005164  0  0  0.140217  0  4.025569  0  0.437109  0  0.119329  0.132664  0  3.991366  0
C  C81  1  0.88502180  0.88840296  0.89998768  1  0  0.141742  0  3.760218  0  0  0.135538  0  4.005324  0  0  0.140122  0  4.025731  0  0.43708  0  0.119324  0.132567  0  3.991526  0
C  C82  1  0.61497520  0.38840233  0.39998619  1  0  0.141823  0  3.760171  0  0  0.135633  0  4.005224  0  0  0.140217  0  4.025631  0  0.437105  0  0.119335  0.132665  0  3.991425  0
C  C83  1  0.11497360  0.11159535  0.10001281  1  0  0.141903  0  3.76019  0  0  0.135675  0  4.005332  0  0  0.14026  0  4.025738  0  0.437118  0  0.11934  0.132704  0  3.991535  0
C  C84  1  0.41483404  0.74588094  0.58079905  1  0  0.008274  0  3.811369  0  0  0.0247  0  4.042516  0  0  0.021647  0  4.067784  0  0.033996  0  -0.008304  0.026411  0  4.025672  0
C  C85  1  0.91483434  0.75412093  0.91920294  1  0  0.00831  0  3.81138  0  0  0.024714  0  4.042551  0  0  0.021661  0  4.067821  0  0.033982  0  -0.008267  0.026424  0  4.025707  0
C  C86  1  0.58516526  0.25412030  0.41920145  1  0  0.008275  0  3.811418  0  0  0.02471  0  4.042543  0  0  0.021657  0  4.067812  0  0.033991  0  -0.008268  0.026422  0  4.025696  0
C  C87  1  0.08516626  0.24587738  0.08079879  1  0  0.0083  0  3.811465  0  0  0.024695  0  4.042672  0  0  0.021641  0  4.067942  0  0.033953  0  -0.008272  0.026406  0  4.025827  0
C  C88  1  0.50088080  0.82276850  0.64121002  1  0  -0.037404  0  3.699633  0  0  -0.059373  0  3.947357  0  0  -0.057028  0  3.964753  0  -0.02038  0  -0.066234  -0.060737  0  3.935903  0
C  C89  1  0.00087661  0.67723238  0.85879196  1  0  -0.037416  0  3.6995  0  0  -0.059283  0  3.947196  0  0  -0.056938  0  3.964593  0  -0.020445  0  -0.066238  -0.060646  0  3.935742  0
C  C90  1  0.49912109  0.17723372  0.35879048  1  0  -0.037425  0  3.699577  0  0  -0.059333  0  3.947264  0  0  -0.056988  0  3.964661  0  -0.02041  0  -0.066237  -0.060697  0  3.935813  0
C  C91  1  0.99912658  0.32276592  0.14120915  1  0  -0.037432  0  3.699572  0  0  -0.059336  0  3.94724  0  0  -0.056991  0  3.964637  0  -0.020438  0  -0.066193  -0.0607  0  3.935791  0
C  C92  1  0.55051123  0.76614497  0.71506804  1  0  -0.176244  0  3.691648  0  0  -0.192699  0  3.936684  0  0  -0.200331  0  3.958068  0  -0.106532  0  -0.088275  -0.187784  0  3.922427  0
C  C93  1  0.05050314  0.73385298  0.78493270  1  0  -0.176351  0  3.691653  0  0  -0.192821  0  3.936652  0  0  -0.200454  0  3.958036  0  -0.106389  0  -0.088267  -0.187906  0  3.922395  0
C  C94  1  0.44949976  0.23385530  0.28492997  1  0  -0.176215  0  3.691603  0  0  -0.192674  0  3.936622  0  0  -0.200307  0  3.958008  0  -0.106573  0  -0.088208  -0.187769  0  3.922361  0
C  C95  1  0.94950395  0.26614435  0.21506965  1  0  -0.176277  0  3.691469  0  0  -0.192729  0  3.936559  0  0  -0.200364  0  3.957945  0  -0.106655  0  -0.088262  -0.187829  0  3.922295  0
C  C96  1  0.51370009  0.63225625  0.72992239  1  0  0.331497  0  3.732827  0  0  0.340592  0  3.98008  0  0  0.349952  0  3.998244  0  0.577626  0  0.133774  0.334307  0  3.96757  0
C  C97  1  0.01369200  0.86774366  0.77007960  1  0  0.331463  0  3.732785  0  0  0.340585  0  3.979993  0  0  0.349945  0  3.998156  0  0.577531  0  0.133704  0.334298  0  3.967485  0
C  C98  1  0.48630700  0.36774598  0.27007687  1  0  0.331422  0  3.732816  0  0  0.340478  0  3.980129  0  0  0.349837  0  3.998298  0  0.577722  0  0.133662  0.334192  0  3.967622  0
C  C99  1  0.98630989  0.13225269  0.22992213  1  0  0.331574  0  3.732538  0  0  0.340547  0  3.979979  0  0  0.349905  0  3.998147  0  0.577693  0  0.133705  0.334261  0  3.967474  0
C  C100  1  0.56278897  0.56846576  0.81010848  1  0  -0.38225  0  3.684737  0  0  -0.464698  0  3.914922  0  0  -0.467652  0  3.921846  0  -0.10422  0  -0.236291  -0.462372  0  3.910111  0
C  C101  1  0.06278218  0.93153218  0.68989226  1  0  -0.38221  0  3.684669  0  0  -0.464665  0  3.914838  0  0  -0.467622  0  3.921763  0  -0.104091  0  -0.23627  -0.462337  0  3.91003  0
C  C102  1  0.43721682  0.43153548  0.18989140  1  0  -0.382208  0  3.684733  0  0  -0.464656  0  3.914925  0  0  -0.46761  0  3.921848  0  -0.104119  0  -0.23626  -0.462333  0  3.910114  0
C  C103  1  0.93721842  0.06846416  0.31010823  1  0  -0.382233  0  3.684704  0  0  -0.464651  0  3.914917  0  0  -0.467607  0  3.921842  0  -0.104036  0  -0.236282  -0.462327  0  3.910106  0
C  C104  1  0.35655959  0.79791417  0.50340665  1  0  -0.100655  0  3.757999  0  0  -0.123914  0  4.01457  0  0  -0.126822  0  4.036994  0  -0.036566  0  -0.084771  -0.121771  0  3.997889  0
C  C105  1  0.85655859  0.70208966  0.99659535  1  0  -0.100674  0  3.757968  0  0  -0.123939  0  4.014575  0  0  -0.126846  0  4.036995  0  -0.036507  0  -0.08477  -0.121796  0  3.997898  0
C  C106  1  0.64343971  0.20208805  0.49659448  1  0  -0.100693  0  3.75807  0  0  -0.123983  0  4.014646  0  0  -0.126889  0  4.037064  0  -0.036531  0  -0.084817  -0.121842  0  3.997963  0
C  C107  1  0.14344071  0.29791061  0.00340577  1  0  -0.100725  0  3.758042  0  0  -0.124004  0  4.01464  0  0  -0.126911  0  4.037065  0  -0.036524  0  -0.084808  -0.12186  0  3.997961  0
N  N108  1  0.26736353  0.40131893  0.56008772  1  0  -0.466409  0  3.120028  0  0  -0.426625  0  3.382677  0  0  -0.440336  0  3.397171  0  -1.255323  0  -0.373661  -0.417649  0  3.372851  0
N  N109  1  0.76735993  0.09868071  0.93991377  1  0  -0.46646  0  3.120164  0  0  -0.42672  0  3.382799  0  0  -0.440432  0  3.397292  0  -1.255402  0  -0.373683  -0.417745  0  3.372976  0
N  N110  1  0.73263577  0.59868329  0.43991278  1  0  -0.466422  0  3.1201  0  0  -0.426685  0  3.382704  0  0  -0.440398  0  3.397198  0  -1.255386  0  -0.373696  -0.417708  0  3.372879  0
N  N111  1  0.23263158  0.90131465  0.06008486  1  0  -0.466457  0  3.12023  0  0  -0.426693  0  3.382867  0  0  -0.440406  0  3.397363  0  -1.25542  0  -0.373715  -0.417714  0  3.373041  0
N  N112  1  0.43348441  0.55759028  0.67327047  1  0  -0.458632  0  3.13144  0  0  -0.415916  0  3.389584  0  0  -0.429604  0  3.40413  0  -1.2496  0  -0.372665  -0.40664  0  3.379673  0
N  N113  1  0.93347952  0.94241159  0.82673152  1  0  -0.458601  0  3.131464  0  0  -0.415888  0  3.389609  0  0  -0.429574  0  3.404153  0  -1.249593  0  -0.372651  -0.40661  0  3.379699  0
N  N114  1  0.56651878  0.44241293  0.32673065  1  0  -0.458635  0  3.131511  0  0  -0.4159  0  3.389655  0  0  -0.429587  0  3.404201  0  -1.24968  0  -0.372637  -0.406623  0  3.379745  0
N  N115  1  0.06651718  0.05758475  0.17326835  1  0  -0.458721  0  3.131408  0  0  -0.415963  0  3.389664  0  0  -0.429649  0  3.404208  0  -1.249666  0  -0.372668  -0.406687  0  3.379756  0
N  N116  1  0.03306963  0.33187394  0.77723052  1  0  0.684858  0  4.200542  0  0  0.718258  0  4.492818  0  0  0.745738  0  4.497803  0  0.800827  0  0.080355  0.701541  0  4.488835  0
N  N117  1  0.53307123  0.16812570  0.72276911  1  0  0.684935  0  4.200382  0  0  0.718359  0  4.492632  0  0  0.745837  0  4.497613  0  0.800836  0  0.08039  0.701692  0  4.48858  0
N  N118  1  0.96692966  0.66812730  0.22276874  1  0  0.684972  0  4.200322  0  0  0.718386  0  4.492615  0  0  0.745865  0  4.497595  0  0.800844  0  0.080397  0.701713  0  4.48857  0
N  N119  1  0.46692807  0.83187653  0.27722953  1  0  0.684959  0  4.200428  0  0  0.71836  0  4.492698  0  0  0.745838  0  4.497685  0  0.80082  0  0.080364  0.701681  0  4.488659  0
O  O120  1  0.15070294  0.41501628  0.76085694  1  0  -0.516485  0  1.79408  0  0  -0.507596  0  2.027704  0  0  -0.520936  0  2.018991  0  -0.579179  0  -0.236491  -0.499075  0  2.033653  0
O  O121  1  0.65070583  0.08498238  0.73914082  1  0  -0.516559  0  1.794008  0  0  -0.507666  0  2.027619  0  0  -0.521005  0  2.018905  0  -0.579222  0  -0.236541  -0.499151  0  2.033527  0
O  O122  1  0.84929636  0.58498399  0.23914169  1  0  -0.516496  0  1.794019  0  0  -0.507619  0  2.027643  0  0  -0.520956  0  2.018925  0  -0.579159  0  -0.236485  -0.499112  0  2.033573  0
O  O123  1  0.34929347  0.91501886  0.26085782  1  0  -0.516561  0  1.794021  0  0  -0.507685  0  2.027646  0  0  -0.521016  0  2.018913  0  -0.579252  0  -0.236527  -0.499165  0  2.033559  0
O  O124  1  0.02995280  0.22186853  0.73951226  1  0  -0.526224  0  1.780099  0  0  -0.519285  0  2.013543  0  0  -0.532529  0  2.005019  0  -0.580748  0  -0.215746  -0.510647  0  2.019221  0
O  O125  1  0.52995569  0.27812915  0.76048860  1  0  -0.526202  0  1.780081  0  0  -0.519266  0  2.013517  0  0  -0.53251  0  2.004996  0  -0.580719  0  -0.215732  -0.510644  0  2.019173  0
O  O126  1  0.97004780  0.77813076  0.26048947  1  0  -0.526244  0  1.78002  0  0  -0.519298  0  2.013434  0  0  -0.532543  0  2.004909  0  -0.58076  0  -0.215765  -0.510675  0  2.019096  0
O  O127  1  0.47004360  0.72187209  0.23950942  1  0  -0.526203  0  1.780067  0  0  -0.519265  0  2.013505  0  0  -0.532508  0  2.004982  0  -0.58071  0  -0.215737  -0.51064  0  2.019166  0
O  O128  1  0.91890701  0.35599264  0.83133822  1  0  -0.480456  0  1.788836  0  0  -0.471436  0  2.015931  0  0  -0.485054  0  2.009875  0  -0.553694  0  -0.18253  -0.463024  0  2.019969  0
O  O129  1  0.41890541  0.14401092  0.66866142  1  0  -0.480477  0  1.788776  0  0  -0.471489  0  2.015891  0  0  -0.485106  0  2.009832  0  -0.553691  0  -0.182546  -0.463094  0  2.019909  0
O  O130  1  0.08109229  0.64401154  0.16865980  1  0  -0.480504  0  1.788786  0  0  -0.471513  0  2.015892  0  0  -0.485132  0  2.009832  0  -0.553729  0  -0.182568  -0.463118  0  2.019913  0
O  O131  1  0.58109389  0.85599130  0.33133722  1  0  -0.480484  0  1.788833  0  0  -0.471474  0  2.015937  0  0  -0.485094  0  2.009879  0  -0.553652  0  -0.182512  -0.463075  0  2.019958  0
