# generated using pymatgen
data_AlP3H20(C6O5)2
_symmetry_space_group_name_H-M   'P 1'
_cell_length_a   12.30451051
_cell_length_b   20.76464421
_cell_length_c   20.76430616
_cell_angle_alpha   116.19392108
_cell_angle_beta   101.38271116
_cell_angle_gamma   101.39478143
_symmetry_Int_Tables_number   1
_chemical_formula_structural   AlP3H20(C6O5)2
_chemical_formula_sum   'Al6 P18 H120 C72 O60'
_cell_volume   4415.64454532
_cell_formula_units_Z   6
loop_
 _symmetry_equiv_pos_site_id
 _symmetry_equiv_pos_as_xyz
  1  'x, y, z'
loop_
 _atom_site_type_symbol
 _atom_site_label
 _atom_site_symmetry_multiplicity
 _atom_site_fract_x
 _atom_site_fract_y
 _atom_site_fract_z
 _atom_site_occupancy
 _atom_site_pbe_bader_charge
 _atom_site_pbe_bader_spin_density
 _atom_site_pbe_cm5_charge
 _atom_site_pbe_ddec_charge
 _atom_site_pbe_ddec_spin_density
 _atom_site_pbe_ddec_sum_bond_order
 _atom_site_pbe_magmom
Al  Al0  1  0.72477513  0.26818788  0.66247793  1  2.52976  0  0.431673  1.788611  0  2.394764  0
Al  Al1  1  0.45655684  0.39428534  0.73183878  1  2.525733  0  0.431437  1.787378  0  2.397477  0
Al  Al2  1  0.06232207  0.33755539  0.60578273  1  2.527774  0  0.431052  1.788353  0  2.394965  0
Al  Al3  1  0.27522681  0.73181306  0.33752255  1  2.529768  0  0.431719  1.788583  0  2.394702  0
Al  Al4  1  0.54344370  0.60571446  0.26816152  1  2.525722  0  0.43143  1.787388  0  2.397486  0
Al  Al5  1  0.93767764  0.66244442  0.39421699  1  2.527688  0  0.431042  1.788354  0  2.394971  0
P  P6  1  0.44307816  0.24398963  0.58169328  1  3.28544  0  0.423156  1.399624  0  5.15916  0
P  P7  1  0.19909772  0.33766412  0.75609543  1  3.285485  0  0.425108  1.404653  0  5.153495  0
P  P8  1  0.86140459  0.41837226  0.66234344  1  3.283717  0  0.424491  1.402858  0  5.153955  0
P  P9  1  0.55691824  0.75601017  0.41830653  1  3.28549  0  0.423119  1.399565  0  5.159151  0
P  P10  1  0.80090393  0.66233624  0.24390477  1  3.285487  0  0.42508  1.404567  0  5.153514  0
P  P11  1  0.13859567  0.58162697  0.33765706  1  3.283786  0  0.424491  1.402782  0  5.153943  0
P  P12  1  0.39566576  0.91049287  0.39164616  1  3.308082  0  0.409414  1.369038  0  5.190483  0
P  P13  1  0.48516166  0.48110947  0.08949960  1  3.270967  0  0.408991  1.367429  0  5.193779  0
P  P14  1  0.00399182  0.60834239  0.51881862  1  3.299703  0  0.408803  1.36759  0  5.191512  0
P  P15  1  0.60433421  0.08950580  0.60835309  1  3.30794  0  0.409478  1.369101  0  5.190391  0
P  P16  1  0.51483888  0.51889033  0.91050022  1  3.271035  0  0.409013  1.367507  0  5.193817  0
P  P17  1  0.99600678  0.39165684  0.48118071  1  3.299628  0  0.408805  1.367577  0  5.191638  0
P  P18  1  0.82974546  0.19218601  0.52420120  1  3.29152  0  0.427741  1.425318  0  5.153442  0
P  P19  1  0.63745887  0.33199452  0.80782360  1  3.289037  0  0.4275  1.425033  0  5.156201  0
P  P20  1  0.30547273  0.47583307  0.66803575  1  3.291742  0  0.427427  1.425887  0  5.153691  0
P  P21  1  0.17025731  0.80781492  0.47579890  1  3.291708  0  0.427707  1.42524  0  5.153487  0
P  P22  1  0.36254115  0.66800755  0.19217812  1  3.288972  0  0.427521  1.425102  0  5.156198  0
P  P23  1  0.69452864  0.52416673  0.33196465  1  3.291747  0  0.427396  1.425749  0  5.153767  0
H  H24  1  0.90372646  0.32116318  0.77196981  1  0.62665  0  0.353067  0.428124  0  0.837681  0
H  H25  1  0.58258968  0.45083651  0.67890882  1  0.622335  0  0.351995  0.427169  0  0.838071  0
H  H26  1  0.13183539  0.22809598  0.54923766  1  0.667392  0  0.352309  0.427461  0  0.83783  0
H  H27  1  0.09627629  0.67883605  0.22803001  1  0.626635  0  0.353049  0.428108  0  0.837743  0
H  H28  1  0.41740838  0.54916329  0.32108974  1  0.622585  0  0.351999  0.427168  0  0.838081  0
H  H29  1  0.86816350  0.77190382  0.45076244  1  0.667397  0  0.35232  0.42749  0  0.837789  0
H  H30  1  0.96126556  0.29933420  0.70543169  1  0.664973  0  0.321024  0.413238  0  0.913918  0
H  H31  1  0.66189560  0.40609817  0.70071491  1  0.667506  0  0.322637  0.416936  0  0.908806  0
H  H32  1  0.25587367  0.29465389  0.59398783  1  0.661366  0  0.322293  0.415092  0  0.911127  0
H  H33  1  0.03873526  0.70066617  0.29456793  1  0.664986  0  0.321005  0.413208  0  0.913963  0
H  H34  1  0.33810357  0.59390220  0.29928500  1  0.667499  0  0.322619  0.416882  0  0.90889  0
H  H35  1  0.74412659  0.70534535  0.40601170  1  0.661371  0  0.322311  0.41512  0  0.911082  0
H  H36  1  0.41189211  0.13250187  0.57514760  1  0.673662  0  0.315903  0.40742  0  0.927421  0
H  H37  1  0.27948109  0.44262997  0.86757961  1  0.671902  0  0.315913  0.407398  0  0.927438  0
H  H38  1  0.83685835  0.42492543  0.55739030  1  0.672099  0  0.316287  0.407668  0  0.927401  0
H  H39  1  0.58810761  0.86749793  0.42485212  1  0.673663  0  0.315898  0.407417  0  0.927421  0
H  H40  1  0.72051891  0.55737040  0.13242087  1  0.6719  0  0.315924  0.407397  0  0.927456  0
H  H41  1  0.16314302  0.57507437  0.44260962  1  0.672107  0  0.316289  0.407672  0  0.927381  0
H  H42  1  0.40299449  0.00461133  0.50702694  1  0.667951  0  0.312049  0.400518  0  0.944095  0
H  H43  1  0.39841141  0.50245142  0.99542267  1  0.671859  0  0.312479  0.400912  0  0.943768  0
H  H44  1  0.89594418  0.49291839  0.49753409  1  0.677485  0  0.312496  0.400966  0  0.94355  0
H  H45  1  0.59700827  0.99538961  0.49297364  1  0.667987  0  0.312043  0.400488  0  0.94415  0
H  H46  1  0.60158942  0.49754895  0.00457791  1  0.671867  0  0.312505  0.400954  0  0.943704  0
H  H47  1  0.10405414  0.50708027  0.50246448  1  0.677477  0  0.312473  0.400914  0  0.943627  0
H  H48  1  0.76378374  0.08961418  0.53095565  1  0.666315  0  0.316929  0.400943  0  0.933783  0
H  H49  1  0.67411541  0.44135080  0.91033532  1  0.658752  0  0.316205  0.400047  0  0.935059  0
H  H50  1  0.23277701  0.46904055  0.55870126  1  0.673717  0  0.316503  0.399927  0  0.935015  0
H  H51  1  0.23621708  0.91038619  0.46904493  1  0.666315  0  0.31694  0.400984  0  0.933734  0
H  H52  1  0.32588570  0.55865014  0.08966651  1  0.658782  0  0.316212  0.40008  0  0.935013  0
H  H53  1  0.76722324  0.53095868  0.44129876  1  0.673709  0  0.316525  0.399938  0  0.935  0
H  H54  1  0.30477789  0.20988495  0.46538388  1  0.032456  0  0.108557  0.14691  0  1.005503  0
H  H55  1  0.09477954  0.25543467  0.79018669  1  0.0696  0  0.108794  0.147958  0  1.005923  0
H  H56  1  0.83923345  0.53465180  0.74451607  1  0.061796  0  0.109036  0.147887  0  1.006317  0
H  H57  1  0.69522211  0.79011542  0.53461612  1  0.032449  0  0.108562  0.146938  0  1.005486  0
H  H58  1  0.90521934  0.74456513  0.20981341  1  0.069647  0  0.108792  0.147971  0  1.005895  0
H  H59  1  0.16076791  0.46534800  0.25548433  1  0.061789  0  0.109051  0.147912  0  1.006336  0
H  H60  1  0.43376489  0.27977945  0.48563665  1  0.080876  0  0.113128  0.158015  0  0.989158  0
H  H61  1  0.15387370  0.20580345  0.72028893  1  0.079488  0  0.112796  0.157886  0  0.990426  0
H  H62  1  0.94794107  0.51443168  0.79420818  1  0.084804  0  0.113345  0.158924  0  0.988032  0
H  H63  1  0.56623566  0.72022035  0.51436365  1  0.08087  0  0.113137  0.158037  0  0.989139  0
H  H64  1  0.84612546  0.79419692  0.27971146  1  0.079474  0  0.112814  0.157912  0  0.990438  0
H  H65  1  0.05205975  0.48556869  0.20579192  1  0.084731  0  0.113349  0.158938  0  0.988018  0
H  H66  1  0.22449169  0.10557221  0.42151768  1  0.040906  0  0.088147  0.12264  0  1.030457  0
H  H67  1  0.11885944  0.31595584  0.89454947  1  0.016357  0  0.088036  0.123016  0  1.029237  0
H  H68  1  0.80282136  0.57847594  0.68399863  1  0.037659  0  0.087575  0.122429  0  1.029858  0
H  H69  1  0.77550802  0.89442760  0.57848253  1  0.040901  0  0.088149  0.122635  0  1.030469  0
H  H70  1  0.88113999  0.68404339  0.10545045  1  0.016512  0  0.088031  0.122998  0  1.029243  0
H  H71  1  0.19717862  0.42152273  0.31600014  1  0.037509  0  0.087578  0.12246  0  1.029841  0
H  H72  1  0.24529672  0.02353504  0.41987533  1  0.05476  0  0.092971  0.137593  0  1.016929  0
H  H73  1  0.22180620  0.39632308  0.97653211  1  0.050924  0  0.093332  0.138376  0  1.016227  0
H  H74  1  0.82540772  0.58010651  0.60361755  1  0.053302  0  0.092808  0.137867  0  1.016104  0
H  H75  1  0.75470271  0.97646419  0.58012459  1  0.054779  0  0.092941  0.137565  0  1.016966  0
H  H76  1  0.77819268  0.60367672  0.02346800  1  0.050956  0  0.093328  0.138359  0  1.016244  0
H  H77  1  0.17459117  0.41989329  0.39638159  1  0.053318  0  0.092811  0.137873  0  1.016135  0
H  H78  1  0.20366740  0.02505843  0.33413267  1  0.068135  0  0.089102  0.118695  0  0.998731  0
H  H79  1  0.17848125  0.30910477  0.97508822  1  0.038479  0  0.088802  0.118781  0  0.999606  0
H  H80  1  0.86935622  0.66586752  0.69084373  1  0.032519  0  0.089128  0.119104  0  0.998692  0
H  H81  1  0.79633343  0.97494194  0.66586792  1  0.068126  0  0.089128  0.11874  0  0.998727  0
H  H82  1  0.82151735  0.69089446  0.02491208  1  0.038506  0  0.088823  0.118806  0  0.999591  0
H  H83  1  0.13064292  0.33413115  0.30915542  1  0.032507  0  0.08911  0.119106  0  0.998683  0
H  H84  1  0.40187708  0.91677353  0.28102734  1  0.077758  0  0.109414  0.147155  0  0.996859  0
H  H85  1  0.48505049  0.36423152  0.08328153  1  0.052949  0  0.109632  0.14783  0  0.997435  0
H  H86  1  0.12076399  0.71893599  0.63568046  1  0.051156  0  0.109911  0.147574  0  0.997219  0
H  H87  1  0.59812264  0.08322627  0.71897286  1  0.077752  0  0.109432  0.147193  0  0.996886  0
H  H88  1  0.51494894  0.63576772  0.91671887  1  0.052961  0  0.109642  0.147841  0  0.997435  0
H  H89  1  0.87923544  0.28106325  0.36431849  1  0.051144  0  0.109915  0.147561  0  0.997254  0
H  H90  1  0.28158516  0.93874226  0.30819590  1  0.074135  0  0.113832  0.156182  0  0.985855  0
H  H91  1  0.34280580  0.36944578  0.06135785  1  0.069989  0  0.114133  0.156502  0  0.986739  0
H  H92  1  0.97330903  0.69180931  0.63049985  1  0.065775  0  0.113534  0.155002  0  0.986237  0
H  H93  1  0.71841538  0.06125754  0.69180440  1  0.074131  0  0.113831  0.156192  0  0.985857  0
H  H94  1  0.65719391  0.63055402  0.93864283  1  0.070002  0  0.114135  0.156522  0  0.986754  0
H  H95  1  0.02669040  0.30818992  0.36949958  1  0.065771  0  0.113511  0.15498  0  0.986236  0
H  H96  1  0.57204526  0.94513785  0.31407382  1  0.040107  0  0.086715  0.117575  0  1.054975  0
H  H97  1  0.62691907  0.36905459  0.05486376  1  0.021539  0  0.087019  0.118658  0  1.053692  0
H  H98  1  0.25793526  0.68589011  0.63104756  1  0.026771  0  0.086839  0.118197  0  1.054789  0
H  H99  1  0.42795557  0.05486252  0.68592484  1  0.040083  0  0.086706  0.117543  0  1.054954  0
H  H100  1  0.37308175  0.63094578  0.94513682  1  0.021552  0  0.087011  0.118625  0  1.053742  0
H  H101  1  0.74206334  0.31410912  0.36895130  1  0.026211  0  0.086841  0.118182  0  1.054827  0
H  H102  1  0.70246006  0.01229686  0.38554218  1  0.057995  0  0.093281  0.134437  0  1.007673  0
H  H103  1  0.69000529  0.37332210  0.98760470  1  0.064801  0  0.093096  0.134093  0  1.007364  0
H  H104  1  0.31677527  0.61436988  0.62675719  1  0.060835  0  0.093974  0.135684  0  1.006662  0
H  H105  1  0.29754077  0.98770351  0.61445647  1  0.057993  0  0.093273  0.134382  0  1.007651  0
H  H106  1  0.30999471  0.62667826  0.01239578  1  0.064803  0  0.093118  0.134101  0  1.007343  0
H  H107  1  0.68322499  0.38562935  0.37324186  1  0.060873  0  0.093986  0.13571  0  1.006654  0
H  H108  1  0.65935680  0.01244927  0.29906700  1  0.030417  0  0.089483  0.121574  0  0.993609  0
H  H109  1  0.64698153  0.28674469  0.98757893  1  0.030942  0  0.089048  0.120878  0  0.992664  0
H  H110  1  0.36020367  0.70086725  0.71336800  1  0.030116  0  0.089625  0.121658  0  0.994122  0
H  H111  1  0.34064265  0.98755167  0.70093174  1  0.030421  0  0.089485  0.121587  0  0.993627  0
H  H112  1  0.35301736  0.71325511  0.01242069  1  0.030931  0  0.08904  0.12086  0  0.992645  0
H  H113  1  0.63979576  0.29913199  0.28663096  1  0.030094  0  0.089621  0.121639  0  0.994127  0
H  H114  1  0.78198248  0.21729330  0.42254667  1  0.082278  0  0.107076  0.142652  0  1.020024  0
H  H115  1  0.56458632  0.20524917  0.78270750  1  0.059301  0  0.107309  0.142703  0  1.020352  0
H  H116  1  0.35925041  0.57743225  0.79477533  1  0.044945  0  0.107527  0.143458  0  1.019146  0
H  H117  1  0.21801778  0.78270593  0.57745335  1  0.082199  0  0.107085  0.142662  0  1.019983  0
H  H118  1  0.43541313  0.79475176  0.21729269  1  0.059272  0  0.10731  0.142724  0  1.020294  0
H  H119  1  0.64074904  0.42256869  0.20522438  1  0.044942  0  0.107498  0.143424  0  1.019093  0
H  H120  1  0.78613404  0.12406392  0.38974527  1  0.061993  0  0.111538  0.152143  0  0.993884  0
H  H121  1  0.66195379  0.26563745  0.87592876  1  0.067056  0  0.110653  0.150834  0  0.99531  0
H  H122  1  0.39628650  0.61030790  0.73440834  1  0.060185  0  0.110373  0.151179  0  0.995052  0
H  H123  1  0.21386650  0.87593588  0.61025503  1  0.06199  0  0.11154  0.152153  0  0.993891  0
H  H124  1  0.33804592  0.73436235  0.12407144  1  0.067067  0  0.110666  0.150834  0  0.995329  0
H  H125  1  0.60371267  0.38969247  0.26559109  1  0.060175  0  0.110417  0.151241  0  0.995067  0
H  H126  1  0.70715308  0.28780888  0.46315516  1  0.015169  0  0.089211  0.119224  0  1.043348  0
H  H127  1  0.41911182  0.17514671  0.71223982  1  0.021831  0  0.089281  0.119717  0  1.042847  0
H  H128  1  0.24373489  0.53687863  0.82476830  1  0.026331  0  0.0892  0.118908  0  1.043133  0
H  H129  1  0.29284663  0.71219092  0.53684456  1  0.015167  0  0.089217  0.119244  0  1.043329  0
H  H130  1  0.58088901  0.82485365  0.28776077  1  0.02185  0  0.089279  0.119716  0  1.042833  0
H  H131  1  0.75626565  0.46312117  0.17523056  1  0.026356  0  0.08921  0.118954  0  1.043083  0
H  H132  1  0.63003182  0.30790090  0.52781157  1  0.062932  0  0.098795  0.139713  0  1.032304  0
H  H133  1  0.32195136  0.21971626  0.69212385  1  0.074083  0  0.098772  0.140048  0  1.031455  0
H  H134  1  0.10195531  0.47224352  0.78016725  1  0.089728  0  0.099015  0.140445  0  1.031065  0
H  H135  1  0.36996789  0.69209890  0.47218863  1  0.062938  0  0.098788  0.139711  0  1.032358  0
H  H136  1  0.67804863  0.78028411  0.30787616  1  0.074103  0  0.098768  0.140045  0  1.031472  0
H  H137  1  0.89804412  0.52775571  0.21983218  1  0.089744  0  0.09902  0.140456  0  1.031081  0
H  H138  1  0.56648156  0.29450569  0.43671963  1  0.025138  0  0.090899  0.124445  0  0.986124  0
H  H139  1  0.27175809  0.14208140  0.70561058  1  0.017893  0  0.091352  0.12525  0  0.986034  0
H  H140  1  0.12941595  0.56332645  0.85782182  1  0.032567  0  0.091367  0.125279  0  0.986426  0
H  H141  1  0.43351815  0.70549411  0.56328057  1  0.025173  0  0.090909  0.12446  0  0.986094  0
H  H142  1  0.72824219  0.85791954  0.29438971  1  0.01789  0  0.091341  0.12524  0  0.985997  0
H  H143  1  0.87058376  0.43667335  0.14217742  1  0.032546  0  0.091383  0.125296  0  0.986464  0
C  C144  1  0.44747210  0.16573720  0.43677761  1  -0.088306  0  -0.019686  0.026373  0  3.950982  0
C  C145  1  0.28159692  0.27093186  0.83432629  1  -0.05295  0  -0.018425  0.028271  0  3.948997  0
C  C146  1  0.01056699  0.56329292  0.72901697  1  -0.016492  0  -0.017631  0.028175  0  3.949421  0
C  C147  1  0.55252789  0.83426317  0.56322239  1  -0.088311  0  -0.019698  0.026389  0  3.95103  0
C  C148  1  0.71840279  0.72906794  0.16567343  1  -0.052902  0  -0.018472  0.028264  0  3.949048  0
C  C149  1  0.98943189  0.43670688  0.27098265  1  -0.01644  0  -0.017643  0.028106  0  3.949519  0
C  C150  1  0.38572965  0.08764612  0.40090702  1  0.035994  0  -0.016591  0.054974  0  3.939988  0
C  C151  1  0.29796546  0.31316330  0.91241699  1  0.005633  0  -0.016225  0.056147  0  3.938414  0
C  C152  1  0.98472173  0.59913942  0.68676435  1  -0.01702  0  -0.016615  0.055569  0  3.936278  0
C  C153  1  0.61426978  0.91235311  0.59909242  1  0.035975  0  -0.016619  0.054934  0  3.940024  0
C  C154  1  0.70203342  0.68683650  0.08758312  1  0.005556  0  -0.016229  0.056099  0  3.938492  0
C  C155  1  0.01527576  0.40085925  0.31323412  1  -0.017103  0  -0.016575  0.055604  0  3.93642  0
C  C156  1  0.44312635  0.03460471  0.36816909  1  -0.025805  0  -0.024256  0.019634  0  3.957434  0
C  C157  1  0.40841662  0.33349901  0.96544411  1  -0.030388  0  -0.023014  0.022453  0  3.952587  0
C  C158  1  0.07486628  0.63184189  0.66643544  1  -0.042734  0  -0.023758  0.019884  0  3.956241  0
C  C159  1  0.55687419  0.96539509  0.63183121  1  -0.02582  0  -0.024245  0.01968  0  3.957423  0
C  C160  1  0.59158420  0.66650136  0.03455696  1  -0.030328  0  -0.022997  0.022524  0  3.95259  0
C  C161  1  0.92513232  0.36815735  0.33356390  1  -0.042683  0  -0.02375  0.019704  0  3.956204  0
C  C162  1  0.56182078  0.05937227  0.37398996  1  -0.014077  0  -0.017552  0.054848  0  3.942541  0
C  C163  1  0.50234909  0.31459441  0.94065344  1  -0.062873  0  -0.018261  0.052297  0  3.941016  0
C  C164  1  0.18772025  0.62601525  0.68539884  1  0.010779  0  -0.017007  0.055482  0  3.93974  0
C  C165  1  0.43817893  0.94062753  0.62600928  1  -0.014033  0  -0.017579  0.054823  0  3.942439  0
C  C166  1  0.49765008  0.68540596  0.05934647  1  -0.06287  0  -0.018258  0.0523  0  3.940975  0
C  C167  1  0.81227752  0.37398399  0.31459992  1  0.010484  0  -0.016963  0.056175  0  3.938922  0
C  C168  1  0.62181619  0.13794047  0.40956185  1  0.00014  0  -0.018479  0.030694  0  3.954186  0
C  C169  1  0.48374200  0.27155074  0.86208246  1  0.026862  0  -0.020196  0.028122  0  3.956881  0
C  C170  1  0.21211145  0.59046949  0.72843827  1  -0.015295  0  -0.020258  0.027582  0  3.956328  0
C  C171  1  0.37818324  0.86205877  0.59043759  1  0.000128  0  -0.018471  0.030719  0  3.954137  0
C  C172  1  0.51625773  0.72845077  0.13791849  1  0.026817  0  -0.020207  0.028062  0  3.956873  0
C  C173  1  0.78788798  0.40952974  0.27156069  1  -0.015274  0  -0.02025  0.027451  0  3.956188  0
C  C174  1  0.56298267  0.19073383  0.43705591  1  0.013853  0  -0.010261  0.072693  0  3.936616  0
C  C175  1  0.37208699  0.24619650  0.80931225  1  0.033685  0  -0.00864  0.075119  0  3.934572  0
C  C176  1  0.12576434  0.56299885  0.75374939  1  -0.002747  0  -0.009024  0.075051  0  3.936539  0
C  C177  1  0.43701732  0.80926654  0.56294457  1  0.013852  0  -0.010254  0.072636  0  3.936614  0
C  C178  1  0.62791301  0.75380386  0.19068823  1  0.033494  0  -0.008622  0.075109  0  3.934498  0
C  C179  1  0.87423537  0.43700095  0.24624985  1  -0.002766  0  -0.00907  0.074996  0  3.936649  0
C  C180  1  0.40069958  0.22601552  0.48427877  1  -0.456297  0  -0.160434  -0.496372  0  3.943315  0
C  C181  1  0.17458261  0.25819673  0.77405370  1  -0.484604  0  -0.161062  -0.499468  0  3.946227  0
C  C182  1  0.91628353  0.51578282  0.74179326  1  -0.480941  0  -0.161574  -0.499348  0  3.943696  0
C  C183  1  0.59930125  0.77398484  0.51572181  1  -0.456279  0  -0.160458  -0.496447  0  3.943341  0
C  C184  1  0.82541738  0.74180364  0.22594727  1  -0.484678  0  -0.161103  -0.499555  0  3.946258  0
C  C185  1  0.08371590  0.48421641  0.25820618  1  -0.480845  0  -0.161552  -0.499309  0  3.943673  0
C  C186  1  0.25879200  0.05939697  0.39420179  1  -0.110146  0  -0.245421  -0.399612  0  3.986705  0
C  C187  1  0.19932514  0.33477639  0.94069746  1  -0.06568  0  -0.246552  -0.40285  0  3.987663  0
C  C188  1  0.86447687  0.60580594  0.66515935  1  -0.074137  0  -0.245545  -0.401273  0  3.984909  0
C  C189  1  0.74120854  0.94060283  0.60579851  1  -0.110153  0  -0.245387  -0.3996  0  3.986765  0
C  C190  1  0.80067429  0.66522284  0.05930246  1  -0.065885  0  -0.246539  -0.402804  0  3.987594  0
C  C191  1  0.13552202  0.39419386  0.33484027  1  -0.073966  0  -0.245572  -0.40137  0  3.984987  0
C  C192  1  0.37639787  0.95076401  0.32988251  1  -0.518915  0  -0.160391  -0.494448  0  3.962594  0
C  C193  1  0.42557073  0.37908378  0.04928737  1  -0.453774  0  -0.160985  -0.495907  0  3.965549  0
C  C194  1  0.04643111  0.67010451  0.62085431  1  -0.483322  0  -0.160779  -0.493144  0  3.964088  0
C  C195  1  0.62360184  0.04923579  0.67011769  1  -0.518835  0  -0.160421  -0.494552  0  3.962709  0
C  C196  1  0.57442899  0.62091602  0.95071283  1  -0.453773  0  -0.160989  -0.495944  0  3.965565  0
C  C197  1  0.95356832  0.32989472  0.37914513  1  -0.483204  0  -0.160789  -0.493155  0  3.964209  0
C  C198  1  0.62643817  0.00435550  0.34149214  1  -0.088352  0  -0.244838  -0.401299  0  3.986283  0
C  C199  1  0.62204006  0.33721527  0.99563693  1  -0.065051  0  -0.244362  -0.400239  0  3.981733  0
C  C200  1  0.28485930  0.65846826  0.66286027  1  -0.071129  0  -0.246033  -0.403605  0  3.98492  0
C  C201  1  0.37356154  0.99564430  0.65850710  1  -0.088344  0  -0.244809  -0.401214  0  3.986168  0
C  C202  1  0.37795994  0.66278510  0.00436356  1  -0.06506  0  -0.244369  -0.400184  0  3.981772  0
C  C203  1  0.71514096  0.34153098  0.33713878  1  -0.070298  0  -0.246051  -0.403816  0  3.984781  0
C  C204  1  0.75292697  0.16636233  0.42692222  1  -0.487757  0  -0.160949  -0.498251  0  3.940311  0
C  C205  1  0.58644406  0.26053508  0.83365258  1  -0.472964  0  -0.160248  -0.496477  0  3.944114  0
C  C206  1  0.32586752  0.57310141  0.73948880  1  -0.446934  0  -0.160393  -0.49845  0  3.942594  0
C  C207  1  0.24707248  0.83363860  0.57307797  1  -0.487678  0  -0.160959  -0.498257  0  3.940257  0
C  C208  1  0.41355705  0.73946586  0.16634829  1  -0.472995  0  -0.160253  -0.496486  0  3.944099  0
C  C209  1  0.67413302  0.42689839  0.26051101  1  -0.44697  0  -0.160423  -0.498502  0  3.942636  0
C  C210  1  0.61978811  0.27396814  0.46774940  1  -0.041726  0  -0.244348  -0.39928  0  3.966627  0
C  C211  1  0.34563120  0.19361489  0.72609028  1  -0.048745  0  -0.245273  -0.401475  0  3.966583  0
C  C212  1  0.15178998  0.53229562  0.80629631  1  -0.086929  0  -0.245689  -0.401246  0  3.966924  0
C  C213  1  0.38021132  0.72603109  0.53224956  1  -0.04176  0  -0.244355  -0.399297  0  3.966499  0
C  C214  1  0.65436908  0.80638604  0.27391001  1  -0.048578  0  -0.24527  -0.401445  0  3.966468  0
C  C215  1  0.84821028  0.46770362  0.19370274  1  -0.086943  0  -0.245657  -0.401246  0  3.966991  0
O  O216  1  0.88979602  0.28509709  0.71898214  1  -1.305668  0  -0.493091  -0.778238  0  2.115084  0
O  O217  1  0.60473034  0.43392346  0.71498639  1  -1.303586  0  -0.493437  -0.780778  0  2.112426  0
O  O218  1  0.17088245  0.28109171  0.56617767  1  -1.341649  0  -0.49346  -0.77943  0  2.113874  0
O  O219  1  0.11020452  0.71490271  0.28101719  1  -1.305678  0  -0.493051  -0.778205  0  2.115178  0
O  O220  1  0.39526965  0.56607690  0.28501409  1  -1.303836  0  -0.493433  -0.780743  0  2.112474  0
O  O221  1  0.82911781  0.71890753  0.43382186  1  -1.34166  0  -0.493479  -0.77947  0  2.113822  0
O  O222  1  0.36748786  0.16915278  0.57504455  1  -1.437641  0  -0.382549  -0.665875  0  2.222364  0
O  O223  1  0.19843504  0.40584140  0.83097412  1  -1.434919  0  -0.382708  -0.667215  0  2.221801  0
O  O224  1  0.79257625  0.42509386  0.59418177  1  -1.432876  0  -0.382592  -0.666559  0  2.22248  0
O  O225  1  0.63251157  0.83084645  0.42495441  1  -1.437632  0  -0.382553  -0.665904  0  2.222312  0
O  O226  1  0.80156385  0.59415840  0.16902598  1  -1.434905  0  -0.382684  -0.667167  0  2.22184  0
O  O227  1  0.20742375  0.57490651  0.40581775  1  -1.432985  0  -0.382588  -0.666537  0  2.222583  0
O  O228  1  0.57278551  0.25868059  0.61316805  1  -1.540293  0  -0.289288  -0.825563  0  2.39178  0
O  O229  1  0.31409141  0.35439918  0.74135676  1  -1.544517  0  -0.289367  -0.825617  0  2.390311  0
O  O230  1  0.95965691  0.38690847  0.64560224  1  -1.547084  0  -0.289507  -0.826163  0  2.389253  0
O  O231  1  0.42721612  0.74131808  0.38683236  1  -1.540387  0  -0.289231  -0.825365  0  2.391773  0
O  O232  1  0.68590858  0.64560119  0.25864468  1  -1.544496  0  -0.289382  -0.825603  0  2.390299  0
O  O233  1  0.04034197  0.61309133  0.35439834  1  -1.547068  0  -0.289535  -0.826175  0  2.389243  0
O  O234  1  0.39997569  0.30896597  0.62834398  1  -1.523876  0  -0.29997  -0.824284  0  2.346003  0
O  O235  1  0.09103469  0.31940540  0.69115417  1  -1.525149  0  -0.301345  -0.827049  0  2.343882  0
O  O236  1  0.77157782  0.37168351  0.68060710  1  -1.524398  0  -0.301095  -0.827166  0  2.344559  0
O  O237  1  0.60002485  0.69103383  0.37165680  1  -1.523874  0  -0.3  -0.824317  0  2.345949  0
O  O238  1  0.90896668  0.68059440  0.30884574  1  -1.525165  0  -0.301362  -0.827015  0  2.343858  0
O  O239  1  0.22842135  0.62831686  0.31939281  1  -1.524367  0  -0.301076  -0.82711  0  2.344539  0
O  O240  1  0.52668778  0.92606676  0.42664289  1  -1.44738  0  -0.35113  -0.732184  0  2.251784  0
O  O241  1  0.60059078  0.50047949  0.07385826  1  -1.451281  0  -0.351284  -0.731111  0  2.251414  0
O  O242  1  0.10009536  0.57337261  0.49944726  1  -1.45156  0  -0.350541  -0.730786  0  2.252993  0
O  O243  1  0.47331499  0.07393417  0.57335720  1  -1.447395  0  -0.351162  -0.732244  0  2.251892  0
O  O244  1  0.39940976  0.49952031  0.92614203  1  -1.451268  0  -0.351296  -0.731162  0  2.251406  0
O  O245  1  0.89990324  0.42662662  0.50055160  1  -1.45158  0  -0.350525  -0.73077  0  2.253014  0
O  O246  1  0.34565049  0.95356780  0.45787878  1  -1.437936  0  -0.366032  -0.67752  0  2.32158  0
O  O247  1  0.39208645  0.50427909  0.04645056  1  -1.44164  0  -0.366456  -0.678527  0  2.324099  0
O  O248  1  0.88777817  0.54208295  0.49562692  1  -1.442836  0  -0.366711  -0.678299  0  2.32071  0
O  O249  1  0.65435088  0.04643200  0.54212210  1  -1.437967  0  -0.366045  -0.677487  0  2.321634  0
O  O250  1  0.60791437  0.49572128  0.95355002  1  -1.4416  0  -0.366457  -0.678552  0  2.324089  0
O  O251  1  0.11222043  0.45791628  0.50437194  1  -1.442859  0  -0.366702  -0.678265  0  2.320773  0
O  O252  1  0.32099768  0.82813413  0.34645513  1  -1.537945  0  -0.29721  -0.808993  0  2.358652  0
O  O253  1  0.49296279  0.51832394  0.17188000  1  -1.533075  0  -0.297167  -0.808236  0  2.359258  0
O  O254  1  0.97454721  0.65351318  0.48162295  1  -1.532333  0  -0.297106  -0.808143  0  2.358071  0
O  O255  1  0.67900565  0.17186794  0.65354650  1  -1.537887  0  -0.297233  -0.808977  0  2.358469  0
O  O256  1  0.50703804  0.48167642  0.82812154  1  -1.53319  0  -0.297198  -0.808281  0  2.359338  0
O  O257  1  0.02545085  0.34648662  0.51837705  1  -1.532325  0  -0.297121  -0.80814  0  2.358127  0
O  O258  1  0.83383112  0.11600383  0.52307937  1  -1.422373  0  -0.394504  -0.672637  0  2.160187  0
O  O259  1  0.71775526  0.40705822  0.88396500  1  -1.41904  0  -0.393456  -0.670905  0  2.160879  0
O  O260  1  0.31069309  0.47692529  0.59296687  1  -1.429577  0  -0.39403  -0.671441  0  2.160612  0
O  O261  1  0.16616804  0.88399654  0.47692102  1  -1.422449  0  -0.394445  -0.672597  0  2.16019  0
O  O262  1  0.28224556  0.59294214  0.11603559  1  -1.419179  0  -0.393503  -0.670988  0  2.160818  0
O  O263  1  0.68930691  0.52307508  0.40703361  1  -1.42959  0  -0.394021  -0.671396  0  2.160666  0
O  O264  1  0.95665403  0.23875186  0.54738762  1  -1.539182  0  -0.305339  -0.825408  0  2.337678  0
O  O265  1  0.71782800  0.30857868  0.76126419  1  -1.534477  0  -0.305008  -0.824605  0  2.338847  0
O  O266  1  0.40925879  0.45269188  0.69143190  1  -1.535894  0  -0.306004  -0.825045  0  2.335785  0
O  O267  1  0.04334485  0.76124794  0.45261297  1  -1.539219  0  -0.305355  -0.825412  0  2.337638  0
O  O268  1  0.28217669  0.69142112  0.23873563  1  -1.534486  0  -0.304978  -0.824548  0  2.338972  0
O  O269  1  0.59074009  0.54730792  0.30856820  1  -1.535862  0  -0.306007  -0.824994  0  2.33573  0
O  O270  1  0.76180411  0.23135637  0.57406897  1  -1.545642  0  -0.290581  -0.830599  0  2.389122  0
O  O271  1  0.53037089  0.34268674  0.76866112  1  -1.541568  0  -0.291204  -0.832076  0  2.392192  0
O  O272  1  0.18770919  0.42596695  0.65736638  1  -1.547143  0  -0.28941  -0.830845  0  2.391877  0
O  O273  1  0.23819478  0.76864343  0.42593114  1  -1.545735  0  -0.290588  -0.830586  0  2.389176  0
O  O274  1  0.46963325  0.65731363  0.23133985  1  -1.541315  0  -0.29122  -0.832168  0  2.392122  0
O  O275  1  0.81228969  0.57403285  0.34263276  1  -1.547051  0  -0.289407  -0.830863  0  2.39196  0
