# generated using pymatgen
data_CuH3C5I4N
_symmetry_space_group_name_H-M   'P 1'
_cell_length_a   4.14513196
_cell_length_b   11.12146280
_cell_length_c   12.05233542
_cell_angle_alpha   80.19279210
_cell_angle_beta   89.01016711
_cell_angle_gamma   82.83719741
_symmetry_Int_Tables_number   1
_chemical_formula_structural   CuH3C5I4N
_chemical_formula_sum   'Cu2 H6 C10 I8 N2'
_cell_volume   543.21521286
_cell_formula_units_Z   2
loop_
 _symmetry_equiv_pos_site_id
 _symmetry_equiv_pos_as_xyz
  1  'x, y, z'
loop_
 _atom_site_type_symbol
 _atom_site_label
 _atom_site_symmetry_multiplicity
 _atom_site_fract_x
 _atom_site_fract_y
 _atom_site_fract_z
 _atom_site_occupancy
 _atom_site_hle17_bader_spin_density
 _atom_site_hle17_ddec_charge
 _atom_site_hle17_ddec_spin_density
 _atom_site_hle17_ddec_sum_bond_order
 _atom_site_hle17_magmom
 _atom_site_hse06_10hf_bader_spin_density
 _atom_site_hse06_10hf_ddec_charge
 _atom_site_hse06_10hf_ddec_spin_density
 _atom_site_hse06_10hf_ddec_sum_bond_order
 _atom_site_hse06_10hf_magmom
 _atom_site_hse06_bader_spin_density
 _atom_site_hse06_ddec_charge
 _atom_site_hse06_ddec_spin_density
 _atom_site_hse06_ddec_sum_bond_order
 _atom_site_hse06_magmom
 _atom_site_pbe_bader_spin_density
 _atom_site_pbe_cm5_charge
 _atom_site_pbe_ddec_charge
 _atom_site_pbe_ddec_spin_density
 _atom_site_pbe_ddec_sum_bond_order
 _atom_site_pbe_magmom
Cu  Cu0  1  0.26906889  0.41698450  0.51674557  1  0  0.227128  0  2.176017  0  0  0.143908  0  2.659342  0  0  0.155276  0  2.604852  0  0  0.250754  0.139561  0  2.693113  0
Cu  Cu1  1  0.73094220  0.58301645  0.48325685  1  0  0.227175  0  2.175906  0  0  0.14394  0  2.659247  0  0  0.155405  0  2.604751  0  0  0.250735  0.139587  0  2.693011  0
H  H2  1  0.43757388  0.98414334  0.88097893  1  0  0.094813  0  0.996125  0  0  0.101427  0  1.071369  0  0  0.10565  0  1.066761  0  0  0.082348  0.098707  0  1.074191  0
H  H3  1  0.56241424  0.01585396  0.11902423  1  0  0.094894  0  0.996447  0  0  0.101506  0  1.07166  0  0  0.105735  0  1.067051  0  0  0.082353  0.098785  0  1.074482  0
H  H4  1  0.60229192  0.16022360  0.53922626  1  0  0.072818  0  0.989967  0  0  0.075986  0  1.069102  0  0  0.079862  0  1.065029  0  0  0.08929  0.07254  0  1.073464  0
H  H5  1  0.39771009  0.83977552  0.46077569  1  0  0.072842  0  0.989843  0  0  0.076087  0  1.068909  0  0  0.079965  0  1.064834  0  0  0.089315  0.072641  0  1.073267  0
H  H6  1  0.04398382  0.36041818  0.75171824  1  0  0.084881  0  0.96669  0  0  0.088476  0  1.043126  0  0  0.092081  0  1.039129  0  0  0.095339  0.085528  0  1.046539  0
H  H7  1  0.95599880  0.63958099  0.24827887  1  0  0.084863  0  0.966617  0  0  0.088439  0  1.043081  0  0  0.09205  0  1.039073  0  0  0.095335  0.085492  0  1.046491  0
C  C8  1  0.40353361  0.06323890  0.81329767  1  0  -0.08227  0  3.743932  0  0  -0.116009  0  3.993075  0  0  -0.112539  0  4.01125  0  0  -0.095401  -0.117725  0  3.980289  0
C  C9  1  0.59645779  0.93677037  0.18669281  1  0  -0.082519  0  3.743761  0  0  -0.116237  0  3.99285  0  0  -0.112753  0  4.011016  0  0  -0.095478  -0.117956  0  3.980066  0
C  C10  1  0.53789828  0.05774696  0.70694734  1  0  -0.017001  0  3.663436  0  0  0.017577  0  3.912553  0  0  0.013694  0  3.937774  0  0  -0.055249  0.0196  0  3.896203  0
C  C11  1  0.46209807  0.94224756  0.29306367  1  0  -0.016723  0  3.66327  0  0  0.01781  0  3.912512  0  0  0.013927  0  3.937721  0  0  -0.055164  0.019831  0  3.896159  0
C  C12  1  0.49577972  0.16096981  0.62246737  1  0  0.078517  0  3.683304  0  0  0.038654  0  3.935729  0  0  0.04672  0  3.950965  0  0  0.018678  0.032416  0  3.927622  0
C  C13  1  0.50422371  0.83903209  0.37752666  1  0  0.078326  0  3.683658  0  0  0.038375  0  3.936151  0  0  0.046463  0  3.9514  0  0  0.018618  0.032144  0  3.92803  0
C  C14  1  0.22554950  0.17386043  0.82989787  1  0  -0.009988  0  3.658945  0  0  0.024708  0  3.909564  0  0  0.021154  0  3.934414  0  0  -0.051858  0.026532  0  3.893236  0
C  C15  1  0.77444253  0.82613227  0.17010847  1  0  -0.009847  0  3.659189  0  0  0.024869  0  3.909783  0  0  0.021306  0  3.934635  0  0  -0.051799  0.026702  0  3.89344  0
C  C16  1  0.18459223  0.27339825  0.74135160  1  0  0.088356  0  3.660289  0  0  0.050026  0  3.909316  0  0  0.057688  0  3.925124  0  0  0.023588  0.04506  0  3.899716  0
C  C17  1  0.81540302  0.72660642  0.25863791  1  0  0.088291  0  3.660444  0  0  0.049975  0  3.909447  0  0  0.057658  0  3.925273  0  0  0.023473  0.045005  0  3.899842  0
I  I18  1  0.21647901  0.60979652  0.61486521  1  0  -0.221994  0  2.029383  0  0  -0.16548  0  2.555783  0  0  -0.184008  0  2.507806  0  0  -0.117432  -0.15172  0  2.587065  0
I  I19  1  0.78353327  0.39020074  0.38513943  1  0  -0.221985  0  2.029381  0  0  -0.165469  0  2.555769  0  0  -0.183971  0  2.507775  0  0  -0.117436  -0.151711  0  2.587053  0
I  I20  1  0.03109307  0.19700889  0.98785581  1  0  0.018819  0  1.571687  0  0  0.000737  0  1.920166  0  0  -0.003158  0  1.912937  0  0  0.104038  0.002607  0  1.927134  0
I  I21  1  0.96889923  0.80299026  0.01214288  1  0  0.01877  0  1.57159  0  0  0.000714  0  1.920004  0  0  -0.003179  0  1.912769  0  0  0.104025  0.002579  0  1.926972  0
I  I22  1  0.79872896  0.89302107  0.67175196  1  0  0.004165  0  1.513138  0  0  -0.008772  0  1.855713  0  0  -0.011224  0  1.848373  0  0  0.078171  -0.007102  0  1.863072  0
I  I23  1  0.20128636  0.10698171  0.32824932  1  0  0.004127  0  1.513107  0  0  -0.00879  0  1.855699  0  0  -0.011249  0  1.848361  0  0  0.078189  -0.00712  0  1.863044  0
I  I24  1  0.42875388  0.52922513  0.88545400  1  0  -0.10591  0  1.51691  0  0  -0.100546  0  1.924295  0  0  -0.095666  0  1.906988  0  0  -0.069283  -0.104114  0  1.93641  0
I  I25  1  0.57128342  0.47076935  0.11455089  1  0  -0.105862  0  1.516886  0  0  -0.100492  0  1.92428  0  0  -0.095622  0  1.906981  0  0  -0.069269  -0.104058  0  1.936388  0
N  N26  1  0.32056701  0.26683112  0.63976748  1  0  -0.232358  0  3.34552  0  0  -0.150733  0  3.622091  0  0  -0.16562  0  3.634497  0  0  -0.35297  -0.141932  0  3.614072  0
N  N27  1  0.67942199  0.73317078  0.36022998  1  0  -0.23233  0  3.345002  0  0  -0.150685  0  3.621525  0  0  -0.165645  0  3.63402  0  0  -0.352911  -0.141881  0  3.613497  0
