# generated using pymatgen
data_AgH6C3SNO5
_symmetry_space_group_name_H-M   'P 1'
_cell_length_a   5.40430035
_cell_length_b   7.60637433
_cell_length_c   16.83974175
_cell_angle_alpha   90.00162336
_cell_angle_beta   93.00165148
_cell_angle_gamma   90.00019437
_symmetry_Int_Tables_number   1
_chemical_formula_structural   AgH6C3SNO5
_chemical_formula_sum   'Ag4 H24 C12 S4 N4 O20'
_cell_volume   691.28375096
_cell_formula_units_Z   4
loop_
 _symmetry_equiv_pos_site_id
 _symmetry_equiv_pos_as_xyz
  1  'x, y, z'
loop_
 _atom_site_type_symbol
 _atom_site_label
 _atom_site_symmetry_multiplicity
 _atom_site_fract_x
 _atom_site_fract_y
 _atom_site_fract_z
 _atom_site_occupancy
 _atom_site_hle17_bader_spin_density
 _atom_site_hle17_ddec_charge
 _atom_site_hle17_ddec_spin_density
 _atom_site_hle17_ddec_sum_bond_order
 _atom_site_hle17_magmom
 _atom_site_hse06_10hf_bader_spin_density
 _atom_site_hse06_10hf_ddec_charge
 _atom_site_hse06_10hf_ddec_spin_density
 _atom_site_hse06_10hf_ddec_sum_bond_order
 _atom_site_hse06_10hf_magmom
 _atom_site_hse06_bader_spin_density
 _atom_site_hse06_ddec_charge
 _atom_site_hse06_ddec_spin_density
 _atom_site_hse06_ddec_sum_bond_order
 _atom_site_hse06_magmom
 _atom_site_pbe_bader_spin_density
 _atom_site_pbe_cm5_charge
 _atom_site_pbe_ddec_charge
 _atom_site_pbe_ddec_spin_density
 _atom_site_pbe_ddec_sum_bond_order
 _atom_site_pbe_magmom
Ag  Ag0  1  0.26901857  0.39043004  0.79492811  1  0  0.603822  0  1.36109  0  0  0.485145  0  1.821727  0  0  0.520654  0  1.757794  0  0  0.414842  0.460061  0  1.866363  0
Ag  Ag1  1  0.73096648  0.89043005  0.20506717  1  0  0.603928  0  1.360795  0  0  0.485238  0  1.821344  0  0  0.520751  0  1.757415  0  0  0.414903  0.460147  0  1.865976  0
Ag  Ag2  1  0.70574255  0.42004273  0.71458136  1  0  0.615816  0  1.335759  0  0  0.498787  0  1.797435  0  0  0.535858  0  1.730755  0  0  0.410687  0.472386  0  1.844125  0
Ag  Ag3  1  0.29428638  0.92006635  0.28542782  1  0  0.615752  0  1.335869  0  0  0.498783  0  1.797474  0  0  0.535849  0  1.730795  0  0  0.410627  0.472388  0  1.844161  0
H  H4  1  0.34715359  0.07001564  0.49901237  1  0  0.339179  0  0.878407  0  0  0.316292  0  0.944637  0  0  0.324412  0  0.937965  0  0  0.312326  0.310557  0  0.949435  0
H  H5  1  0.65284320  0.57001878  0.50098392  1  0  0.339181  0  0.878451  0  0  0.316256  0  0.944687  0  0  0.324389  0  0.938021  0  0  0.312324  0.310514  0  0.949485  0
H  H6  1  0.33682213  0.84840809  0.50875924  1  0  0.342968  0  0.859756  0  0  0.324983  0  0.916026  0  0  0.332853  0  0.910105  0  0  0.317755  0.31942  0  0.920292  0
H  H7  1  0.66318744  0.34841196  0.49123239  1  0  0.343139  0  0.859703  0  0  0.325026  0  0.91611  0  0  0.332914  0  0.910187  0  0  0.317778  0.319459  0  0.920375  0
H  H8  1  0.57275211  0.96510877  0.55226038  1  0  0.357859  0  0.826906  0  0  0.335339  0  0.891331  0  0  0.34315  0  0.884639  0  0  0.324122  0.329816  0  0.896152  0
H  H9  1  0.42725086  0.46510500  0.44773639  1  0  0.357962  0  0.826772  0  0  0.335411  0  0.89122  0  0  0.343243  0  0.884521  0  0  0.324145  0.329874  0  0.896044  0
H  H10  1  0.37511291  0.81084504  0.95952064  1  0  0.346733  0  0.873862  0  0  0.322301  0  0.942354  0  0  0.330789  0  0.934984  0  0  0.314031  0.316273  0  0.947687  0
H  H11  1  0.62489270  0.31083409  0.04049172  1  0  0.346647  0  0.873778  0  0  0.322301  0  0.942176  0  0  0.330787  0  0.934804  0  0  0.314005  0.316271  0  0.947513  0
H  H12  1  0.54882159  0.99099371  0.98511522  1  0  0.345684  0  0.842438  0  0  0.327204  0  0.899696  0  0  0.334536  0  0.894046  0  0  0.324159  0.32199  0  0.903749  0
H  H13  1  0.45120686  0.49099374  0.01489153  1  0  0.345657  0  0.842388  0  0  0.327115  0  0.899727  0  0  0.334483  0  0.894054  0  0  0.324093  0.321852  0  0.903849  0
H  H14  1  0.66934579  0.79125160  0.99065195  1  0  0.336775  0  0.882129  0  0  0.318621  0  0.939685  0  0  0.326474  0  0.933816  0  0  0.311492  0.313067  0  0.943848  0
H  H15  1  0.33066762  0.29125249  0.00935166  1  0  0.336389  0  0.882497  0  0  0.318295  0  0.939951  0  0  0.326142  0  0.934094  0  0  0.311394  0.312743  0  0.944103  0
H  H16  1  0.93250284  0.97863778  0.80788153  1  0  0.160388  0  0.926192  0  0  0.169467  0  0.985882  0  0  0.173493  0  0.983257  0  0  0.119564  0.166528  0  0.987946  0
H  H17  1  0.06747394  0.47864671  0.19212006  1  0  0.160419  0  0.926116  0  0  0.169512  0  0.985809  0  0  0.173538  0  0.98319  0  0  0.119597  0.166572  0  0.987872  0
H  H18  1  0.01295850  0.86076995  0.89705843  1  0  0.146296  0  0.937625  0  0  0.153315  0  1.002358  0  0  0.156957  0  1.00047  0  0  0.111871  0.150653  0  1.003875  0
H  H19  1  0.98703603  0.36078331  0.10293765  1  0  0.146323  0  0.937584  0  0  0.153345  0  1.002339  0  0  0.156989  0  1.000456  0  0  0.111886  0.150683  0  1.003853  0
H  H20  1  0.49078598  0.99544265  0.84616424  1  0  0.094187  0  0.912449  0  0  0.103231  0  0.973286  0  0  0.105242  0  0.97283  0  0  0.125549  0.101738  0  0.973749  0
H  H21  1  0.50920718  0.49544524  0.15384360  1  0  0.094152  0  0.912581  0  0  0.103214  0  0.973342  0  0  0.105219  0  0.97289  0  0  0.12556  0.101721  0  0.973804  0
H  H22  1  0.10782332  0.81438897  0.70409335  1  0  0.1577  0  0.922132  0  0  0.167165  0  0.982598  0  0  0.170667  0  0.980791  0  0  0.118538  0.164672  0  0.984034  0
H  H23  1  0.89219939  0.31439210  0.29590212  1  0  0.157708  0  0.92201  0  0  0.167031  0  0.982626  0  0  0.170512  0  0.980814  0  0  0.118522  0.164538  0  0.984064  0
H  H24  1  0.39557893  0.74350904  0.66561658  1  0  0.139638  0  0.947886  0  0  0.145369  0  1.020157  0  0  0.148797  0  1.017799  0  0  0.108366  0.142921  0  1.021944  0
H  H25  1  0.60443515  0.24351329  0.33437578  1  0  0.139603  0  0.947941  0  0  0.145263  0  1.020261  0  0  0.148673  0  1.017894  0  0  0.10837  0.142811  0  1.022073  0
H  H26  1  0.05061990  0.02732698  0.58896054  1  0  0.101947  0  0.918372  0  0  0.109661  0  0.977425  0  0  0.112507  0  0.975877  0  0  0.127642  0.10757  0  0.978659  0
H  H27  1  0.94937718  0.52733956  0.41103755  1  0  0.102004  0  0.918361  0  0  0.10971  0  0.977344  0  0  0.112557  0  0.975792  0  0  0.127656  0.107615  0  0.978586  0
C  C28  1  0.34423410  0.11875923  0.66723715  1  0  0.646081  0  3.865034  0  0  0.598906  0  4.150248  0  0  0.633212  0  4.147921  0  0  0.213729  0.575542  0  4.1509  0
C  C29  1  0.65578096  0.61875789  0.33275471  1  0  0.646434  0  3.864465  0  0  0.599073  0  4.149925  0  0  0.63338  0  4.147596  0  0  0.213801  0.575708  0  4.150581  0
C  C30  1  0.57294321  0.72319381  0.82712511  1  0  0.629767  0  3.868064  0  0  0.581648  0  4.153113  0  0  0.615324  0  4.15213  0  0  0.212558  0.558739  0  4.15287  0
C  C31  1  0.42706910  0.22320076  0.17287020  1  0  0.62956  0  3.867739  0  0  0.581325  0  4.152938  0  0  0.614997  0  4.151958  0  0  0.212493  0.558413  0  4.152693  0
C  C32  1  0.88555396  0.95849003  0.86978327  1  0  -0.360074  0  3.588833  0  0  -0.399156  0  3.843635  0  0  -0.405405  0  3.849823  0  0  -0.157921  -0.394745  0  3.839378  0
C  C33  1  0.11443968  0.45850062  0.13021748  1  0  -0.360037  0  3.588558  0  0  -0.399259  0  3.843556  0  0  -0.405482  0  3.849671  0  0  -0.157929  -0.394864  0  3.839334  0
C  C34  1  0.61894949  0.89676584  0.87287436  1  0  0.1051  0  3.517822  0  0  0.082812  0  3.756808  0  0  0.082359  0  3.768492  0  0  0.017362  0.083079  0  3.748969  0
C  C35  1  0.38103899  0.39677046  0.12712930  1  0  0.104889  0  3.518117  0  0  0.082733  0  3.756999  0  0  0.082287  0  3.768689  0  0  0.017276  0.083004  0  3.749138  0
C  C36  1  0.21277704  0.80137978  0.65041081  1  0  -0.361463  0  3.591988  0  0  -0.39955  0  3.843588  0  0  -0.405883  0  3.850741  0  0  -0.156003  -0.395358  0  3.839079  0
C  C37  1  0.78723292  0.30138626  0.34957966  1  0  -0.361439  0  3.591775  0  0  -0.399384  0  3.843275  0  0  -0.405603  0  3.850283  0  0  -0.156018  -0.395202  0  3.838771  0
C  C38  1  0.23488188  0.97948578  0.60977558  1  0  0.09393  0  3.517878  0  0  0.071302  0  3.759324  0  0  0.070592  0  3.769948  0  0  0.015005  0.071889  0  3.7521  0
C  C39  1  0.76511547  0.47949728  0.39021869  1  0  0.093682  0  3.518017  0  0  0.071256  0  3.759089  0  0  0.070549  0  3.769703  0  0  0.015006  0.071833  0  3.751864  0
S  S40  1  0.94672314  0.16605803  0.91803031  1  0  1.347264  0  5.553623  0  0  1.253079  0  6.076024  0  0  1.298874  0  6.055767  0  0  0.499706  1.221509  0  6.088841  0
S  S41  1  0.05327824  0.66606922  0.08197432  1  0  1.347106  0  5.553342  0  0  1.252921  0  6.075756  0  0  1.298727  0  6.055509  0  0  0.499584  1.221349  0  6.088564  0
S  S42  1  0.04828301  0.64451849  0.58842124  1  0  1.337833  0  5.5723  0  0  1.244425  0  6.096463  0  0  1.290104  0  6.077012  0  0  0.499868  1.213005  0  6.108723  0
S  S43  1  0.95171502  0.14453173  0.41157622  1  0  1.337715  0  5.572317  0  0  1.244308  0  6.096408  0  0  1.289965  0  6.076941  0  0  0.499948  1.212895  0  6.108664  0
N  N44  1  0.38503587  0.96543177  0.53803769  1  0  -0.511367  0  3.180557  0  0  -0.466053  0  3.387632  0  0  -0.480003  0  3.383909  0  0  -0.609325  -0.456658  0  3.390535  0
N  N45  1  0.61496714  0.46543409  0.46195730  1  0  -0.511622  0  3.180674  0  0  -0.466135  0  3.38763  0  0  -0.480191  0  3.383994  0  0  -0.609391  -0.456691  0  3.390495  0
N  N46  1  0.54704898  0.87149209  0.95641884  1  0  -0.518812  0  3.202771  0  0  -0.475429  0  3.411205  0  0  -0.48951  0  3.407925  0  0  -0.614979  -0.465698  0  3.413592  0
N  N47  1  0.45296001  0.37149056  0.04358761  1  0  -0.518275  0  3.202777  0  0  -0.474902  0  3.411083  0  0  -0.489054  0  3.407861  0  0  -0.614747  -0.465126  0  3.413507  0
O  O48  1  0.18154366  0.63767135  0.51400891  1  0  -0.67807  0  1.954657  0  0  -0.621914  0  2.196736  0  0  -0.642917  0  2.183495  0  0  -0.34279  -0.607152  0  2.205398  0
O  O49  1  0.81845264  0.13768509  0.48598614  1  0  -0.678049  0  1.954463  0  0  -0.621813  0  2.196488  0  0  -0.642813  0  2.183248  0  0  -0.342856  -0.607069  0  2.205172  0
O  O50  1  0.79301576  0.71333027  0.57511677  1  0  -0.687912  0  1.927007  0  0  -0.632005  0  2.174289  0  0  -0.652505  0  2.160481  0  0  -0.348811  -0.617589  0  2.183323  0
O  O51  1  0.20698348  0.21334268  0.42488483  1  0  -0.687843  0  1.927303  0  0  -0.631959  0  2.174579  0  0  -0.652488  0  2.160796  0  0  -0.348815  -0.617537  0  2.183604  0
O  O52  1  0.38657947  0.63753336  0.84908155  1  0  -0.590566  0  2.097427  0  0  -0.515914  0  2.36399  0  0  -0.547602  0  2.353531  0  0  -0.322967  -0.493916  0  2.370476  0
O  O53  1  0.61335561  0.13752465  0.15091527  1  0  -0.590368  0  2.098221  0  0  -0.51565  0  2.364791  0  0  -0.547326  0  2.354334  0  0  -0.322872  -0.493659  0  2.371279  0
O  O54  1  0.83722082  0.30436326  0.86675399  1  0  -0.687412  0  1.995369  0  0  -0.635584  0  2.28211  0  0  -0.658212  0  2.262711  0  0  -0.348729  -0.619576  0  2.29492  0
O  O55  1  0.16275714  0.80437409  0.13325427  1  0  -0.687367  0  1.995342  0  0  -0.635535  0  2.282086  0  0  -0.658167  0  2.262685  0  0  -0.348738  -0.61953  0  2.294894  0
O  O56  1  0.83879983  0.15724764  0.99680046  1  0  -0.682631  0  1.966008  0  0  -0.624369  0  2.209236  0  0  -0.644603  0  2.194747  0  0  -0.34632  -0.610239  0  2.218894  0
O  O57  1  0.16123305  0.65725228  0.00320717  1  0  -0.682603  0  1.965756  0  0  -0.624218  0  2.20888  0  0  -0.644483  0  2.194415  0  0  -0.346206  -0.610077  0  2.218527  0
O  O58  1  0.05819899  0.47610333  0.63129527  1  0  -0.677802  0  2.033281  0  0  -0.621218  0  2.323366  0  0  -0.645507  0  2.305576  0  0  -0.347529  -0.604011  0  2.334946  0
O  O59  1  0.94180762  0.97610910  0.36870038  1  0  -0.677831  0  2.033277  0  0  -0.62124  0  2.323317  0  0  -0.645531  0  2.305534  0  0  -0.347565  -0.604029  0  2.334893  0
O  O60  1  0.22307396  0.14183937  0.72904070  1  0  -0.617596  0  2.089106  0  0  -0.545817  0  2.356989  0  0  -0.578507  0  2.346622  0  0  -0.325698  -0.523056  0  2.363386  0
O  O61  1  0.77691302  0.64182721  0.27095476  1  0  -0.617544  0  2.089037  0  0  -0.545749  0  2.357004  0  0  -0.578438  0  2.346646  0  0  -0.325638  -0.52299  0  2.363401  0
O  O62  1  0.71682556  0.68757345  0.77273181  1  0  -0.595125  0  2.075251  0  0  -0.524069  0  2.336181  0  0  -0.555403  0  2.326049  0  0  -0.311471  -0.502274  0  2.342454  0
O  O63  1  0.28315857  0.18759796  0.22728792  1  0  -0.595055  0  2.073957  0  0  -0.524002  0  2.334976  0  0  -0.55535  0  2.324848  0  0  -0.311518  -0.502195  0  2.341248  0
O  O64  1  0.22117546  0.17572625  0.92636234  1  0  -0.691819  0  1.991175  0  0  -0.6314  0  2.24914  0  0  -0.653616  0  2.234598  0  0  -0.34738  -0.615805  0  2.258728  0
O  O65  1  0.77883167  0.67573610  0.07363231  1  0  -0.691751  0  1.991198  0  0  -0.631374  0  2.249238  0  0  -0.65357  0  2.234645  0  0  -0.347325  -0.615773  0  2.258825  0
O  O66  1  0.53886315  0.19536164  0.64706157  1  0  -0.588257  0  2.054166  0  0  -0.516625  0  2.31122  0  0  -0.547207  0  2.29924  0  0  -0.31924  -0.495388  0  2.318802  0
O  O67  1  0.46114364  0.69538092  0.35294019  1  0  -0.588529  0  2.053677  0  0  -0.516843  0  2.310794  0  0  -0.547427  0  2.298807  0  0  -0.319361  -0.495601  0  2.318378  0
