# generated using pymatgen
data_CuH14C13NO5
_symmetry_space_group_name_H-M   'P 1'
_cell_length_a   7.85910059
_cell_length_b   14.51821821
_cell_length_c   25.16885636
_cell_angle_alpha   104.27782475
_cell_angle_beta   89.95983954
_cell_angle_gamma   90.00523630
_symmetry_Int_Tables_number   1
_chemical_formula_structural   CuH14C13NO5
_chemical_formula_sum   'Cu8 H112 C104 N8 O40'
_cell_volume   2783.06390388
_cell_formula_units_Z   8
loop_
 _symmetry_equiv_pos_site_id
 _symmetry_equiv_pos_as_xyz
  1  'x, y, z'
loop_
 _atom_site_type_symbol
 _atom_site_label
 _atom_site_symmetry_multiplicity
 _atom_site_fract_x
 _atom_site_fract_y
 _atom_site_fract_z
 _atom_site_occupancy
 _atom_site_pbe_bader_charge
 _atom_site_pbe_bader_spin_density
 _atom_site_pbe_cm5_charge
 _atom_site_pbe_ddec_charge
 _atom_site_pbe_ddec_spin_density
 _atom_site_pbe_ddec_sum_bond_order
 _atom_site_pbe_magmom
Cu  Cu0  1  0.90050123  0.78211401  0.50508390  1  1.024169  0.000516  0.654862  0.71719  0.000668  2.372463  0.001
Cu  Cu1  1  0.40127543  0.71795969  0.99450104  1  1.052478  -0.536565  0.672531  0.744642  -0.69375  2.369043  -0.534
Cu  Cu2  1  0.09963773  0.21787411  0.49499786  1  1.023269  -0.000738  0.654575  0.716312  -0.00095  2.372371  -0.002
Cu  Cu3  1  0.59974597  0.28212782  0.00499661  1  1.023366  0.002115  0.654879  0.716297  0.002737  2.373626  0.007
Cu  Cu4  1  0.05148399  0.76852326  0.59542770  1  1.023415  -0.000356  0.655139  0.717173  -0.000466  2.377818  -0.001
Cu  Cu5  1  0.55060075  0.73145322  0.90515983  1  1.052737  0.538163  0.673772  0.746783  0.694754  2.372085  0.536
Cu  Cu6  1  0.94864479  0.23146485  0.40465525  1  1.023791  0.000726  0.655518  0.718312  0.000924  2.377361  0.002
Cu  Cu7  1  0.44851472  0.26855613  0.09534984  1  1.023101  -0.001928  0.655507  0.717503  -0.002506  2.378089  -0.007
H  H8  1  0.38982021  0.09973668  0.13796854  1  0.089918  3.6e-05  0.11643  0.087663  2.8e-05  0.994783  0.0
H  H9  1  0.88985772  0.40026344  0.36197454  1  0.091043  6e-06  0.116399  0.087663  3e-06  0.994553  0.0
H  H10  1  0.60970926  0.90016608  0.86211366  1  0.093805  -9.5e-05  0.116305  0.088076  -6.6e-05  0.99493  0.0
H  H11  1  0.11010829  0.59973167  0.63802401  1  0.091267  -3e-06  0.116378  0.087568  -2e-06  0.994619  0.0
H  H12  1  0.30285605  0.04852615  0.22188201  1  0.068297  1.3e-05  0.10499  0.109042  7e-06  1.021593  0.0
H  H13  1  0.80286553  0.45149140  0.27811292  1  0.068417  1.3e-05  0.104944  0.109056  7e-06  1.021671  0.0
H  H14  1  0.69705254  0.95139754  0.77825840  1  0.069568  -2.6e-05  0.104849  0.108968  -1e-05  1.021018  0.0
H  H15  1  0.19712975  0.54848881  0.72188030  1  0.068012  -1.3e-05  0.104947  0.109023  -8e-06  1.021641  0.0
H  H16  1  0.19263341  0.17292784  0.30321511  1  0.136315  9e-06  0.104328  0.113799  5e-06  1.028587  0.0
H  H17  1  0.69266339  0.32709200  0.19682069  1  0.136828  1.5e-05  0.104169  0.113591  7e-06  1.028665  0.0
H  H18  1  0.80735155  0.82703583  0.69690524  1  0.138057  -5e-06  0.104459  0.113806  -4e-06  1.028784  0.0
H  H19  1  0.30735861  0.67288679  0.80317232  1  0.13672  -2.2e-05  0.104103  0.113582  -1.7e-05  1.027987  0.0
H  H20  1  0.16453390  0.33978467  0.29497946  1  0.116924  1e-05  0.104645  0.114859  5e-06  1.040466  0.0
H  H21  1  0.66451472  0.16024781  0.20507349  1  0.116704  1.3e-05  0.104656  0.115006  8e-06  1.040298  0.0
H  H22  1  0.83542811  0.66019721  0.70518207  1  0.11107  -2.3e-05  0.104764  0.115185  -1e-05  1.040049  0.0
H  H23  1  0.33546147  0.83973024  0.79492220  1  0.117091  6.2e-05  0.104752  0.115188  8.1e-05  1.040517  0.0
H  H24  1  0.35858590  0.43580723  0.19689811  1  0.08473  1.3e-05  0.107922  0.087892  7e-06  1.02544  0.0
H  H25  1  0.85843343  0.06416156  0.30306523  1  0.085303  7e-06  0.108054  0.088069  3e-06  1.025384  0.0
H  H26  1  0.64133297  0.56399835  0.80314141  1  0.083987  -4.2e-05  0.107875  0.088307  -1.5e-05  1.026074  0.0
H  H27  1  0.14156311  0.93583710  0.69693463  1  0.085675  -4e-06  0.108073  0.088113  -0.0  1.025138  0.0
H  H28  1  0.16881387  0.39372054  0.16148873  1  0.144432  1.4e-05  0.115911  0.107407  8e-06  0.990255  0.0
H  H29  1  0.66867719  0.10632742  0.33856076  1  0.142975  5e-06  0.116075  0.107788  3e-06  0.990031  0.0
H  H30  1  0.83107701  0.60614977  0.83855220  1  0.14248  -3.2e-05  0.115942  0.107844  8e-06  0.989622  0.0
H  H31  1  0.33130664  0.89365776  0.66143476  1  0.142959  -4e-06  0.116078  0.107776  -2e-06  0.990083  0.0
H  H32  1  0.97023735  0.60553406  0.30210561  1  0.083438  1.1e-05  0.099058  0.113486  6e-06  1.027946  0.0
H  H33  1  0.47013372  0.89455567  0.19795961  1  0.08357  1.4e-05  0.099096  0.113507  7e-06  1.027736  0.0
H  H34  1  0.02972738  0.39449088  0.69790123  1  0.083779  -2.1e-05  0.099028  0.113489  -1.6e-05  1.027913  0.0
H  H35  1  0.52988701  0.10544731  0.80203332  1  0.083491  -1.4e-05  0.09905  0.113485  -8e-06  1.027769  0.0
H  H36  1  0.09290140  0.72318276  0.38296088  1  0.091852  -0.0  0.100531  0.103508  -0.0  1.021064  0.0
H  H37  1  0.59300671  0.77688500  0.11709872  1  0.069682  1.6e-05  0.100509  0.103478  1.2e-05  1.021076  0.0
H  H38  1  0.90707733  0.27684004  0.61704524  1  0.091872  -4e-06  0.100494  0.103469  -2e-06  1.020905  0.0
H  H39  1  0.40704707  0.22309006  0.88291798  1  0.090511  -2e-06  0.100639  0.103695  3e-06  1.020881  0.0
H  H40  1  0.39286106  0.71465942  0.40819599  1  0.079755  -2e-06  0.101452  0.119517  -1e-06  1.031577  0.0
H  H41  1  0.89307381  0.78534838  0.09181677  1  0.079746  1.2e-05  0.101478  0.119555  -0.0  1.031184  0.0
H  H42  1  0.60713295  0.28534566  0.59180241  1  0.079724  -4e-06  0.101512  0.119557  -2e-06  1.031601  0.0
H  H43  1  0.10698380  0.21462600  0.90819507  1  0.080444  -2e-06  0.101565  0.119587  6e-06  1.031342  0.0
H  H44  1  0.45812386  0.46297898  0.27661925  1  0.089355  1.3e-05  0.106668  0.135275  7e-06  1.034577  0.0
H  H45  1  0.95805058  0.03702320  0.22336276  1  0.089444  1.2e-05  0.106619  0.135225  6e-06  1.03441  0.0
H  H46  1  0.54180906  0.53702465  0.72338212  1  0.089077  -3e-06  0.10672  0.135131  5e-06  1.034604  0.0
H  H47  1  0.04197525  0.96298693  0.77662366  1  0.089937  -1.8e-05  0.10665  0.135225  -1.7e-05  1.034307  0.0
H  H48  1  0.81287656  0.60927040  0.40433069  1  0.163936  2e-06  0.118745  0.117657  1e-06  0.991805  0.0
H  H49  1  0.31307832  0.89078500  0.09554245  1  0.162693  1e-06  0.118475  0.117923  -5.3e-05  0.9917  0.0
H  H50  1  0.18710345  0.39072476  0.59566111  1  0.16388  -2e-06  0.118668  0.117664  -1e-06  0.991892  0.0
H  H51  1  0.68693867  0.10931799  0.90439261  1  0.163711  -6e-06  0.118768  0.117749  -2e-06  0.992203  0.0
H  H52  1  0.61737914  0.65216189  0.43537164  1  0.068169  -2e-06  0.111355  0.096317  -1e-06  0.990555  0.0
H  H53  1  0.11763140  0.84787982  0.06457709  1  0.070816  5.1e-05  0.111247  0.096228  2.6e-05  0.991174  0.0
H  H54  1  0.38260341  0.34783679  0.56462505  1  0.067986  -3e-06  0.111358  0.096303  -1e-06  0.990581  0.0
H  H55  1  0.88234737  0.15219515  0.93539564  1  0.069886  -1.1e-05  0.111226  0.09599  -9e-06  0.991123  0.0
H  H56  1  0.64610150  0.69792600  0.30067284  1  0.056413  1.3e-05  0.107798  0.117967  8e-06  1.007577  0.0
H  H57  1  0.14603651  0.80207137  0.19921115  1  0.05746  3.9e-05  0.107857  0.118179  1.8e-05  1.007138  0.0
H  H58  1  0.35387850  0.30208404  0.69932747  1  0.056482  -3.8e-05  0.107822  0.118066  -2.9e-05  1.007455  0.0
H  H59  1  0.85391818  0.19787268  0.80066282  1  0.056428  -1.7e-05  0.107775  0.117776  -8e-06  1.008196  0.0
H  H60  1  0.71028656  0.85877625  0.28586545  1  0.112622  9e-06  0.104142  0.102052  5e-06  1.017985  0.0
H  H61  1  0.21019056  0.64123631  0.21403959  1  0.115362  1.8e-05  0.1044  0.102391  1.2e-05  1.017348  0.0
H  H62  1  0.28969726  0.14123946  0.71413846  1  0.113535  -1.1e-05  0.104198  0.102052  -6e-06  1.017951  0.0
H  H63  1  0.78977558  0.35869843  0.78584177  1  0.116892  -1.6e-05  0.104173  0.102041  -1.1e-05  1.017735  0.0
H  H64  1  0.82583202  0.98523298  0.36574221  1  0.102501  3e-06  0.104677  0.111011  1e-06  1.051797  0.0
H  H65  1  0.32578231  0.51477431  0.13410447  1  0.103675  2.1e-05  0.10488  0.111444  8e-06  1.051637  0.0
H  H66  1  0.17415688  0.01477561  0.63426305  1  0.102457  -3e-06  0.104656  0.110974  -2e-06  1.051859  0.0
H  H67  1  0.67406428  0.48518709  0.86572991  1  0.103043  -2.8e-05  0.104603  0.111255  -1.4e-05  1.051786  0.0
H  H68  1  0.87891635  0.94221419  0.45424959  1  0.110277  -3e-06  0.118354  0.096342  -2e-06  0.995622  0.0
H  H69  1  0.37941372  0.55784431  0.04563089  1  0.107909  9.4e-05  0.118242  0.096231  7.2e-05  0.995419  0.0
H  H70  1  0.12107255  0.05778728  0.54575544  1  0.110382  -3e-06  0.118401  0.09649  -2e-06  0.995489  0.0
H  H71  1  0.62101809  0.44227726  0.95428973  1  0.10893  2.3e-05  0.118463  0.096679  1.8e-05  0.995488  0.0
H  H72  1  0.78331913  0.08341876  0.61015049  1  0.074304  -7e-06  0.102078  0.159304  -3e-06  1.005551  0.0
H  H73  1  0.28241072  0.41616098  0.88951172  1  0.062333  0.001373  0.102259  0.159762  0.000662  1.00511  0.001
H  H74  1  0.21668126  0.91657441  0.38982116  1  0.074301  3e-06  0.10203  0.159251  1e-06  1.005854  0.0
H  H75  1  0.71672341  0.58342348  0.11020312  1  0.07424  -3.1e-05  0.101923  0.15907  -4.9e-05  1.00631  0.0
H  H76  1  0.61689414  0.01355673  0.62773522  1  0.095566  -8e-06  0.104422  0.162929  -4e-06  0.981437  0.0
H  H77  1  0.11613970  0.48617451  0.87208559  1  0.089037  0.000485  0.103662  0.162005  0.000248  0.982143  0.0
H  H78  1  0.38307315  0.98645623  0.37225320  1  0.095806  4e-06  0.104392  0.162812  2e-06  0.98159  0.0
H  H79  1  0.88299819  0.51346290  0.12768974  1  0.096418  2.5e-05  0.104401  0.162883  1.9e-05  0.98153  0.0
H  H80  1  0.79273643  0.04676411  0.67332625  1  0.052734  -9e-06  0.097744  0.15403  -4e-06  0.987346  0.0
H  H81  1  0.29207696  0.45301662  0.82642209  1  0.049988  -0.002123  0.097536  0.15401  -0.001005  0.986751  -0.001
H  H82  1  0.20723342  0.95325392  0.32665137  1  0.05194  9e-06  0.097777  0.153987  5e-06  0.987307  0.0
H  H83  1  0.70709403  0.54666425  0.17334442  1  0.052352  4e-05  0.097799  0.154058  1.9e-05  0.987238  0.0
H  H84  1  0.46908806  0.62148254  0.56237833  1  0.08417  -5e-06  0.099631  0.163781  -3e-06  0.996113  0.0
H  H85  1  0.96839076  0.87841250  0.93755644  1  0.082892  0.001602  0.099611  0.164682  0.000818  0.995274  0.001
H  H86  1  0.53090341  0.37851624  0.43760406  1  0.084781  4e-06  0.099778  0.164041  2e-06  0.996169  0.0
H  H87  1  0.03083479  0.12155681  0.06237012  1  0.084636  -3.2e-05  0.099798  0.163838  -2.7e-05  0.996365  0.0
H  H88  1  0.57620198  0.61346403  0.62459073  1  0.03349  -1e-06  0.095478  0.152335  -0.0  1.004702  0.0
H  H89  1  0.07595281  0.88640039  0.87536243  1  0.034414  -0.002199  0.095847  0.153266  -0.001024  1.003564  -0.001
H  H90  1  0.42375132  0.38653188  0.37539522  1  0.033109  4e-06  0.09541  0.152384  2e-06  1.004471  0.0
H  H91  1  0.92353735  0.11357220  0.12460233  1  0.034262  3.8e-05  0.095386  0.152121  2.4e-05  1.004418  0.0
H  H92  1  0.47181710  0.71969043  0.61909599  1  0.079007  -4e-06  0.105447  0.168735  -2e-06  0.990518  0.0
H  H93  1  0.97135070  0.78020683  0.88080669  1  0.077377  0.000518  0.105252  0.169002  0.00025  0.990336  0.0
H  H94  1  0.52818582  0.28031184  0.38089604  1  0.078366  8e-06  0.105507  0.168845  4e-06  0.990485  0.0
H  H95  1  0.02799450  0.21979410  0.11907397  1  0.079908  -6e-06  0.105394  0.168508  -0.0  0.990699  0.0
H  H96  1  0.31257559  0.54859367  0.45165107  1  0.072901  -0.0  0.102371  0.157495  -0.0  0.993425  0.0
H  H97  1  0.81347695  0.95174063  0.04852576  1  0.070147  -0.000492  0.102247  0.15763  -0.000255  0.993338  0.0
H  H98  1  0.68738916  0.45140367  0.54833429  1  0.073284  -4e-06  0.102334  0.157397  -2e-06  0.993433  0.0
H  H99  1  0.18748637  0.04869654  0.95174035  1  0.073212  -2e-06  0.102536  0.157529  -2e-06  0.993553  0.0
H  H100  1  0.22438897  0.48107921  0.49527166  1  0.049592  2e-06  0.100775  0.160385  1e-06  0.988085  0.0
H  H101  1  0.72545193  0.01940647  0.00496776  1  0.049031  -0.001541  0.100591  0.160775  -0.000714  0.988139  -0.001
H  H102  1  0.77557707  0.51890969  0.50469977  1  0.048868  -5e-06  0.10068  0.160352  -2e-06  0.988052  0.0
H  H103  1  0.27545921  0.98110174  0.99531220  1  0.049416  5.8e-05  0.100767  0.160574  3e-05  0.987756  0.0
H  H104  1  0.11668421  0.48865262  0.43342930  1  0.074788  0.0  0.100448  0.162182  1e-06  0.995211  0.0
H  H105  1  0.61764473  0.01165984  0.06680245  1  0.073199  0.002148  0.10045  0.162651  0.000995  0.994381  0.001
H  H106  1  0.88325638  0.51135402  0.56654907  1  0.075402  0.0  0.100385  0.16205  0.0  0.99533  0.0
H  H107  1  0.38336695  0.98869847  0.93344711  1  0.075084  -3.4e-05  0.100304  0.161956  -1.1e-05  0.9955  0.0
H  H108  1  0.51332109  0.84916862  0.51216065  1  0.130314  -3e-06  0.101749  0.171305  -1e-06  1.014812  0.0
H  H109  1  0.01401275  0.65095034  0.98784817  1  0.123779  -0.000997  0.101522  0.171911  -0.000478  1.015102  -0.001
H  H110  1  0.48665131  0.15083304  0.48781779  1  0.130091  -2e-06  0.101887  0.171505  -1e-06  1.014667  0.0
H  H111  1  0.98670769  0.34912016  0.01225297  1  0.130493  -7e-06  0.101872  0.171362  1e-06  1.014677  0.0
H  H112  1  0.40017993  0.89816297  0.46316947  1  0.0601  -4e-06  0.094798  0.146563  -2e-06  1.012469  0.0
H  H113  1  0.90042962  0.60211952  0.03688453  1  0.055867  0.00233  0.09504  0.147962  0.001086  1.010397  0.001
H  H114  1  0.59976702  0.10182591  0.53680474  1  0.061056  -0.0  0.094709  0.14646  -0.0  1.012365  0.0
H  H115  1  0.10000579  0.39809604  0.96323004  1  0.062509  -3.6e-05  0.094784  0.146626  -2.2e-05  1.012131  0.0
H  H116  1  0.42558436  0.96458044  0.53250068  1  0.05557  -2e-06  0.100229  0.152177  -1e-06  1.016346  0.0
H  H117  1  0.92647735  0.53552090  0.96763579  1  0.057268  -0.001052  0.100309  0.15287  -0.000513  1.015127  -0.001
H  H118  1  0.57439822  0.03540773  0.46747263  1  0.054406  -4e-06  0.100201  0.152189  -2e-06  1.016232  0.0
H  H119  1  0.07439569  0.46455895  0.03255290  1  0.054379  6.4e-05  0.100113  0.151991  4.8e-05  1.01621  0.0
C  C120  1  0.33849113  0.15046430  0.17377527  1  0.472301  3.4e-05  0.047013  0.108507  2.1e-05  3.952355  0.0
C  C121  1  0.83850453  0.34953031  0.32619778  1  0.470993  1e-05  0.047006  0.108251  6e-06  3.952611  0.0
C  C122  1  0.66107904  0.84943126  0.82631900  1  0.467972  -0.000562  0.047093  0.108312  -0.000383  3.951345  0.0
C  C123  1  0.16147293  0.65045697  0.67380123  1  0.470783  -7e-06  0.047167  0.108732  -4e-06  3.952543  0.0
C  C124  1  0.29041440  0.12253418  0.22066198  1  0.037687  2.3e-05  -0.08885  -0.136385  1.3e-05  3.993431  0.0
C  C125  1  0.79042010  0.37748044  0.27933129  1  0.037071  2.1e-05  -0.088823  -0.136315  1.3e-05  3.993317  0.0
C  C126  1  0.70942041  0.87737405  0.77945197  1  -0.018784  3.8e-05  -0.088488  -0.135892  2.8e-05  3.991614  0.0
C  C127  1  0.20956627  0.62250546  0.72066195  1  0.037113  -2e-06  -0.088691  -0.136385  1e-06  3.993636  0.0
C  C128  1  0.22920685  0.19138117  0.26536026  1  -0.097011  2.7e-05  -0.071586  -0.018747  1.5e-05  3.936662  0.0
C  C129  1  0.72924848  0.30863487  0.23465661  1  -0.097159  2.7e-05  -0.071319  -0.018363  1.4e-05  3.936658  0.0
C  C130  1  0.77070050  0.80857330  0.73475242  1  -0.040406  -0.000441  -0.071463  -0.018458  -0.000283  3.937268  0.0
C  C131  1  0.27076207  0.69134109  0.76533361  1  -0.097763  -1.1e-05  -0.071496  -0.018269  4e-06  3.936301  0.0
C  C132  1  0.21329681  0.28484831  0.26088068  1  -0.010921  2.3e-05  -0.089979  -0.171886  1.3e-05  3.947775  0.0
C  C133  1  0.71331135  0.21517199  0.23914787  1  -0.010447  2.5e-05  -0.089966  -0.172221  1.4e-05  3.947513  0.0
C  C134  1  0.78650110  0.71511318  0.73924693  1  -0.000435  3.9e-05  -0.089864  -0.171712  2.7e-05  3.947447  0.0
C  C135  1  0.28669156  0.78480891  0.76084783  1  -0.010529  0.000108  -0.090052  -0.17234  9.4e-05  3.947568  0.0
C  C136  1  0.25924282  0.30641945  0.21186149  1  0.458022  2.4e-05  0.112763  0.216231  1.4e-05  3.964805  0.0
C  C137  1  0.75924610  0.19359801  0.28814899  1  0.457714  1.5e-05  0.112741  0.216583  8e-06  3.964334  0.0
C  C138  1  0.74040750  0.69350801  0.78824891  1  0.453732  -0.000448  0.112629  0.215599  -0.00028  3.964955  0.0
C  C139  1  0.24074280  0.80639353  0.71185262  1  0.457526  3.6e-05  0.112729  0.216541  1.8e-05  3.964391  0.0
C  C140  1  0.23427551  0.40319545  0.20101383  1  0.365674  1.6e-05  -0.062726  -0.068303  1.1e-05  3.908685  0.0
C  C141  1  0.73415805  0.09683030  0.29900375  1  0.366785  1e-05  -0.063028  -0.069409  6e-06  3.909478  0.0
C  C142  1  0.76556446  0.59669973  0.79903268  1  0.369151  -8e-06  -0.062844  -0.068955  -5e-05  3.908662  0.0
C  C143  1  0.26583722  0.90315984  0.70099329  1  0.366421  -5e-06  -0.063078  -0.069431  -4e-06  3.909163  0.0
C  C144  1  0.20576258  0.52723809  0.28406210  1  0.390018  1.2e-05  0.077926  0.270121  6e-06  4.106918  0.0
C  C145  1  0.70569173  0.97280650  0.21597492  1  0.411855  2.8e-05  0.078052  0.269902  2e-05  4.106866  0.0
C  C146  1  0.79418689  0.47277691  0.71594092  1  0.390241  -4e-06  0.07794  0.269737  1e-06  4.106752  0.0
C  C147  1  0.29436717  0.02718012  0.78401763  1  0.409584  -2.4e-05  0.077824  0.269398  -1.4e-05  4.106887  0.0
C  C148  1  0.10214039  0.60057352  0.31436648  1  -0.038683  1.4e-05  -0.123659  -0.249819  8e-06  4.023483  0.0
C  C149  1  0.60210823  0.89947745  0.18569107  1  -0.059716  5e-06  -0.123917  -0.249961  -1e-06  4.023069  0.0
C  C150  1  0.89784343  0.39945288  0.68563421  1  -0.038028  -1.8e-05  -0.123502  -0.249571  -1.5e-05  4.023626  0.0
C  C151  1  0.39793921  0.10050129  0.81430828  1  -0.060861  -1.1e-05  -0.123923  -0.24986  -6e-06  4.022658  0.0
C  C152  1  0.17143002  0.66626046  0.35877554  1  0.005999  6e-06  -0.091567  -0.020254  3e-06  4.042323  0.0
C  C153  1  0.67150625  0.83378642  0.14127689  1  0.028141  -2.7e-05  -0.09119  -0.019674  -3.6e-05  4.042513  0.0
C  C154  1  0.82855889  0.33376666  0.64122406  1  0.006146  -1.1e-05  -0.091494  -0.020234  -5e-06  4.042202  0.0
C  C155  1  0.32856026  0.16617939  0.85874046  1  0.009251  -1.9e-05  -0.091246  -0.020202  -2e-06  4.041894  0.0
C  C156  1  0.34209159  0.66142549  0.37364325  1  -0.025385  3e-06  -0.127274  -0.264251  1e-06  4.029859  0.0
C  C157  1  0.84221840  0.83857622  0.12637663  1  -0.025774  -7.3e-05  -0.127345  -0.264241  -5.6e-05  4.02924  0.0
C  C158  1  0.65789096  0.33858029  0.62635525  1  -0.026283  -1.1e-05  -0.127204  -0.264147  -5e-06  4.029395  0.0
C  C159  1  0.15784048  0.16138893  0.87363348  1  -0.02531  2e-06  -0.127143  -0.264008  1.2e-05  4.029768  0.0
C  C160  1  0.44314378  0.58795035  0.34308177  1  0.366825  6e-06  0.077601  0.271613  3e-06  4.100707  0.0
C  C161  1  0.94321227  0.91206080  0.15691288  1  0.365626  2.1e-05  0.077569  0.2717  1e-05  4.100404  0.0
C  C162  1  0.55682478  0.41206399  0.65691399  1  0.366067  -8e-06  0.077676  0.271809  -4e-06  4.100248  0.0
C  C163  1  0.05684153  0.08792861  0.84308564  1  0.366734  -4.5e-05  0.077484  0.2713  -3.9e-05  4.100623  0.0
C  C164  1  0.37571320  0.52006721  0.29845223  1  0.009157  1.9e-05  -0.129502  -0.355135  1.2e-05  3.989613  0.0
C  C165  1  0.87567574  0.97994296  0.20154639  1  0.009922  -2e-06  -0.129448  -0.355023  3e-06  3.989816  0.0
C  C166  1  0.62424645  0.47994644  0.70154065  1  0.00938  -2.1e-05  -0.129674  -0.354987  -8e-06  3.989661  0.0
C  C167  1  0.12438189  0.02004437  0.79844546  1  0.009055  -5.7e-05  -0.12951  -0.354792  -5.2e-05  3.989451  0.0
C  C168  1  0.69176016  0.64197103  0.39722007  1  0.398854  1e-06  -0.061375  -0.070427  0.0  3.906046  0.0
C  C169  1  0.19196208  0.85809276  0.10271191  1  0.397712  -7.7e-05  -0.061054  -0.070236  -2e-06  3.905365  0.0
C  C170  1  0.30822112  0.35803192  0.60277603  1  0.399249  -4e-06  -0.061208  -0.070284  -2e-06  3.90608  0.0
C  C171  1  0.80809304  0.14197873  0.89725078  1  0.397977  -1.2e-05  -0.061343  -0.070213  -9e-06  3.905939  0.0
C  C172  1  0.72699053  0.73707145  0.38515788  1  0.477371  -0.0  0.117775  0.221192  -1e-06  3.963837  0.0
C  C173  1  0.22725127  0.76296948  0.11474357  1  0.476394  0.000506  0.118023  0.222081  0.000326  3.962268  0.0
C  C174  1  0.27298947  0.26293575  0.61484241  1  0.477136  -5e-06  0.117625  0.221066  -1e-06  3.963605  0.0
C  C175  1  0.77296549  0.23707954  0.88517572  1  0.477921  8e-06  0.117376  0.220254  9e-06  3.964054  0.0
C  C176  1  0.69753462  0.75418384  0.33366258  1  0.002816  9e-06  -0.089908  -0.183202  7e-06  3.962648  0.0
C  C177  1  0.19759863  0.74582157  0.16623588  1  0.00749  -4.1e-05  -0.090169  -0.184137  -2.9e-05  3.961921  0.0
C  C178  1  0.30245302  0.24582479  0.66633673  1  0.002783  -1.9e-05  -0.089838  -0.183153  -1.7e-05  3.962588  0.0
C  C179  1  0.80246038  0.25414865  0.83365894  1  0.002469  -2.8e-05  -0.089682  -0.182428  -1.7e-05  3.963302  0.0
C  C180  1  0.73312006  0.84386928  0.32568536  1  -0.03479  1.1e-05  -0.070053  -0.017565  6e-06  3.965941  0.0
C  C181  1  0.23311929  0.65614575  0.17421461  1  -0.037282  0.000523  -0.069666  -0.017095  0.000335  3.964981  0.0
C  C182  1  0.26687648  0.15614644  0.67431735  1  -0.035524  -1.7e-05  -0.070073  -0.017595  -1e-05  3.966145  0.0
C  C183  1  0.76691809  0.34381881  0.82567582  1  -0.039796  2e-06  -0.070118  -0.017751  5e-06  3.966383  0.0
C  C184  1  0.79741023  0.91379354  0.36941533  1  -0.103082  4e-06  -0.092312  -0.145773  2e-06  3.978808  0.0
C  C185  1  0.29753981  0.58623980  0.13046597  1  -0.102355  -6e-05  -0.092384  -0.145693  -5.1e-05  3.977757  0.0
C  C186  1  0.20258122  0.08621575  0.63059043  1  -0.10301  -1e-05  -0.092294  -0.14569  -5e-06  3.978861  0.0
C  C187  1  0.70256884  0.41377605  0.86941438  1  -0.101799  -5.1e-05  -0.092287  -0.145723  -1.6e-05  3.978852  0.0
C  C188  1  0.82588532  0.89060711  0.41912910  1  0.491627  -4e-06  0.045472  0.103077  -3e-06  3.948047  0.0
C  C189  1  0.32623794  0.60944119  0.08075165  1  0.491558  0.000597  0.046304  0.104384  0.000407  3.947624  0.0
C  C190  1  0.17410359  0.10939292  0.58087731  1  0.492154  -3e-06  0.045505  0.103004  -1e-06  3.947753  0.0
C  C191  1  0.67406918  0.39065061  0.91915474  1  0.494258  2.9e-05  0.045468  0.102992  2.3e-05  3.94781  0.0
C  C192  1  0.84414077  0.93555352  0.60021491  1  1.510874  -3e-06  0.216501  0.675724  -2e-06  4.109233  0.0
C  C193  1  0.34368746  0.56389272  0.89956290  1  1.520385  -0.000283  0.215659  0.67808  -0.000188  4.106718  0.0
C  C194  1  0.15584557  0.06443365  0.39980037  1  1.513337  2e-06  0.216507  0.675833  2e-06  4.10893  0.0
C  C195  1  0.65580164  0.43557066  0.10017097  1  1.511234  9e-06  0.216317  0.675991  5e-06  4.108908  0.0
C  C196  1  0.75499225  0.02611259  0.63018999  1  -0.094258  -2.1e-05  -0.234971  -0.505892  -1.5e-05  3.86164  0.0
C  C197  1  0.25423866  0.47365128  0.86958926  1  -0.086163  0.000588  -0.236846  -0.509062  0.000344  3.865752  0.001
C  C198  1  0.24498651  0.97388621  0.36979002  1  -0.095356  7e-06  -0.234893  -0.505647  6e-06  3.861691  0.0
C  C199  1  0.74492340  0.52607073  0.13019511  1  -0.094854  2e-06  -0.2348  -0.505623  1.6e-05  3.862  0.0
C  C200  1  0.70845243  0.69713744  0.57740270  1  1.539893  -4e-06  0.215465  0.673686  -3e-06  4.111536  0.0
C  C201  1  0.20767027  0.80291125  0.92253771  1  1.526856  0.000163  0.215644  0.677334  0.000181  4.106415  0.0
C  C202  1  0.29159881  0.30284828  0.42261594  1  1.540771  4e-06  0.215584  0.673961  4e-06  4.110814  0.0
C  C203  1  0.79151966  0.19721813  0.07738934  1  1.540045  -1.5e-05  0.215444  0.673272  -1.5e-05  4.111724  0.0
C  C204  1  0.54766096  0.65876472  0.59686162  1  -0.05171  -1.9e-05  -0.239073  -0.501197  -1.4e-05  3.841079  0.0
C  C205  1  0.04721498  0.84106402  0.90310501  1  -0.041326  0.000649  -0.241699  -0.507076  0.0004  3.846121  0.001
C  C206  1  0.45233559  0.34123544  0.40312574  1  -0.051247  1e-05  -0.239182  -0.50163  7e-06  3.840993  0.0
C  C207  1  0.95221028  0.15885805  0.09686120  1  -0.052395  -3.3e-05  -0.239095  -0.500913  -3.3e-05  3.84105  0.0
C  C208  1  0.10517077  0.61620884  0.49955519  1  1.533049  -3e-06  0.21642  0.674688  -2e-06  4.115161  0.0
C  C209  1  0.60582279  0.88443497  0.00065360  1  1.549222  -9.3e-05  0.216387  0.678139  -0.000127  4.111102  0.0
C  C210  1  0.89486521  0.38379330  0.50045590  1  1.532598  1e-06  0.216604  0.674877  1e-06  4.114486  0.0
C  C211  1  0.39493703  0.11620825  0.99955012  1  1.529854  -1.1e-05  0.216  0.673374  -5e-06  4.115587  0.0
C  C212  1  0.19346932  0.52696275  0.46803504  1  -0.050812  -1.3e-05  -0.239334  -0.502171  -9e-06  3.848093  0.0
C  C213  1  0.69442746  0.97333767  0.03212615  1  -0.055073  3e-05  -0.241696  -0.507365  7e-05  3.853042  0.0
C  C214  1  0.80648526  0.47303321  0.53194377  1  -0.051313  -0.0  -0.23909  -0.501768  0.0  3.848097  0.0
C  C215  1  0.30652701  0.02699463  0.96807874  1  -0.051104  -1.8e-05  -0.239213  -0.501385  -9e-06  3.848265  0.0
C  C216  1  0.24304235  0.85301856  0.52244584  1  1.529517  -4e-06  0.21429  0.678651  -3e-06  4.104823  0.0
C  C217  1  0.74380972  0.64688910  0.97757569  1  1.530296  0.000617  0.214243  0.68314  0.000413  4.100848  0.0
C  C218  1  0.75695164  0.14698218  0.47756227  1  1.529369  1e-06  0.214211  0.678695  0.0  4.105014  0.0
C  C219  1  0.25699986  0.35300474  0.02245503  1  1.521427  -4e-06  0.214645  0.679434  -6e-06  4.104026  0.0
C  C220  1  0.40583235  0.89341562  0.50579453  1  -0.10262  -1.3e-05  -0.241511  -0.508365  -9e-06  3.849968  0.0
C  C221  1  0.90635343  0.60679709  0.99422375  1  -0.093128  -0.001149  -0.244073  -0.515041  -0.000754  3.854759  -0.001
C  C222  1  0.59412732  0.10657324  0.49418285  1  -0.102344  -5e-06  -0.241587  -0.508475  -4e-06  3.849598  0.0
C  C223  1  0.09420290  0.39337671  0.00585816  1  -0.096077  2e-06  -0.241722  -0.508579  -3.2e-05  3.848968  0.0
N  N224  1  0.32487876  0.24050136  0.16930895  1  -1.226924  3.5e-05  -0.337508  -0.305953  1.3e-05  3.482125  0.0
N  N225  1  0.82493312  0.25949529  0.33067216  1  -1.226472  1.2e-05  -0.337165  -0.305973  4e-06  3.481201  0.0
N  N226  1  0.67455908  0.75937712  0.83078724  1  -1.229696  -0.001419  -0.336467  -0.307043  -0.000659  3.475975  0.0
N  N227  1  0.17503416  0.74049979  0.66933195  1  -1.225879  3.7e-05  -0.337584  -0.306202  2.3e-05  3.482317  0.0
N  N228  1  0.79167561  0.80426105  0.42712961  1  -1.212819  -6e-06  -0.331823  -0.297894  -2e-06  3.461885  0.0
N  N229  1  0.29216756  0.69581303  0.07276318  1  -1.216619  0.00141  -0.331886  -0.299884  0.000663  3.458539  0.0
N  N230  1  0.20830949  0.19573475  0.57287222  1  -1.213877  -3e-06  -0.331989  -0.297679  -1e-06  3.462699  0.0
N  N231  1  0.70830623  0.30431349  0.92716093  1  -1.215588  -3e-05  -0.331925  -0.297121  -1.5e-05  3.463807  0.0
O  O232  1  0.12947699  0.46625856  0.24022767  1  -1.085415  2.9e-05  -0.183887  -0.202229  1.2e-05  2.562412  0.0
O  O233  1  0.62935238  0.03380052  0.25982930  1  -1.08626  2.4e-05  -0.183856  -0.201583  1e-05  2.562057  0.0
O  O234  1  0.87044193  0.53377203  0.75978317  1  -1.084523  -2.3e-05  -0.183854  -0.201782  -3e-06  2.561982  0.0
O  O235  1  0.37069126  0.96618471  0.74015709  1  -1.085598  -2.1e-05  -0.18373  -0.201392  -1.1e-05  2.561388  0.0
O  O236  1  0.61246281  0.57538489  0.35293731  1  -1.08463  1.2e-05  -0.183935  -0.203785  5e-06  2.5676  0.0
O  O237  1  0.11257202  0.92463068  0.14702264  1  -1.084176  1.4e-05  -0.18407  -0.204007  -6e-06  2.567703  0.0
O  O238  1  0.38750702  0.42462237  0.64705465  1  -1.08429  -1.2e-05  -0.184049  -0.204064  -5e-06  2.567666  0.0
O  O239  1  0.88748434  0.07537304  0.85296602  1  -1.084943  -4.7e-05  -0.184039  -0.203671  -2.6e-05  2.567303  0.0
O  O240  1  0.92369457  0.88947277  0.62964110  1  -1.121152  -0.000113  -0.313032  -0.541166  -6.8e-05  2.361579  0.0
O  O241  1  0.42528794  0.60982965  0.87039939  1  -1.129909  0.079927  -0.315669  -0.547249  0.052505  2.357643  0.073
O  O242  1  0.07624086  0.11053563  0.37039116  1  -1.121709  0.000134  -0.312942  -0.541073  8.4e-05  2.362064  0.0
O  O243  1  0.57609039  0.38948531  0.12959493  1  -1.120775  -0.000316  -0.313046  -0.541368  -0.000208  2.362099  -0.001
O  O244  1  0.83009589  0.91235446  0.54831271  1  -1.085582  7.4e-05  -0.310125  -0.520892  5e-05  2.326472  0.0
O  O245  1  0.32911967  0.58775458  0.95150399  1  -1.089405  -0.079836  -0.313361  -0.528404  -0.052369  2.323767  -0.072
O  O246  1  0.16993118  0.08759646  0.45169733  1  -1.085925  -0.000121  -0.310252  -0.521225  -7.9e-05  2.326367  0.0
O  O247  1  0.66999155  0.41241643  0.04826975  1  -1.086156  0.000354  -0.310029  -0.521214  0.000224  2.32687  0.001
O  O248  1  0.84164921  0.69720572  0.60626794  1  -1.112105  -8.6e-05  -0.310043  -0.53251  -5.2e-05  2.371057  0.0
O  O249  1  0.34114534  0.80190835  0.89351569  1  -1.118277  0.085859  -0.313653  -0.538933  0.055999  2.370286  0.078
O  O250  1  0.15836511  0.30277278  0.39376714  1  -1.111771  0.000142  -0.310139  -0.532557  8.9e-05  2.370806  0.0
O  O251  1  0.65827624  0.19734472  0.10628038  1  -1.112364  -6.2e-05  -0.31013  -0.532193  -1.7e-05  2.372357  -0.001
O  O252  1  0.69642277  0.72847588  0.53443225  1  -1.11776  5.3e-05  -0.315166  -0.533116  3.5e-05  2.340283  0.0
O  O253  1  0.19721095  0.77244056  0.96592602  1  -1.120938  -0.086091  -0.318699  -0.540644  -0.05635  2.338915  -0.078
O  O254  1  0.30368954  0.27150914  0.46558549  1  -1.118494  -0.000128  -0.315283  -0.533492  -8.3e-05  2.340216  0.0
O  O255  1  0.80364930  0.22847092  0.03437286  1  -1.118754  0.000271  -0.31502  -0.533177  0.000165  2.340074  0.001
O  O256  1  0.15417274  0.64967784  0.54867451  1  -1.115535  -0.000124  -0.30773  -0.523288  -7.7e-05  2.355629  0.0
O  O257  1  0.65261569  0.85111601  0.95120558  1  -1.118176  0.088451  -0.31127  -0.531053  0.057746  2.353392  0.08
O  O258  1  0.84587724  0.35029658  0.45133178  1  -1.114837  0.000139  -0.307804  -0.523481  8.8e-05  2.355374  0.0
O  O259  1  0.34591904  0.14965532  0.04869308  1  -1.114519  -0.000372  -0.307438  -0.522596  -0.000235  2.355406  -0.001
O  O260  1  0.99259776  0.65143530  0.47400220  1  -1.105936  9.1e-05  -0.309417  -0.531405  5.8e-05  2.383318  0.0
O  O261  1  0.49391330  0.84838208  0.02618587  1  -1.125352  -0.086862  -0.313209  -0.538953  -0.056755  2.379363  -0.079
O  O262  1  0.00743567  0.34859025  0.52601901  1  -1.105888  -0.000135  -0.309568  -0.531572  -8.6e-05  2.38316  0.0
O  O263  1  0.50750562  0.15144831  0.97396236  1  -1.103282  0.000379  -0.309163  -0.530673  0.000239  2.383231  0.001
O  O264  1  0.23826374  0.84269056  0.57131839  1  -1.116109  -8.9e-05  -0.317357  -0.537696  -5.4e-05  2.35355  0.0
O  O265  1  0.73871306  0.65815616  0.92884741  1  -1.122669  0.082045  -0.32046  -0.544209  0.053604  2.352292  0.074
O  O266  1  0.76176333  0.15733789  0.42869491  1  -1.115442  0.000129  -0.317224  -0.537491  8.2e-05  2.353375  0.0
O  O267  1  0.26167527  0.34265031  0.07131080  1  -1.115539  -0.000256  -0.31742  -0.537788  -0.000161  2.35401  -0.001
O  O268  1  0.12528452  0.83252688  0.48675385  1  -1.105942  5.5e-05  -0.310133  -0.523895  3.6e-05  2.330164  0.0
O  O269  1  0.62449129  0.66642718  0.01291616  1  -1.115119  -0.086171  -0.314095  -0.531738  -0.056259  2.330029  -0.078
O  O270  1  0.87468401  0.16746169  0.51326481  1  -1.105884  -0.000132  -0.310143  -0.524164  -8.4e-05  2.330186  0.0
O  O271  1  0.37488462  0.33254087  0.98673783  1  -1.105739  0.000263  -0.310339  -0.524396  0.000166  2.329399  0.001
