# generated using pymatgen
data_CuH6C8S2(N2Cl)2
_symmetry_space_group_name_H-M   'P 1'
_cell_length_a   8.62618407
_cell_length_b   11.66803488
_cell_length_c   12.29683911
_cell_angle_alpha   89.97437600
_cell_angle_beta   90.00900376
_cell_angle_gamma   107.36512601
_symmetry_Int_Tables_number   1
_chemical_formula_structural   CuH6C8S2(N2Cl)2
_chemical_formula_sum   'Cu4 H24 C32 S8 N16 Cl8'
_cell_volume   1181.27334718
_cell_formula_units_Z   4
loop_
 _symmetry_equiv_pos_site_id
 _symmetry_equiv_pos_as_xyz
  1  'x, y, z'
loop_
 _atom_site_type_symbol
 _atom_site_label
 _atom_site_symmetry_multiplicity
 _atom_site_fract_x
 _atom_site_fract_y
 _atom_site_fract_z
 _atom_site_occupancy
 _atom_site_hle17_ddec_charge
 _atom_site_hle17_ddec_spin_density
 _atom_site_hle17_ddec_sum_bond_order
 _atom_site_hle17_magmom
 _atom_site_hse06_10hf_ddec_charge
 _atom_site_hse06_10hf_ddec_spin_density
 _atom_site_hse06_10hf_ddec_sum_bond_order
 _atom_site_hse06_10hf_magmom
 _atom_site_hse06_ddec_charge
 _atom_site_hse06_ddec_spin_density
 _atom_site_hse06_ddec_sum_bond_order
 _atom_site_hse06_magmom
 _atom_site_pbe_cm5_charge
 _atom_site_pbe_ddec_charge
 _atom_site_pbe_ddec_spin_density
 _atom_site_pbe_ddec_sum_bond_order
 _atom_site_pbe_magmom
Cu  Cu0  1  0.26234927  0.87774595  0.75348862  1  0.623505  -0.651635  2.112395  -0.422  0.60815  -0.755281  2.507006  -0.541  0.694117  -0.862498  2.438315  -0.63  0.555912  0.56346  -0.681712  2.546942  -0.486
Cu  Cu1  1  0.73751671  0.62206915  0.25348771  1  0.624225  0.615176  2.111738  0.425  0.608967  0.719372  2.506305  0.543  0.695005  0.800659  2.437469  0.631  0.556225  0.564516  0.666956  2.546171  0.492
Cu  Cu2  1  0.73761075  0.12223515  0.24651877  1  0.62372  0.611087  2.11129  0.422  0.608439  0.717418  2.50582  0.541  0.694409  0.799755  2.43719  0.63  0.555986  0.563802  0.660907  2.54573  0.487
Cu  Cu3  1  0.26249416  0.37793429  0.74649609  1  0.624323  0.615662  2.112451  0.426  0.609093  0.719751  2.507085  0.543  0.695122  0.800874  2.438208  0.631  0.556348  0.564744  0.668187  2.546929  0.493
H  H4  1  0.00443312  0.78896875  0.59065299  1  0.082347  -6.4e-05  0.971769  -0.001  0.088642  9e-06  1.042497  -0.001  0.090919  6e-05  1.039244  -0.001  0.104811  0.086856  -4.5e-05  1.044961  -0.001
H  H5  1  0.99555493  0.71103380  0.09064366  1  0.082418  2.2e-05  0.971523  0.001  0.088699  -3.6e-05  1.042164  0.001  0.090991  -0.000126  1.038888  0.001  0.104809  0.086898  7.6e-05  1.044695  0.001
H  H6  1  0.99548223  0.21097113  0.40932106  1  0.082353  0.001812  0.971716  0.001  0.088674  0.001831  1.042403  0.001  0.090935  0.001374  1.039172  0.001  0.10476  0.086909  0.002185  1.044819  0.002
H  H7  1  0.00453659  0.28898829  0.90933851  1  0.082474  0.00175  0.971855  0.001  0.088756  0.001775  1.042503  0.001  0.091048  0.001329  1.039217  0.001  0.104778  0.086981  0.002132  1.044984  0.002
H  H8  1  0.75270492  0.83296108  0.52811114  1  0.13322  -0.000259  0.934383  0.0  0.141041  -0.000415  0.992572  0.0  0.145446  -0.000349  0.990535  0.0  0.107109  0.137912  -0.000437  0.994123  0.0
H  H9  1  0.24729227  0.66705873  0.02808913  1  0.133096  0.000184  0.934832  0.0  0.141021  0.000346  0.992894  0.0  0.14541  0.000287  0.990873  0.0  0.107169  0.137917  0.000373  0.994425  0.0
H  H10  1  0.24734377  0.16702427  0.47189055  1  0.133302  6.3e-05  0.93461  0.0  0.141128  0.00031  0.992774  0.0  0.145538  0.000243  0.99073  0.0  0.107179  0.137995  0.000341  0.99434  0.0
H  H11  1  0.75270573  0.33293305  0.97190687  1  0.133047  6e-06  0.934764  0.0  0.140965  0.000267  0.992827  0.0  0.145359  0.000205  0.990797  0.0  0.107077  0.137843  0.000299  0.994386  0.0
H  H12  1  0.68816402  0.01295801  0.61347093  1  0.091958  0.000235  0.969458  -0.001  0.096876  0.000461  1.037763  0.0  0.101157  0.000448  1.032146  0.0  0.103996  0.093992  0.000415  1.041599  0.0
H  H13  1  0.31196310  0.48705272  0.11348535  1  0.091791  0.001094  0.969227  0.001  0.096806  0.000823  1.037468  0.0  0.100951  0.000549  1.031994  0.0  0.104085  0.093963  0.001085  1.041254  0.001
H  H14  1  0.31190128  0.98704527  0.38654296  1  0.091752  -0.000221  0.969808  0.001  0.096791  -0.000414  1.038015  0.0  0.101019  -0.000444  1.03244  0.0  0.103905  0.0939  -0.000298  1.041866  0.001
H  H15  1  0.68808141  0.51294793  0.88651635  1  0.091723  0.001005  0.969178  0.001  0.096699  0.000737  1.037465  0.0  0.100876  0.000499  1.031964  0.0  0.104062  0.09385  0.000942  1.04125  0.001
H  H16  1  0.53451870  0.47408150  0.59712305  1  0.078255  0.000884  0.956999  0.001  0.083575  0.000903  1.030224  0.001  0.085458  0.000634  1.027182  0.001  0.109193  0.081996  0.001128  1.032658  0.002
H  H17  1  0.46555751  0.02601516  0.09715326  1  0.078255  0.000938  0.956945  0.001  0.083457  0.000892  1.030258  0.001  0.085335  0.00063  1.027211  0.001  0.109275  0.081853  0.001098  1.032721  0.002
H  H18  1  0.46545537  0.52592833  0.40289897  1  0.078271  0.000925  0.956818  0.001  0.083591  0.000947  1.030043  0.001  0.085471  0.000663  1.027002  0.001  0.109225  0.081988  0.001182  1.032497  0.002
H  H19  1  0.53445182  0.97402424  0.90284923  1  0.07834  -0.000956  0.95691  -0.001  0.083502  -0.000911  1.03031  -0.001  0.085388  -0.000667  1.027258  -0.001  0.109267  0.081887  -0.001097  1.032778  -0.002
H  H20  1  0.79855662  0.43789479  0.54881986  1  0.120491  0.000347  0.973035  0.0  0.124964  0.000616  1.040848  0.0  0.128882  0.000469  1.039273  0.0  0.096098  0.12222  0.000713  1.041953  0.0
H  H21  1  0.20141072  0.06216072  0.04884707  1  0.120745  -0.000188  0.972651  0.0  0.125222  -8.4e-05  1.040387  0.0  0.129132  -4.3e-05  1.038857  0.0  0.096328  0.122501  -0.000125  1.041451  0.0
H  H22  1  0.20140520  0.56211059  0.45117938  1  0.120459  0.000382  0.973177  0.0  0.125009  0.000631  1.040921  0.0  0.12892  0.000482  1.039357  0.0  0.096095  0.122263  0.000729  1.042025  0.0
H  H23  1  0.79856792  0.93785180  0.95116357  1  0.120584  0.000139  0.972833  0.0  0.125057  3.6e-05  1.040602  0.0  0.128968  -0.0  1.039054  0.0  0.096234  0.122335  8.1e-05  1.04167  0.0
H  H24  1  0.85201641  0.25145610  0.62901630  1  0.084471  0.000276  0.960433  0.001  0.085714  4.9e-05  1.035741  0.0  0.088882  -5e-05  1.031341  0.0  0.105973  0.083453  0.000166  1.038895  0.001
H  H25  1  0.14795612  0.24849394  0.12899511  1  0.084406  0.000406  0.960783  0.001  0.085561  0.000176  1.036081  0.0  0.088719  2.2e-05  1.03169  0.0  0.105929  0.083333  0.000369  1.039195  0.001
H  H26  1  0.14794772  0.74854927  0.37098376  1  0.084404  0.000451  0.960404  0.001  0.085628  0.000201  1.035743  0.0  0.0888  4.9e-05  1.031343  0.0  0.105885  0.083363  0.00039  1.038898  0.001
H  H27  1  0.85198308  0.75150431  0.87098787  1  0.084405  -0.000366  0.961185  -0.001  0.085717  -0.000106  1.036286  0.0  0.088875  -5e-06  1.031888  0.0  0.106066  0.083485  -0.000215  1.039405  -0.001
C  C28  1  0.97211703  0.86602173  0.62201354  1  0.188101  0.006634  3.639572  0.007  0.153784  0.001967  3.894748  0.003  0.166092  0.00272  3.910896  0.004  0.061864  0.145934  0.001353  3.8844  0.002
C  C29  1  0.02793730  0.63395263  0.12201551  1  0.188516  -0.007226  3.639195  -0.007  0.154433  -0.002103  3.89405  -0.003  0.16673  -0.002965  3.910211  -0.004  0.062276  0.146597  -0.001378  3.883686  -0.002
C  C30  1  0.02788321  0.13395567  0.37798653  1  0.188255  -0.005767  3.63881  -0.006  0.153953  -0.000649  3.893929  -0.001  0.166283  -0.001803  3.910074  -0.002  0.062019  0.146083  0.000263  3.883578  0.0
C  C31  1  0.97209018  0.36603188  0.87799269  1  0.188188  -0.0059  3.639092  -0.006  0.15407  -0.000741  3.893967  -0.001  0.166382  -0.001913  3.910108  -0.002  0.062079  0.146207  0.000187  3.883613  0.0
C  C32  1  0.83239055  0.89078289  0.58744617  1  -0.15711  -0.009378  3.662275  -0.009  -0.169698  -0.004323  3.910132  -0.005  -0.179788  -0.004058  3.927651  -0.004  -0.082562  -0.163098  -0.004456  3.898261  -0.005
C  C33  1  0.16760925  0.60920764  0.08741388  1  -0.156822  0.008636  3.663444  0.009  -0.169639  0.003647  3.911322  0.004  -0.179739  0.003346  3.928844  0.004  -0.082672  -0.163014  0.003957  3.899396  0.005
C  C34  1  0.16763439  0.10921241  0.41256691  1  -0.157151  0.008724  3.662465  0.009  -0.169754  0.00389  3.910403  0.004  -0.17985  0.003523  3.927889  0.004  -0.082667  -0.163182  0.004222  3.898585  0.005
C  C35  1  0.83240319  0.39077692  0.91258131  1  -0.15677  0.008584  3.663087  0.009  -0.169555  0.00405  3.910911  0.004  -0.179638  0.003659  3.928421  0.004  -0.0826  -0.162961  0.004338  3.899046  0.005
C  C36  1  0.79907125  0.99046270  0.63274946  1  0.197075  0.007189  3.644686  0.007  0.167199  0.002742  3.901832  0.003  0.180238  0.003022  3.912107  0.003  0.071005  0.158509  0.002435  3.894438  0.003
C  C37  1  0.20102662  0.50954702  0.13272981  1  0.197183  -0.00727  3.644676  -0.006  0.167255  -0.002147  3.901844  -0.002  0.180381  -0.002647  3.912181  -0.002  0.071111  0.158563  -0.001661  3.894446  -0.002
C  C38  1  0.20098278  0.00954421  0.36727825  1  0.197097  -0.007674  3.6446  -0.007  0.167075  -0.002808  3.901822  -0.003  0.180184  -0.00316  3.912103  -0.003  0.07093  0.158365  -0.002412  3.89445  -0.002
C  C39  1  0.79899259  0.49044560  0.86726457  1  0.197275  -0.007213  3.64455  -0.006  0.167379  -0.002227  3.901682  -0.002  0.180473  -0.002737  3.912009  -0.003  0.071159  0.158683  -0.001774  3.89429  -0.002
C  C40  1  0.03554087  0.03324342  0.72964178  1  0.342345  0.005556  3.76712  0.006  0.329726  0.000695  4.044567  0.001  0.347679  0.001545  4.059624  0.002  0.242745  0.317827  3.1e-05  4.034887  0.0
C  C41  1  0.96451536  0.46665437  0.22967748  1  0.342477  -0.006219  3.766345  -0.006  0.329194  -0.000826  4.044967  -0.001  0.34715  -0.001855  4.059992  -0.002  0.242418  0.31729  -1.7e-05  4.035302  0.0
C  C42  1  0.96445465  0.96671961  0.27036317  1  0.342508  -0.00612  3.766111  -0.006  0.329699  -0.000788  4.043826  -0.001  0.347693  -0.001822  4.058833  -0.002  0.242757  0.317763  2.5e-05  4.034163  0.0
C  C43  1  0.03545849  0.53332939  0.77032096  1  0.34222  -0.005817  3.767297  -0.005  0.329023  -0.000654  4.045779  -0.001  0.346987  -0.001666  4.060819  -0.002  0.242422  0.3171  0.000154  4.0361  0.0
C  C44  1  0.49402415  0.22511106  0.73055751  1  0.350653  -0.005647  3.7573  -0.005  0.338708  -0.000491  4.032113  -0.001  0.357805  -0.001524  4.044687  -0.002  0.24535  0.326075  0.000341  4.023897  0.0
C  C45  1  0.50598614  0.27486106  0.23053455  1  0.351134  -0.006142  3.756693  -0.006  0.339215  -0.00073  4.031684  -0.001  0.358383  -0.001715  4.044143  -0.002  0.245378  0.326528  4.3e-05  4.02353  0.0
C  C46  1  0.50600129  0.77489683  0.26945476  1  0.350785  -0.00596  3.75698  -0.006  0.338709  -0.000775  4.031875  -0.001  0.357852  -0.001704  4.044372  -0.002  0.245346  0.326049  -7.4e-05  4.023716  0.0
C  C47  1  0.49402624  0.72518013  0.76946550  1  0.351258  0.004816  3.757653  0.005  0.339224  0.00028  4.032564  0.001  0.358379  0.00116  4.045045  0.002  0.245463  0.326546  -0.000413  4.024407  0.0
C  C48  1  0.56542056  0.39614769  0.62781258  1  0.191704  -0.006308  3.639978  -0.006  0.156199  -0.001141  3.89853  -0.002  0.168576  -0.002253  3.914463  -0.003  0.062852  0.148213  -0.000235  3.888474  -0.001
C  C49  1  0.43461978  0.10387821  0.12786814  1  0.192138  -0.006285  3.638595  -0.006  0.15678  -0.001121  3.89727  -0.002  0.169177  -0.002173  3.913186  -0.003  0.063043  0.148844  -0.000235  3.887197  -0.001
C  C50  1  0.43455777  0.60386123  0.37219805  1  0.191607  -0.005827  3.640008  -0.006  0.156119  -0.000931  3.898519  -0.002  0.168503  -0.001987  3.914453  -0.003  0.062838  0.14815  -7e-05  3.88847  -0.001
C  C51  1  0.56537394  0.89615135  0.87214005  1  0.191859  0.005353  3.638352  0.006  0.156438  0.000875  3.896942  0.002  0.168822  0.00182  3.912855  0.003  0.062947  0.148513  9.7e-05  3.886871  0.001
C  C52  1  0.71104450  0.37565605  0.60123358  1  -0.167933  0.009283  3.692459  0.009  -0.180462  0.004553  3.942765  0.005  -0.190978  0.003989  3.961771  0.004  -0.088035  -0.173548  0.004987  3.929895  0.005
C  C53  1  0.28894593  0.12434185  0.10125949  1  -0.167688  0.008516  3.691101  0.009  -0.180371  0.003611  3.941612  0.004  -0.19081  0.003273  3.960454  0.004  -0.08795  -0.173519  0.003932  3.928825  0.004
C  C54  1  0.28893437  0.62434568  0.39877787  1  -0.167846  0.008315  3.692601  0.008  -0.18055  0.003685  3.942987  0.004  -0.19106  0.003288  3.961996  0.004  -0.08807  -0.173636  0.004079  3.930122  0.005
C  C55  1  0.71103661  0.87566886  0.89874138  1  -0.16742  -0.008282  3.690848  -0.008  -0.180113  -0.003567  3.94144  -0.004  -0.190543  -0.003386  3.960253  -0.004  -0.087888  -0.173266  -0.003619  3.928665  -0.004
C  C56  1  0.73938768  0.27323687  0.64445009  1  0.20277  -0.006774  3.647867  -0.006  0.172578  -0.001912  3.908851  -0.002  0.185757  -0.002497  3.91947  -0.003  0.070083  0.163814  -0.001382  3.901296  -0.002
C  C57  1  0.26060107  0.22675002  0.14443348  1  0.203139  -0.006619  3.647943  -0.006  0.173266  -0.00176  3.908573  -0.002  0.186451  -0.002353  3.919221  -0.003  0.070305  0.164504  -0.001171  3.900985  -0.002
C  C58  1  0.26059461  0.72676754  0.35556461  1  0.202906  -0.007241  3.647541  -0.006  0.172729  -0.002464  3.908571  -0.002  0.185913  -0.002848  3.919166  -0.002  0.070105  0.163966  -0.002017  3.901032  -0.002
C  C59  1  0.73935592  0.77324638  0.85555520  1  0.203104  0.006723  3.648278  0.006  0.173057  0.002421  3.908964  0.002  0.186257  0.002718  3.919577  0.003  0.070118  0.164288  0.002081  3.901403  0.002
S  S60  1  0.15170948  0.14045484  0.82334303  1  0.026395  0.001778  2.614893  0.002  0.009831  0.000205  3.016405  0.001  0.007496  -0.000513  3.006026  0.0  0.071189  0.010434  0.000927  3.024498  0.001
S  S61  1  0.84831165  0.35946976  0.32342522  1  0.026586  -0.000407  2.614715  0.002  0.010168  -0.000335  3.016598  0.001  0.007871  -0.001118  3.006184  0.001  0.071521  0.0108  0.000485  3.02466  0.002
S  S62  1  0.84829940  0.85951534  0.17665948  1  0.026623  -0.001426  2.614733  0.001  0.010093  -0.001752  3.01632  0.001  0.007748  -0.002239  3.005924  0.0  0.071273  0.010722  -0.001149  3.024444  0.001
S  S63  1  0.15165427  0.64050594  0.67654883  1  0.026683  5.3e-05  2.614912  -0.001  0.010282  0.00182  3.01666  0.001  0.007982  0.001847  3.006232  0.001  0.071544  0.010932  0.001758  3.024745  0.0
S  S64  1  0.37558790  0.11760947  0.82285197  1  0.012651  -0.00098  2.631058  -0.002  -0.003376  0.000737  3.030948  0.0  -0.006605  0.000986  3.020863  0.0  0.065134  -0.002079  0.000535  3.038711  0.0
S  S65  1  0.62446760  0.38238542  0.32280216  1  0.012205  -0.00116  2.63007  0.001  -0.003855  -0.001144  3.030245  0.001  -0.007057  -0.001722  3.020068  0.0  0.065056  -0.002656  -0.000455  3.038078  0.002
S  S66  1  0.62443523  0.88239843  0.17716761  1  0.012496  -0.001064  2.631206  0.001  -0.003548  -0.001152  3.031168  0.001  -0.006787  -0.00173  3.021067  0.0  0.065081  -0.002247  -0.00043  3.038958  0.001
S  S67  1  0.37553650  0.61766389  0.67718163  1  0.011956  0.001074  2.630243  0.002  -0.004115  -0.000694  3.03042  0.0  -0.007325  -0.001153  3.020254  0.0  0.064909  -0.002925  -0.000196  3.038264  0.001
N  N68  1  0.07318924  0.93510984  0.69650096  1  -0.360109  -0.07607  3.319659  -0.087  -0.303242  -0.05787  3.589974  -0.071  -0.337322  -0.051046  3.614099  -0.065  -0.335304  -0.28395  -0.059939  3.576021  -0.073
N  N69  1  0.92689624  0.56483711  0.19653875  1  -0.360713  0.071662  3.318523  0.088  -0.303612  0.054765  3.588784  0.071  -0.337691  0.046905  3.612911  0.065  -0.335382  -0.284355  0.058291  3.574872  0.073
N  N70  1  0.92679052  0.06486851  0.30349260  1  -0.360675  0.071399  3.318658  0.088  -0.303661  0.054845  3.588922  0.071  -0.337742  0.047021  3.613025  0.065  -0.335536  -0.284402  0.058041  3.574996  0.073
N  N71  1  0.07311104  0.43517173  0.80345481  1  -0.36038  0.071584  3.318365  0.088  -0.303373  0.054983  3.588636  0.072  -0.337444  0.047114  3.612767  0.065  -0.335328  -0.284163  0.058649  3.574757  0.074
N  N72  1  0.90355227  0.06311600  0.70174527  1  -0.348843  -0.015643  3.049385  -0.017  -0.312991  -0.00819  3.321095  -0.009  -0.332232  -0.00604  3.335354  -0.007  -0.304838  -0.299404  -0.010241  3.310914  -0.011
N  N73  1  0.09652535  0.43682972  0.20175233  1  -0.348748  0.015109  3.048176  0.018  -0.312678  0.007922  3.320031  0.01  -0.33191  0.005557  3.334233  0.007  -0.304361  -0.299117  0.010417  3.30989  0.012
N  N74  1  0.09646852  0.93687482  0.29828083  1  -0.348647  0.014717  3.048358  0.017  -0.312757  0.007617  3.32025  0.009  -0.332018  0.005378  3.33447  0.007  -0.304628  -0.299154  0.009901  3.310065  0.011
N  N75  1  0.90347442  0.56316926  0.79823717  1  -0.348644  0.014896  3.048718  0.017  -0.312664  0.008004  3.320654  0.01  -0.331875  0.005683  3.33486  0.007  -0.304414  -0.299111  0.010387  3.310512  0.012
N  N76  1  0.45572830  0.32201800  0.69453534  1  -0.358396  0.072357  3.308169  0.089  -0.30031  0.055762  3.57596  0.072  -0.333753  0.047649  3.598636  0.066  -0.33594  -0.281429  0.059593  3.562945  0.074
N  N77  1  0.54432607  0.17797696  0.19459270  1  -0.358765  0.071704  3.308612  0.088  -0.300843  0.055333  3.576778  0.072  -0.334276  0.047338  3.599401  0.065  -0.336224  -0.281939  0.058622  3.563726  0.073
N  N78  1  0.54426639  0.67796570  0.30547124  1  -0.358448  0.071878  3.308209  0.088  -0.300219  0.05531  3.57591  0.072  -0.333679  0.047232  3.598578  0.065  -0.335943  -0.281327  0.058946  3.562899  0.074
N  N79  1  0.45568976  0.82204714  0.80540899  1  -0.35858  -0.075991  3.30876  -0.087  -0.300395  -0.058189  3.576657  -0.072  -0.333797  -0.051177  3.599272  -0.065  -0.336156  -0.281493  -0.060395  3.563591  -0.073
N  N80  1  0.62964444  0.19760935  0.70833828  1  -0.342925  0.015282  3.037769  0.017  -0.307502  0.008512  3.307935  0.01  -0.325239  0.006077  3.320055  0.008  -0.303498  -0.294774  0.01091  3.298978  0.012
N  N81  1  0.37038003  0.30237574  0.20827486  1  -0.343576  0.015239  3.038276  0.017  -0.308227  0.008323  3.308449  0.01  -0.326018  0.00586  3.320551  0.007  -0.303722  -0.295431  0.010764  3.299489  0.012
N  N82  1  0.37037095  0.80239947  0.29168293  1  -0.343069  0.014176  3.037448  0.017  -0.307525  0.007191  3.307487  0.009  -0.325273  0.00492  3.319591  0.007  -0.30342  -0.29481  0.009625  3.298568  0.011
N  N83  1  0.62959147  0.69762781  0.79171544  1  -0.343725  -0.014699  3.038981  -0.016  -0.308253  -0.007592  3.309079  -0.009  -0.32602  -0.005462  3.321165  -0.007  -0.303839  -0.295488  -0.009612  3.30015  -0.011
Cl  Cl84  1  0.37070997  0.90354665  0.58457335  1  -0.469779  -0.1534  1.001486  -0.164  -0.473143  -0.099726  1.283084  -0.115  -0.508434  -0.083503  1.268398  -0.099  -0.305758  -0.452662  -0.10441  1.293491  -0.119
Cl  Cl85  1  0.63017609  0.59766179  0.08438497  1  -0.47048  0.155787  1.00178  0.177  -0.473917  0.10088  1.283762  0.122  -0.509025  0.08032  1.269147  0.102  -0.306471  -0.453764  0.111437  1.294078  0.13
Cl  Cl86  1  0.62930467  0.09649723  0.41546655  1  -0.469599  0.142637  1.001153  0.164  -0.473005  0.093881  1.282716  0.116  -0.508314  0.076045  1.268064  0.099  -0.305557  -0.452478  0.100742  1.293102  0.12
Cl  Cl87  1  0.36980371  0.40235074  0.91557199  1  -0.470524  0.155292  1.002195  0.177  -0.473944  0.100451  1.284276  0.122  -0.509043  0.080033  1.269581  0.102  -0.306414  -0.453749  0.111164  1.294579  0.13
Cl  Cl88  1  0.16188634  0.85779326  0.92682860  1  -0.521439  -0.1159  0.944154  -0.121  -0.506779  -0.081111  1.214583  -0.09  -0.534813  -0.067353  1.195193  -0.076  -0.317932  -0.49032  -0.087223  1.227797  -0.096
Cl  Cl89  1  0.83806399  0.64212112  0.42684819  1  -0.520956  0.109033  0.943664  0.123  -0.506451  0.076979  1.213964  0.091  -0.534671  0.061701  1.194617  0.077  -0.317431  -0.489723  0.085342  1.227104  0.097
Cl  Cl90  1  0.83800517  0.14208827  0.07308609  1  -0.521557  0.108322  0.943325  0.122  -0.506913  0.076748  1.213665  0.091  -0.534922  0.061641  1.194289  0.077  -0.318042  -0.490509  0.084641  1.226848  0.097
Cl  Cl91  1  0.16205411  0.35795752  0.57317626  1  -0.520918  0.108948  0.944228  0.123  -0.506483  0.076924  1.214756  0.091  -0.534678  0.061706  1.19539  0.077  -0.317516  -0.489831  0.08544  1.227888  0.098
