# generated using pymatgen
data_AgH4C4NO3
_symmetry_space_group_name_H-M   'P 1'
_cell_length_a   4.93052896
_cell_length_b   8.85585646
_cell_length_c   12.00176477
_cell_angle_alpha   89.99927511
_cell_angle_beta   90.00004269
_cell_angle_gamma   98.19110778
_symmetry_Int_Tables_number   1
_chemical_formula_structural   AgH4C4NO3
_chemical_formula_sum   'Ag4 H16 C16 N4 O12'
_cell_volume   518.69960936
_cell_formula_units_Z   4
loop_
 _symmetry_equiv_pos_site_id
 _symmetry_equiv_pos_as_xyz
  1  'x, y, z'
loop_
 _atom_site_type_symbol
 _atom_site_label
 _atom_site_symmetry_multiplicity
 _atom_site_fract_x
 _atom_site_fract_y
 _atom_site_fract_z
 _atom_site_occupancy
 _atom_site_hle17_bader_spin_density
 _atom_site_hle17_ddec_charge
 _atom_site_hle17_ddec_spin_density
 _atom_site_hle17_ddec_sum_bond_order
 _atom_site_hle17_magmom
 _atom_site_hse06_10hf_bader_spin_density
 _atom_site_hse06_10hf_ddec_charge
 _atom_site_hse06_10hf_ddec_spin_density
 _atom_site_hse06_10hf_ddec_sum_bond_order
 _atom_site_hse06_10hf_magmom
 _atom_site_hse06_bader_spin_density
 _atom_site_hse06_ddec_charge
 _atom_site_hse06_ddec_spin_density
 _atom_site_hse06_ddec_sum_bond_order
 _atom_site_hse06_magmom
 _atom_site_pbe_bader_spin_density
 _atom_site_pbe_cm5_charge
 _atom_site_pbe_ddec_charge
 _atom_site_pbe_ddec_spin_density
 _atom_site_pbe_ddec_sum_bond_order
 _atom_site_pbe_magmom
Ag  Ag0  1  0.72562230  0.95524440  0.04991915  1  0  0.585936  0  1.472491  0  0  0.479228  0  1.932523  0  0  0.514233  0  1.868481  0  0  0.41683  0.454843  0  1.977698  0
Ag  Ag1  1  0.77437362  0.54475234  0.54991920  1  0  0.585952  0  1.472405  0  0  0.479232  0  1.932423  0  0  0.514236  0  1.86838  0  0  0.416839  0.454849  0  1.977597  0
Ag  Ag2  1  0.27437054  0.04475241  0.95008178  1  0  0.585918  0  1.472514  0  0  0.479206  0  1.932544  0  0  0.514216  0  1.8685  0  0  0.416815  0.454819  0  1.977714  0
Ag  Ag3  1  0.22562530  0.45524446  0.45007922  1  0  0.58596  0  1.472416  0  0  0.479244  0  1.932433  0  0  0.514248  0  1.868388  0  0  0.416851  0.454861  0  1.977602  0
H  H4  1  0.36423739  0.82016530  0.37473695  1  0  0.131968  0  0.9005  0  0  0.141578  0  0.962114  0  0  0.14492  0  0.959518  0  0  0.123751  0.138764  0  0.964398  0
H  H5  1  0.13576133  0.67983541  0.87473487  1  0  0.131944  0  0.90053  0  0  0.141556  0  0.96215  0  0  0.1449  0  0.959548  0  0  0.123736  0.138742  0  0.964437  0
H  H6  1  0.63576677  0.17983606  0.62526397  1  0  0.131907  0  0.900569  0  0  0.141559  0  0.962125  0  0  0.144899  0  0.959531  0  0  0.123742  0.138745  0  0.964407  0
H  H7  1  0.86423240  0.32016482  0.12526272  1  0  0.13193  0  0.900596  0  0  0.141602  0  0.962121  0  0  0.144945  0  0.959525  0  0  0.12375  0.13879  0  0.964406  0
H  H8  1  0.08449979  0.84580349  0.46179732  1  0  0.105162  0  0.93623  0  0  0.11103  0  1.011923  0  0  0.113626  0  1.009834  0  0  0.113168  0.108574  0  1.014248  0
H  H9  1  0.41549871  0.65419571  0.96179473  1  0  0.105136  0  0.93625  0  0  0.111014  0  1.011932  0  0  0.113613  0  1.00984  0  0  0.113154  0.108562  0  1.014258  0
H  H10  1  0.91550903  0.15420014  0.53820527  1  0  0.105233  0  0.936123  0  0  0.111046  0  1.011887  0  0  0.113644  0  1.009794  0  0  0.113156  0.108581  0  1.01422  0
H  H11  1  0.58449646  0.34580223  0.03820369  1  0  0.105278  0  0.936127  0  0  0.111098  0  1.011875  0  0  0.113698  0  1.009781  0  0  0.113179  0.108631  0  1.014214  0
H  H12  1  0.01450127  0.98745397  0.68604533  1  0  0.125563  0  0.906007  0  0  0.142218  0  0.958293  0  0  0.144249  0  0.957487  0  0  0.123604  0.140704  0  0.958906  0
H  H13  1  0.48549475  0.51254546  0.18604116  1  0  0.125498  0  0.90602  0  0  0.142189  0  0.958301  0  0  0.144205  0  0.957514  0  0  0.123591  0.14068  0  0.95891  0
H  H14  1  0.98550290  0.01254738  0.31395809  1  0  0.12556  0  0.906049  0  0  0.142264  0  0.958325  0  0  0.14428  0  0.957538  0  0  0.12361  0.140764  0  0.958921  0
H  H15  1  0.51450245  0.48745248  0.81395810  1  0  0.125539  0  0.906032  0  0  0.142237  0  0.958324  0  0  0.144253  0  0.957536  0  0  0.123601  0.140736  0  0.958921  0
H  H16  1  0.86451966  0.79427528  0.67286831  1  0  0.10778  0  0.945716  0  0  0.116011  0  1.020077  0  0  0.119067  0  1.016317  0  0  0.111555  0.113374  0  1.023472  0
H  H17  1  0.63548321  0.70572388  0.17286638  1  0  0.107732  0  0.945672  0  0  0.115978  0  1.020043  0  0  0.119037  0  1.016277  0  0  0.111543  0.113345  0  1.023435  0
H  H18  1  0.13548653  0.20572607  0.32713262  1  0  0.107777  0  0.945753  0  0  0.116043  0  1.020114  0  0  0.119097  0  1.01635  0  0  0.111573  0.113392  0  1.023523  0
H  H19  1  0.36451226  0.29427521  0.82713287  1  0  0.107732  0  0.945709  0  0  0.116004  0  1.020057  0  0  0.119061  0  1.01629  0  0  0.111549  0.113352  0  1.023465  0
C  C20  1  0.30174307  0.88751975  0.44528125  1  0  -0.132228  0  3.64524  0  0  -0.190705  0  3.901176  0  0  -0.190357  0  3.907205  0  0  -0.051724  -0.190741  0  3.897518  0
C  C21  1  0.19825374  0.61248088  0.94528066  1  0  -0.132209  0  3.645048  0  0  -0.190628  0  3.900988  0  0  -0.190281  0  3.907018  0  0  -0.051714  -0.190684  0  3.897348  0
C  C22  1  0.69826545  0.11248274  0.55471967  1  0  -0.13234  0  3.645176  0  0  -0.190733  0  3.901174  0  0  -0.190383  0  3.907201  0  0  -0.051703  -0.190762  0  3.89752  0
C  C23  1  0.80173910  0.38751593  0.05471610  1  0  -0.132354  0  3.645166  0  0  -0.190768  0  3.901133  0  0  -0.190418  0  3.907157  0  0  -0.051738  -0.190814  0  3.897503  0
C  C24  1  0.46386889  0.84727378  0.54454687  1  0  0.525076  0  3.78823  0  0  0.475962  0  4.081044  0  0  0.505473  0  4.081056  0  0  0.241994  0.456292  0  4.080417  0
C  C25  1  0.03611850  0.65272470  0.04454541  1  0  0.52504  0  3.788215  0  0  0.475921  0  4.081061  0  0  0.505434  0  4.081075  0  0  0.241925  0.456256  0  4.080429  0
C  C26  1  0.53613760  0.15272872  0.45545156  1  0  0.525231  0  3.78821  0  0  0.475973  0  4.081108  0  0  0.505484  0  4.081125  0  0  0.241957  0.456305  0  4.08048  0
C  C27  1  0.96387494  0.34727439  0.95545385  1  0  0.525123  0  3.788127  0  0  0.476023  0  4.080908  0  0  0.505535  0  4.08092  0  0  0.242006  0.456359  0  4.080273  0
C  C28  1  0.81801424  0.91140535  0.68154398  1  0  -0.148019  0  3.62318  0  0  -0.204207  0  3.869664  0  0  -0.205222  0  3.87642  0  0  -0.057594  -0.2032  0  3.864878  0
C  C29  1  0.68198395  0.58859138  0.18154233  1  0  -0.147784  0  3.622973  0  0  -0.20406  0  3.869577  0  0  -0.205064  0  3.876335  0  0  -0.057556  -0.203061  0  3.864785  0
C  C30  1  0.18198993  0.08859600  0.31845778  1  0  -0.147908  0  3.623254  0  0  -0.204312  0  3.86988  0  0  -0.205315  0  3.876641  0  0  -0.057613  -0.2033  0  3.865097  0
C  C31  1  0.31801324  0.41140656  0.81845693  1  0  -0.147879  0  3.623069  0  0  -0.204237  0  3.869742  0  0  -0.205238  0  3.876495  0  0  -0.057594  -0.203228  0  3.864957  0
C  C32  1  0.66860449  0.92491703  0.79217595  1  0  0.688367  0  3.842529  0  0  0.641968  0  4.128628  0  0  0.67686  0  4.124428  0  0  0.210638  0.618458  0  4.129735  0
C  C33  1  0.83138851  0.57508235  0.29217364  1  0  0.688294  0  3.842631  0  0  0.641942  0  4.128712  0  0  0.676834  0  4.124514  0  0  0.210671  0.618432  0  4.129819  0
C  C34  1  0.33139097  0.07508206  0.20782497  1  0  0.688335  0  3.842576  0  0  0.641978  0  4.128687  0  0  0.676869  0  4.124487  0  0  0.210618  0.618466  0  4.129797  0
C  C35  1  0.16860492  0.42491673  0.70782311  1  0  0.68834  0  3.842571  0  0  0.641992  0  4.128646  0  0  0.676885  0  4.124445  0  0  0.210665  0.618483  0  4.129753  0
N  N36  1  0.66582470  0.95160527  0.58481799  1  0  -0.167601  0  3.446348  0  0  -0.086798  0  3.681181  0  0  -0.10624  0  3.702949  0  0  -0.274795  -0.073529  0  3.665947  0
N  N37  1  0.83417321  0.54839885  0.08481343  1  0  -0.167618  0  3.446341  0  0  -0.086835  0  3.681278  0  0  -0.106276  0  3.703038  0  0  -0.274695  -0.07356  0  3.666046  0
N  N38  1  0.33418644  0.04839950  0.41518377  1  0  -0.167833  0  3.446522  0  0  -0.086779  0  3.681252  0  0  -0.106218  0  3.703012  0  0  -0.274721  -0.073513  0  3.666025  0
N  N39  1  0.16581993  0.45159910  0.91518499  1  0  -0.167671  0  3.446347  0  0  -0.086828  0  3.681254  0  0  -0.106266  0  3.70301  0  0  -0.274704  -0.073557  0  3.666023  0
O  O40  1  0.41319168  0.71554132  0.58418498  1  0  -0.578747  0  2.059884  0  0  -0.531362  0  2.329861  0  0  -0.555853  0  2.319601  0  0  -0.307323  -0.514784  0  2.336692  0
O  O41  1  0.08680549  0.78446330  0.08418897  1  0  -0.578745  0  2.059612  0  0  -0.531364  0  2.329605  0  0  -0.55586  0  2.319352  0  0  -0.307325  -0.514784  0  2.33643  0
O  O42  1  0.58681308  0.28446232  0.41581511  1  0  -0.578772  0  2.059884  0  0  -0.531345  0  2.329904  0  0  -0.555827  0  2.319622  0  0  -0.307304  -0.514766  0  2.336732  0
O  O43  1  0.91319516  0.21553236  0.91581029  1  0  -0.578812  0  2.059506  0  0  -0.531466  0  2.329539  0  0  -0.555976  0  2.319315  0  0  -0.307409  -0.514885  0  2.33636  0
O  O44  1  0.45624581  0.99022141  0.79050336  1  0  -0.597379  0  2.065074  0  0  -0.525583  0  2.323917  0  0  -0.557521  0  2.314304  0  0  -0.318987  -0.503038  0  2.329528  0
O  O45  1  0.04375774  0.50977506  0.29050157  1  0  -0.597369  0  2.064957  0  0  -0.525593  0  2.3238  0  0  -0.557536  0  2.314189  0  0  -0.319035  -0.503045  0  2.329411  0
O  O46  1  0.54375574  0.00977767  0.20949590  1  0  -0.597396  0  2.065027  0  0  -0.525606  0  2.323861  0  0  -0.557545  0  2.31425  0  0  -0.318996  -0.503061  0  2.329477  0
O  O47  1  0.95624410  0.49022516  0.70949602  1  0  -0.597426  0  2.065012  0  0  -0.525621  0  2.323829  0  0  -0.557562  0  2.314216  0  0  -0.319032  -0.503075  0  2.329444  0
O  O48  1  0.77992231  0.87059996  0.87597807  1  0  -0.645832  0  2.099837  0  0  -0.569344  0  2.3648  0  0  -0.603241  0  2.35494  0  0  -0.331145  -0.545713  0  2.370747  0
O  O49  1  0.72007655  0.62939796  0.37597272  1  0  -0.645797  0  2.099981  0  0  -0.569315  0  2.364899  0  0  -0.603208  0  2.355037  0  0  -0.331118  -0.545698  0  2.370878  0
O  O50  1  0.22007547  0.12940026  0.12402452  1  0  -0.645818  0  2.099939  0  0  -0.569319  0  2.364843  0  0  -0.603212  0  2.354984  0  0  -0.331127  -0.545697  0  2.370814  0
O  O51  1  0.27992124  0.37060226  0.62402488  1  0  -0.645774  0  2.099948  0  0  -0.569288  0  2.364867  0  0  -0.603183  0  2.355008  0  0  -0.331116  -0.545667  0  2.370835  0
