# generated using pymatgen
data_GdH25C29NO6
_symmetry_space_group_name_H-M   'P 1'
_cell_length_a   8.06312030
_cell_length_b   12.81666056
_cell_length_c   12.95700000
_cell_angle_alpha   94.36463962
_cell_angle_beta   92.63461892
_cell_angle_gamma   100.91569645
_symmetry_Int_Tables_number   1
_chemical_formula_structural   GdH25C29NO6
_chemical_formula_sum   'Gd2 H50 C58 N2 O12'
_cell_volume   1308.47084330
_cell_formula_units_Z   2
loop_
 _symmetry_equiv_pos_site_id
 _symmetry_equiv_pos_as_xyz
  1  'x, y, z'
loop_
 _atom_site_type_symbol
 _atom_site_label
 _atom_site_symmetry_multiplicity
 _atom_site_fract_x
 _atom_site_fract_y
 _atom_site_fract_z
 _atom_site_occupancy
 _atom_site_hle17_bader_spin_density
 _atom_site_hle17_ddec_charge
 _atom_site_hle17_ddec_spin_density
 _atom_site_hle17_ddec_sum_bond_order
 _atom_site_hle17_magmom
 _atom_site_hse06_10hf_bader_spin_density
 _atom_site_hse06_10hf_ddec_charge
 _atom_site_hse06_10hf_ddec_spin_density
 _atom_site_hse06_10hf_ddec_sum_bond_order
 _atom_site_hse06_10hf_magmom
 _atom_site_hse06_bader_spin_density
 _atom_site_hse06_ddec_charge
 _atom_site_hse06_ddec_spin_density
 _atom_site_hse06_ddec_sum_bond_order
 _atom_site_hse06_magmom
 _atom_site_pbe_bader_charge
 _atom_site_pbe_bader_spin_density
 _atom_site_pbe_cm5_charge
 _atom_site_pbe_ddec_charge
 _atom_site_pbe_ddec_spin_density
 _atom_site_pbe_ddec_sum_bond_order
 _atom_site_pbe_magmom
Gd  Gd0  1  0.23135363  0.97999952  0.45620160  1  0  2.168792  0  1.853896  0  0  2.065729  0  2.239037  0  0  2.126531  0  2.173446  0  2.176081  0  1.500682  2.019522  0  2.289963  0
Gd  Gd1  1  0.76865032  0.01999978  0.54379915  1  0  2.168827  0  1.853697  0  0  2.065753  0  2.238813  0  0  2.126472  0  2.173379  0  2.176146  0  1.500639  2.019524  0  2.289785  0
H  H2  1  0.07387584  0.38194433  0.60958613  1  0  0.103027  0  0.940127  0  0  0.116683  0  0.995859  0  0  0.119714  0  0.994245  0  0.085281  0  0.104992  0.114475  0  0.997112  0
H  H3  1  0.92612364  0.61805657  0.39041462  1  0  0.103017  0  0.940054  0  0  0.116666  0  0.995807  0  0  0.119699  0  0.994191  0  0.085308  0  0.10498  0.114458  0  0.99706  0
H  H4  1  0.21842016  0.21869987  0.33705663  1  0  0.096255  0  0.982484  0  0  0.10332  0  1.052564  0  0  0.106971  0  1.0495  0  0.107448  0  0.102979  0.100592  0  1.054935  0
H  H5  1  0.78158129  0.78130342  0.66294127  1  0  0.096232  0  0.982491  0  0  0.1033  0  1.052571  0  0  0.10695  0  1.049511  0  0.107451  0  0.10297  0.100572  0  1.054942  0
H  H6  1  0.38171442  0.39138709  0.28630727  1  0  0.078064  0  0.971243  0  0  0.087564  0  1.035575  0  0  0.089635  0  1.03617  0  0.028997  0  0.09322  0.086074  0  1.035273  0
H  H7  1  0.61828579  0.60861619  0.71369290  1  0  0.078062  0  0.97125  0  0  0.087575  0  1.035571  0  0  0.089646  0  1.036164  0  0.028977  0  0.093225  0.086085  0  1.035268  0
H  H8  1  0.39631059  0.55757867  0.40037012  1  0  0.090936  0  0.962944  0  0  0.102114  0  1.023041  0  0  0.104027  0  1.023835  0  0.085746  0  0.098419  0.10074  0  1.022534  0
H  H9  1  0.60369062  0.44242382  0.59963080  1  0  0.090946  0  0.962941  0  0  0.102125  0  1.02304  0  0  0.104038  0  1.023834  0  0.085852  0  0.098428  0.10075  0  1.022534  0
H  H10  1  0.20632900  0.23743945  0.72228601  1  0  0.113733  0  0.954465  0  0  0.120578  0  1.021334  0  0  0.124018  0  1.01966  0  0.120597  0  0.105948  0.118119  0  1.022562  0
H  H11  1  0.79367350  0.76255108  0.27771713  1  0  0.113756  0  0.954463  0  0  0.120625  0  1.021296  0  0  0.124063  0  1.019626  0  0.120339  0  0.106013  0.118168  0  1.022523  0
H  H12  1  0.74686466  0.27443206  0.71837409  1  0  0.113352  0  0.948008  0  0  0.1217  0  1.011647  0  0  0.125662  0  1.008556  0  0.121421  0  0.110032  0.118806  0  1.013987  0
H  H13  1  0.25313830  0.72556804  0.28162978  1  0  0.113314  0  0.948116  0  0  0.121707  0  1.011702  0  0  0.125671  0  1.008606  0  0.12145  0  0.11004  0.11882  0  1.014023  0
H  H14  1  0.78058373  0.43840791  0.84178218  1  0  0.077385  0  0.959946  0  0  0.090544  0  1.017005  0  0  0.093253  0  1.016031  0  0.068738  0  0.096608  0.088604  0  1.017774  0
H  H15  1  0.21941351  0.56159378  0.15821702  1  0  0.077399  0  0.959977  0  0  0.090588  0  1.016993  0  0  0.093299  0  1.016019  0  0.068723  0  0.096621  0.088649  0  1.017759  0
H  H16  1  0.52673754  0.50123393  0.90433881  1  0  0.084437  0  0.958588  0  0  0.096624  0  1.020516  0  0  0.099168  0  1.019819  0  0.061892  0  0.096545  0.094759  0  1.021083  0
H  H17  1  0.47325648  0.49876537  0.09565549  1  0  0.084526  0  0.958556  0  0  0.096699  0  1.020483  0  0  0.099243  0  1.019785  0  0.061877  0  0.096562  0.09484  0  1.021045  0
H  H18  1  0.12804373  0.78541663  0.71265870  1  0  0.107187  0  0.956754  0  0  0.115411  0  1.021932  0  0  0.118339  0  1.020785  0  0.099352  0  0.106511  0.113263  0  1.022877  0
H  H19  1  0.87195030  0.21458267  0.28734100  1  0  0.107251  0  0.956729  0  0  0.115487  0  1.021886  0  0  0.118415  0  1.020738  0  0.099397  0  0.106544  0.113339  0  1.022831  0
H  H20  1  0.29710158  0.68368296  0.00242470  1  0  0.085188  0  0.978011  0  0  0.095211  0  1.043136  0  0  0.097267  0  1.043519  0  0.09082  0  0.093372  0.093734  0  1.04288  0
H  H21  1  0.70289739  0.31632033  0.99757621  1  0  0.085173  0  0.977997  0  0  0.095184  0  1.043136  0  0  0.09724  0  1.043517  0  0.090815  0  0.09337  0.093707  0  1.04288  0
H  H22  1  0.59444486  0.74865054  0.96340214  1  0  0.086489  0  0.951757  0  0  0.098889  0  1.007018  0  0  0.101738  0  1.006488  0  0.077746  0  0.097209  0.096872  0  1.00744  0
H  H23  1  0.40555338  0.25135036  0.03659549  1  0  0.086518  0  0.951848  0  0  0.098952  0  1.007066  0  0  0.101801  0  1.006536  0  0.077697  0  0.097237  0.096934  0  1.00749  0
H  H24  1  0.65918209  0.83461329  0.79874685  1  0  0.095127  0  0.966942  0  0  0.105801  0  1.028508  0  0  0.108507  0  1.027637  0  0.080607  0  0.102455  0.103809  0  1.029228  0
H  H25  1  0.34081368  0.16538361  0.20124809  1  0  0.095187  0  0.966866  0  0  0.105823  0  1.028485  0  0  0.108533  0  1.027599  0  0.080608  0  0.10245  0.103826  0  1.029205  0
H  H26  1  0.89077816  0.01677509  0.29947403  1  0  0.095253  0  0.961752  0  0  0.097656  0  1.032549  0  0  0.101108  0  1.029425  0  0.145822  0  0.127076  0.095124  0  1.034831  0
H  H27  1  0.10922555  0.98322341  0.70052743  1  0  0.095248  0  0.961799  0  0  0.09764  0  1.032582  0  0  0.10109  0  1.029462  0  0.145716  0  0.127064  0.095107  0  1.034866  0
H  H28  1  0.80107927  0.03838841  0.12050251  1  0  0.102902  0  0.970102  0  0  0.114485  0  1.026963  0  0  0.117226  0  1.02713  0  0.076857  0  0.106963  0.112485  0  1.027061  0
H  H29  1  0.19892145  0.96161249  0.87949981  1  0  0.102872  0  0.970122  0  0  0.114445  0  1.026992  0  0  0.117185  0  1.02716  0  0.076788  0  0.106948  0.112445  0  1.027089  0
H  H30  1  0.25565991  0.93343493  0.02482859  1  0  0.102992  0  0.9628  0  0  0.114313  0  1.02044  0  0  0.117315  0  1.020134  0  0.085046  0  0.10637  0.112165  0  1.020801  0
H  H31  1  0.74434427  0.06656915  0.97517176  1  0  0.102968  0  0.962804  0  0  0.114321  0  1.020407  0  0  0.117321  0  1.020103  0  0.085061  0  0.10639  0.112173  0  1.020767  0
H  H32  1  0.32484133  0.91587501  0.20931907  1  0  0.082337  0  0.951573  0  0  0.089369  0  1.015216  0  0  0.091522  0  1.014191  0  0.118744  0  0.120773  0.087741  0  1.016044  0
H  H33  1  0.67516287  0.08412509  0.79068176  1  0  0.082339  0  0.951543  0  0  0.089377  0  1.015203  0  0  0.091528  0  1.014178  0  0.118693  0  0.12079  0.087749  0  1.016028  0
H  H34  1  0.31824865  0.65200794  0.55120082  1  0  0.118588  0  0.937267  0  0  0.14224  0  0.990241  0  0  0.143714  0  0.990108  0  0.05516  0  0.094876  0.141113  0  0.990429  0
H  H35  1  0.68174959  0.34799296  0.44879912  1  0  0.118556  0  0.937327  0  0  0.142226  0  0.990274  0  0  0.143702  0  0.990139  0  0.055183  0  0.094863  0.141098  0  0.990463  0
H  H36  1  0.30350907  0.57581736  0.66032648  1  0  0.10046  0  0.958777  0  0  0.121716  0  1.022873  0  0  0.121927  0  1.024547  0  0.002722  0  0.086473  0.12154  0  1.021711  0
H  H37  1  0.69648966  0.42418514  0.33967283  1  0  0.100461  0  0.958769  0  0  0.12171  0  1.022874  0  0  0.121922  0  1.024548  0  0.002712  0  0.086469  0.121534  0  1.021712  0
H  H38  1  0.11721501  0.59764682  0.59481636  1  0  0.106679  0  0.966949  0  0  0.127528  0  1.030661  0  0  0.127675  0  1.032944  0  0.055143  0  0.088604  0.12738  0  1.029107  0
H  H39  1  0.88278471  0.40235487  0.40518368  1  0  0.106698  0  0.966944  0  0  0.127547  0  1.030651  0  0  0.127695  0  1.032933  0  0.055074  0  0.088603  0.127399  0  1.029096  0
H  H40  1  0.07695819  0.35716614  0.82501670  1  0  0.111673  0  0.941804  0  0  0.13493  0  0.998031  0  0  0.136685  0  0.997144  0  0.040726  0  0.093787  0.133642  0  0.998679  0
H  H41  1  0.92303831  0.64283316  0.17497998  1  0  0.1117  0  0.94185  0  0  0.134953  0  0.998071  0  0  0.136716  0  0.997175  0  0.040775  0  0.093779  0.133665  0  0.998717  0
H  H42  1  0.18916671  0.49134611  0.82972510  1  0  0.10886  0  0.957983  0  0  0.131452  0  1.018339  0  0  0.132239  0  1.019349  0  0.034996  0  0.091881  0.130822  0  1.017693  0
H  H43  1  0.81083800  0.50865160  0.17027092  1  0  0.108923  0  0.957984  0  0  0.131516  0  1.018319  0  0  0.132297  0  1.019336  0  0.034972  0  0.091919  0.130888  0  1.017673  0
H  H44  1  0.19337112  0.41932457  0.94060716  1  0  0.099285  0  0.957827  0  0  0.121061  0  1.020946  0  0  0.121924  0  1.021101  0  0.005383  0  0.088036  0.120424  0  1.020825  0
H  H45  1  0.80662663  0.58067473  0.05938801  1  0  0.099214  0  0.957847  0  0  0.121006  0  1.02095  0  0  0.121866  0  1.021109  0  0.005294  0  0.08799  0.120369  0  1.020829  0
H  H46  1  0.92094799  0.69767044  0.82022528  1  0  0.110387  0  0.96515  0  0  0.131285  0  1.027136  0  0  0.132423  0  1.027805  0  0.053809  0  0.090636  0.130428  0  1.02669  0
H  H47  1  0.07904974  0.30233285  0.17977406  1  0  0.110417  0  0.965082  0  0  0.131312  0  1.027069  0  0  0.132449  0  1.027738  0  0.053865  0  0.090647  0.13045  0  1.026629  0
H  H48  1  0.97701327  0.73689633  0.95413748  1  0  0.103057  0  0.947747  0  0  0.124644  0  1.008402  0  0  0.125471  0  1.009169  0  0.032329  0  0.088191  0.124069  0  1.007826  0
H  H49  1  0.02298446  0.26310696  0.04586340  1  0  0.103075  0  0.947764  0  0  0.124671  0  1.0084  0  0  0.125498  0  1.00917  0  0.032184  0  0.088192  0.124097  0  1.007822  0
H  H50  1  0.98823975  0.60691492  0.90238844  1  0  0.097772  0  0.956468  0  0  0.119484  0  1.018733  0  0  0.12045  0  1.018428  0  0.022481  0  0.087452  0.118743  0  1.018982  0
H  H51  1  0.01175500  0.39308678  0.09761300  1  0  0.097775  0  0.956386  0  0  0.119486  0  1.018659  0  0  0.12045  0  1.018354  0  0.022441  0  0.087451  0.118745  0  1.018906  0
C  C52  1  0.03537126  0.19084535  0.50724777  1  0  0.696623  0  3.858697  0  0  0.647316  0  4.15676  0  0  0.68349  0  4.145659  0  1.521469  0  0.214332  0.622724  0  4.163318  0
C  C53  1  0.96463019  0.80915794  0.49275244  1  0  0.696848  0  3.858538  0  0  0.647516  0  4.156616  0  0  0.683688  0  4.145522  0  1.521549  0  0.21445  0.622924  0  4.163174  0
C  C54  1  0.13750809  0.29094394  0.47648842  1  0  -0.070209  0  3.77882  0  0  -0.045211  0  4.011532  0  0  -0.054225  0  4.034706  0  0.013733  0  -0.017347  -0.039454  0  3.996076  0
C  C55  1  0.86249411  0.70905776  0.52350938  1  0  -0.070268  0  3.778811  0  0  -0.045255  0  4.011534  0  0  -0.054267  0  4.034705  0  0.013645  0  -0.017362  -0.039495  0  3.996075  0
C  C56  1  0.14460278  0.38542265  0.53978653  1  0  -0.116659  0  3.684184  0  0  -0.145121  0  3.920668  0  0  -0.145314  0  3.940903  0  -0.026594  0  -0.080711  -0.144751  0  3.907009  0
C  C57  1  0.85539497  0.61457665  0.46021482  1  0  -0.116612  0  3.684193  0  0  -0.145083  0  3.920687  0  0  -0.145276  0  3.940922  0  -0.026555  0  -0.080707  -0.144713  0  3.907026  0
C  C58  1  0.22273637  0.29283504  0.38464564  1  0  -0.070293  0  3.739413  0  0  -0.100775  0  3.992677  0  0  -0.099804  0  4.012138  0  -0.072164  0  -0.086647  -0.10114  0  3.979562  0
C  C59  1  0.77726459  0.70716665  0.61535367  1  0  -0.070319  0  3.739326  0  0  -0.100806  0  3.992595  0  0  -0.099835  0  4.012056  0  -0.072  0  -0.086658  -0.101171  0  3.979479  0
C  C60  1  0.31447481  0.38908842  0.35746777  1  0  -0.082667  0  3.803091  0  0  -0.092116  0  4.056475  0  0  -0.095995  0  4.079363  0  -0.03228  0  -0.096739  -0.089582  0  4.040913  0
C  C61  1  0.68552416  0.61091487  0.64253159  1  0  -0.082675  0  3.803142  0  0  -0.092134  0  4.056515  0  0  -0.096013  0  4.079403  0  -0.032438  0  -0.096759  -0.0896  0  4.040953  0
C  C62  1  0.32260994  0.48277113  0.42180078  1  0  -0.106078  0  3.713607  0  0  -0.126283  0  3.952471  0  0  -0.127444  0  3.973904  0  -0.086813  0  -0.084094  -0.125255  0  3.93785  0
C  C63  1  0.67738730  0.51723057  0.57820073  1  0  -0.10608  0  3.713547  0  0  -0.126281  0  3.952388  0  0  -0.127442  0  3.973819  0  -0.086774  0  -0.084097  -0.125253  0  3.937766  0
C  C64  1  0.23755743  0.48233723  0.51387174  1  0  0.135822  0  3.765247  0  0  0.165258  0  4.000142  0  0  0.164467  0  4.02453  0  -0.032437  0  -0.007615  0.165592  0  3.983606  0
C  C65  1  0.76244204  0.51766366  0.48612977  1  0  0.13582  0  3.765342  0  0  0.165268  0  4.000197  0  0  0.164476  0  4.024587  0  -0.032304  0  -0.007597  0.165603  0  3.98366  0
C  C66  1  0.45233623  0.14979615  0.63900375  1  0  0.717936  0  3.854132  0  0  0.672367  0  4.141853  0  0  0.708531  0  4.130324  0  1.577743  0  0.236262  0.647785  0  4.148838  0
C  C67  1  0.54768014  0.85020315  0.36099582  1  0  0.717869  0  3.854156  0  0  0.672189  0  4.142099  0  0  0.708356  0  4.130567  0  1.577551  0  0.236148  0.647603  0  4.14908  0
C  C68  1  0.47431885  0.24595859  0.71526090  1  0  -0.070313  0  3.763136  0  0  -0.044114  0  3.992116  0  0  -0.051936  0  4.014553  0  0.007364  0  -0.019397  -0.03916  0  3.977162  0
C  C69  1  0.52568188  0.75403831  0.28474421  1  0  -0.070128  0  3.762948  0  0  -0.043963  0  3.992051  0  0  -0.051785  0  4.014488  0  0.007146  0  -0.019372  -0.038997  0  3.977076  0
C  C70  1  0.33134905  0.28172211  0.75068145  1  0  -0.12788  0  3.692383  0  0  -0.159864  0  3.93264  0  0  -0.160977  0  3.953901  0  -0.081257  0  -0.084572  -0.158884  0  3.918299  0
C  C71  1  0.66864971  0.71827241  0.24932265  1  0  -0.127997  0  3.692366  0  0  -0.15996  0  3.932651  0  0  -0.16107  0  3.953912  0  -0.080977  0  -0.084657  -0.15898  0  3.918302  0
C  C72  1  0.34770287  0.37315719  0.81935758  1  0  0.131492  0  3.768682  0  0  0.164038  0  4.000813  0  0  0.16316  0  4.026485  0  -0.02167  0  -0.011001  0.164456  0  3.98338  0
C  C73  1  0.65229439  0.62684052  0.18064286  1  0  0.131508  0  3.768715  0  0  0.164001  0  4.000914  0  0  0.163124  0  4.026584  0  -0.02164  0  -0.011025  0.164419  0  3.983483  0
C  C74  1  0.63700437  0.30179128  0.74872742  1  0  -0.082771  0  3.735017  0  0  -0.111612  0  3.986721  0  0  -0.111043  0  4.005498  0  -0.05871  0  -0.084722  -0.111744  0  3.973972  0
C  C75  1  0.36299785  0.69820643  0.25127548  1  0  -0.082771  0  3.735092  0  0  -0.111637  0  3.986815  0  0  -0.111067  0  4.005592  0  -0.058347  0  -0.084693  -0.111769  0  3.974068  0
C  C76  1  0.65443143  0.39333323  0.81700624  1  0  -0.077942  0  3.823047  0  0  -0.088041  0  4.078247  0  0  -0.090968  0  4.09963  0  -0.136606  0  -0.093916  -0.08609  0  4.063601  0
C  C77  1  0.34556756  0.60666607  0.18299360  1  0  -0.077928  0  3.822985  0  0  -0.088044  0  4.078173  0  0  -0.090976  0  4.09956  0  -0.136586  0  -0.093917  -0.086095  0  4.063534  0
C  C78  1  0.51153607  0.42874501  0.85189924  1  0  -0.125362  0  3.729547  0  0  -0.147106  0  3.972566  0  0  -0.148733  0  3.993464  0  -0.042084  0  -0.091462  -0.145721  0  3.958287  0
C  C79  1  0.48846392  0.57125350  0.14809749  1  0  -0.125477  0  3.729562  0  0  -0.147198  0  3.972604  0  0  -0.148823  0  3.993502  0  -0.042139  0  -0.091479  -0.145819  0  3.958325  0
C  C80  1  0.43462205  0.86918200  0.64845423  1  0  0.717823  0  3.849799  0  0  0.67222  0  4.141652  0  0  0.708314  0  4.130311  0  1.580121  0  0.236421  0.647683  0  4.148522  0
C  C81  1  0.56537917  0.13081650  0.35154484  1  0  0.717755  0  3.849781  0  0  0.672181  0  4.141555  0  0  0.708271  0  4.130215  0  1.580127  0  0.236369  0.647644  0  4.148427  0
C  C82  1  0.39714822  0.81529307  0.74623828  1  0  -0.066489  0  3.741743  0  0  -0.042795  0  3.971721  0  0  -0.050457  0  3.99387  0  -0.036893  0  -0.017806  -0.037938  0  3.956913  0
C  C83  1  0.60284755  0.18470384  0.25375820  1  0  -0.066563  0  3.7418  0  0  -0.042793  0  3.971642  0  0  -0.050452  0  3.99379  0  -0.037086  0  -0.017808  -0.037936  0  3.956834  0
C  C84  1  0.22900478  0.77722928  0.76863645  1  0  -0.127142  0  3.700109  0  0  -0.154067  0  3.939712  0  0  -0.154561  0  3.9598  0  -0.056473  0  -0.082552  -0.15351  0  3.926173  0
C  C85  1  0.77099744  0.22276842  0.23136182  1  0  -0.127161  0  3.700084  0  0  -0.154113  0  3.939657  0  0  -0.154607  0  3.959743  0  -0.056372  0  -0.082518  -0.153556  0  3.926119  0
C  C86  1  0.19014854  0.72965493  0.86040729  1  0  0.123558  0  3.773679  0  0  0.152685  0  4.01033  0  0  0.151845  0  4.035133  0  0.023687  0  -0.013678  0.153087  0  3.993501  0
C  C87  1  0.80984745  0.27034676  0.13959187  1  0  0.123451  0  3.773658  0  0  0.152572  0  4.010325  0  0  0.151731  0  4.035129  0  0.023734  0  -0.013768  0.152975  0  3.993494  0
C  C88  1  0.32420728  0.72012124  0.93008064  1  0  -0.128975  0  3.74547  0  0  -0.149794  0  3.989979  0  0  -0.151506  0  4.011565  0  -0.089314  0  -0.09551  -0.148381  0  3.975197  0
C  C89  1  0.67578699  0.27987886  0.06991912  1  0  -0.128876  0  3.74541  0  0  -0.149692  0  3.98994  0  0  -0.151402  0  4.011527  0  -0.089177  0  -0.095498  -0.148278  0  3.975156  0
C  C90  1  0.49220222  0.75691764  0.90823575  1  0  -0.088034  0  3.81588  0  0  -0.097993  0  4.067982  0  0  -0.101194  0  4.089336  0  -0.174608  0  -0.100281  -0.095853  0  4.053351  0
C  C91  1  0.50779379  0.24308006  0.09176235  1  0  -0.08814  0  3.815898  0  0  -0.098129  0  4.068  0  0  -0.101332  0  4.089355  0  -0.174927  0  -0.100313  -0.095989  0  4.053369  0
C  C92  1  0.52903358  0.80460126  0.81652094  1  0  -0.080353  0  3.758245  0  0  -0.107109  0  4.008611  0  0  -0.106932  0  4.02945  0  0.019451  0  -0.090304  -0.106933  0  3.994397  0
C  C93  1  0.47096492  0.19539644  0.18347722  1  0  -0.080301  0  3.758084  0  0  -0.107064  0  4.008436  0  0  -0.106883  0  4.02927  0  0.019678  0  -0.090277  -0.106883  0  3.994222  0
C  C94  1  0.96854018  0.99860988  0.23655267  1  0  0.149732  0  3.688437  0  0  0.122663  0  3.948268  0  0  0.129552  0  3.964445  0  0.539532  0  0.060023  0.118182  0  3.937257  0
C  C95  1  0.03146378  0.00138942  0.76344962  1  0  0.149795  0  3.688591  0  0  0.122787  0  3.948335  0  0  0.129676  0  3.964507  0  0.539648  0  0.060072  0.118305  0  3.937328  0
C  C96  1  0.91890606  0.01081783  0.13472096  1  0  -0.158533  0  3.69931  0  0  -0.173886  0  3.938905  0  0  -0.181881  0  3.960802  0  -0.072211  0  -0.081166  -0.168715  0  3.924245  0
C  C97  1  0.08109714  0.98918307  0.86528144  1  0  -0.158461  0  3.699428  0  0  -0.173846  0  3.93894  0  0  -0.181838  0  3.960835  0  -0.072218  0  -0.081123  -0.168673  0  3.924278  0
C  C98  1  0.02212985  0.99092981  0.05417767  1  0  0.087801  0  3.769396  0  0  0.099463  0  3.998539  0  0  0.103303  0  4.020252  0  -0.02515  0  0.008355  0.097056  0  3.983687  0
C  C99  1  0.97787508  0.00907268  0.94582490  1  0  0.087634  0  3.769542  0  0  0.09944  0  3.998545  0  0  0.103278  0  4.020259  0  -0.067199  0  0.008265  0.097032  0  3.983695  0
C  C100  1  0.16953985  0.95347459  0.08213333  1  0  -0.165777  0  3.711001  0  0  -0.181254  0  3.954236  0  0  -0.189087  0  3.975609  0  -0.038677  0  -0.082207  -0.17619  0  3.939865  0
C  C101  1  0.83046385  0.04652790  0.91786688  1  0  -0.165741  0  3.710985  0  0  -0.181246  0  3.954171  0  0  -0.189077  0  3.975544  0  -0.038683  0  -0.082223  -0.176184  0  3.939806  0
C  C102  1  0.20963993  0.94294709  0.18580656  1  0  0.137674  0  3.725783  0  0  0.110676  0  3.985212  0  0  0.11703  0  4.003205  0  0.482055  0  0.053519  0.106594  0  3.972843  0
C  C103  1  0.79036303  0.05705301  0.81419423  1  0  0.137812  0  3.725658  0  0  0.110753  0  3.98516  0  0  0.117108  0  4.003148  0  0.482459  0  0.053542  0.106674  0  3.972784  0
C  C104  1  0.24492106  0.58237521  0.58343073  1  0  -0.33791  0  3.737015  0  0  -0.420148  0  3.97348  0  0  -0.42249  0  3.984756  0  -0.047492  0  -0.242747  -0.418275  0  3.965701  0
C  C105  1  0.75508015  0.41762728  0.41656942  1  0  -0.337931  0  3.73709  0  0  -0.420173  0  3.973529  0  0  -0.422515  0  3.984805  0  -0.047685  0  -0.242743  -0.4183  0  3.965751  0
C  C106  1  0.19339907  0.41202814  0.85549050  1  0  -0.339414  0  3.744117  0  0  -0.420915  0  3.975299  0  0  -0.422641  0  3.984822  0  -0.035216  0  -0.239864  -0.41941  0  3.968737  0
C  C107  1  0.80660067  0.58796956  0.14450538  1  0  -0.339449  0  3.744124  0  0  -0.420939  0  3.975301  0  0  -0.422664  0  3.984824  0  -0.035183  0  -0.239841  -0.419436  0  3.96874  0
C  C108  1  0.00935914  0.69098976  0.88514214  1  0  -0.334068  0  3.738317  0  0  -0.41351  0  3.969341  0  0  -0.415396  0  3.979506  0  -0.082493  0  -0.240011  -0.411939  0  3.962306  0
C  C109  1  0.99063562  0.30901193  0.11485776  1  0  -0.334082  0  3.738166  0  0  -0.413526  0  3.969179  0  0  -0.415411  0  3.979344  0  -0.082356  0  -0.23999  -0.411952  0  3.962143  0
N  N110  1  0.11345611  0.96702419  0.26307565  1  0  -0.382015  0  3.198123  0  0  -0.336306  0  3.470632  0  0  -0.350953  0  3.486269  0  -1.242334  0  -0.364924  -0.326063  0  3.459938  0
N  N111  1  0.88654784  0.03297511  0.73692664  1  0  -0.382198  0  3.198173  0  0  -0.336494  0  3.470696  0  0  -0.351132  0  3.486328  0  -1.242619  0  -0.364978  -0.326248  0  3.460003  0
O  O112  1  0.03749676  0.10003000  0.45549868  1  0  -0.817525  0  2.104417  0  0  -0.770467  0  2.371645  0  0  -0.79862  0  2.359012  0  -1.208829  0  -0.436056  -0.749946  0  2.379732  0
O  O113  1  0.96250892  0.89997090  0.54450225  1  0  -0.817547  0  2.104367  0  0  -0.770497  0  2.371634  0  0  -0.798647  0  2.359004  0  -1.208876  0  -0.436072  -0.749975  0  2.379724  0
O  O114  1  0.94000564  0.19424232  0.58204608  1  0  -0.669373  0  1.986984  0  0  -0.631542  0  2.230902  0  0  -0.656328  0  2.220514  0  -1.178978  0  -0.37073  -0.614029  0  2.237614  0
O  O115  1  0.05999905  0.80575938  0.41795256  1  0  -0.669468  0  1.986802  0  0  -0.631631  0  2.230732  0  0  -0.656435  0  2.220351  0  -1.179024  0  -0.370796  -0.614121  0  2.237444  0
O  O116  1  0.58300538  0.11157683  0.61892746  1  0  -0.754494  0  2.132467  0  0  -0.710228  0  2.398959  0  0  -0.737165  0  2.385306  0  -1.207079  0  -0.409569  -0.69083  0  2.407806  0
O  O117  1  0.41699509  0.88842327  0.38107634  1  0  -0.754517  0  2.132128  0  0  -0.710167  0  2.398597  0  0  -0.737122  0  2.384937  0  -1.206907  0  -0.409576  -0.690768  0  2.407446  0
O  O118  1  0.30511912  0.11145480  0.59820097  1  0  -0.703807  0  2.065043  0  0  -0.658495  0  2.315921  0  0  -0.685746  0  2.306642  0  -1.196886  0  -0.37706  -0.63912  0  2.32174  0
O  O119  1  0.69488263  0.88853732  0.40180150  1  0  -0.703796  0  2.065486  0  0  -0.658432  0  2.316401  0  0  -0.685665  0  2.30712  0  -1.196983  0  -0.376962  -0.639085  0  2.322284  0
O  O120  1  0.31015467  0.88886514  0.59491614  1  0  -0.718053  0  2.084502  0  0  -0.673313  0  2.339133  0  0  -0.7004  0  2.328691  0  -1.200599  0  -0.38877  -0.653976  0  2.345791  0
O  O121  1  0.68983439  0.11113416  0.40508187  1  0  -0.717934  0  2.084766  0  0  -0.673215  0  2.339392  0  0  -0.700309  0  2.329003  0  -1.200643  0  -0.388621  -0.65387  0  2.346039  0
O  O122  1  0.58854630  0.89290338  0.62621431  1  0  -0.736498  0  2.104209  0  0  -0.694959  0  2.367713  0  0  -0.722362  0  2.357103  0  -1.194263  0  -0.397509  -0.675309  0  2.374529  0
O  O123  1  0.41144127  0.10709513  0.37378592  1  0  -0.736574  0  2.10393  0  0  -0.695078  0  2.367463  0  0  -0.722494  0  2.356851  0  -1.194224  0  -0.397632  -0.675429  0  2.374275  0
