# generated using pymatgen
data_ZnH14C12(NO)4
_symmetry_space_group_name_H-M   'P 1'
_cell_length_a   8.87113026
_cell_length_b   8.87103783
_cell_length_c   9.22958426
_cell_angle_alpha   92.25941423
_cell_angle_beta   92.26001151
_cell_angle_gamma   102.24148198
_symmetry_Int_Tables_number   1
_chemical_formula_structural   ZnH14C12(NO)4
_chemical_formula_sum   'Zn2 H28 C24 N8 O8'
_cell_volume   708.41584028
_cell_formula_units_Z   2
loop_
 _symmetry_equiv_pos_site_id
 _symmetry_equiv_pos_as_xyz
  1  'x, y, z'
loop_
 _atom_site_type_symbol
 _atom_site_label
 _atom_site_symmetry_multiplicity
 _atom_site_fract_x
 _atom_site_fract_y
 _atom_site_fract_z
 _atom_site_occupancy
 _atom_site_hle17_bader_spin_density
 _atom_site_hle17_ddec_charge
 _atom_site_hle17_ddec_spin_density
 _atom_site_hle17_ddec_sum_bond_order
 _atom_site_hle17_magmom
 _atom_site_hse06_10hf_bader_spin_density
 _atom_site_hse06_10hf_ddec_charge
 _atom_site_hse06_10hf_ddec_spin_density
 _atom_site_hse06_10hf_ddec_sum_bond_order
 _atom_site_hse06_10hf_magmom
 _atom_site_hse06_bader_spin_density
 _atom_site_hse06_ddec_charge
 _atom_site_hse06_ddec_spin_density
 _atom_site_hse06_ddec_sum_bond_order
 _atom_site_hse06_magmom
 _atom_site_pbe_bader_spin_density
 _atom_site_pbe_cm5_charge
 _atom_site_pbe_ddec_charge
 _atom_site_pbe_ddec_spin_density
 _atom_site_pbe_ddec_sum_bond_order
 _atom_site_pbe_magmom
Zn  Zn0  1  0.88742759  0.11257092  0.75000527  1  0  0.989734  0  1.929322  0  0  0.821862  0  2.378755  0  0  0.864432  0  2.332314  0  0  0.671215  0.791228  0  2.41062  0
Zn  Zn1  1  0.11256693  0.88742317  0.25000656  1  0  0.989907  0  1.929202  0  0  0.821951  0  2.378591  0  0  0.864516  0  2.332153  0  0  0.671204  0.791306  0  2.410463  0
H  H2  1  0.51194483  0.01857579  0.64199689  1  0  0.105141  0  0.951835  0  0  0.115625  0  1.012142  0  0  0.118777  0  1.00964  0  0  0.116788  0.113452  0  1.013953  0
H  H3  1  0.98140076  0.48806184  0.85800221  1  0  0.105095  0  0.95191  0  0  0.11558  0  1.012233  0  0  0.118732  0  1.009728  0  0  0.116794  0.113415  0  1.014032  0
H  H4  1  0.48804741  0.98139560  0.35797868  1  0  0.105149  0  0.95175  0  0  0.115559  0  1.012136  0  0  0.118711  0  1.009634  0  0  0.116776  0.113398  0  1.013932  0
H  H5  1  0.01859557  0.51196230  0.14201891  1  0  0.105132  0  0.951566  0  0  0.11552  0  1.011985  0  0  0.118672  0  1.009482  0  0  0.116726  0.11335  0  1.013791  0
H  H6  1  0.29990684  0.13518312  0.80049223  1  0  0.135571  0  0.983861  0  0  0.142168  0  1.045675  0  0  0.145987  0  1.043089  0  0  0.12101  0.139258  0  1.048301  0
H  H7  1  0.86480685  0.70010690  0.69951755  1  0  0.135587  0  0.983996  0  0  0.14212  0  1.04588  0  0  0.145935  0  1.043295  0  0  0.120965  0.139212  0  1.048503  0
H  H8  1  0.70008391  0.86479771  0.19949867  1  0  0.135415  0  0.984019  0  0  0.14208  0  1.045791  0  0  0.145906  0  1.04319  0  0  0.120909  0.13917  0  1.048417  0
H  H9  1  0.13519003  0.29992067  0.30050257  1  0  0.135484  0  0.983991  0  0  0.142174  0  1.045724  0  0  0.145996  0  1.043133  0  0  0.120981  0.139263  0  1.048351  0
H  H10  1  0.51779909  0.29913526  0.16212975  1  0  0.060156  0  0.926354  0  0  0.077755  0  0.990428  0  0  0.078315  0  0.990058  0  0  0.106181  0.077079  0  0.991022  0
H  H11  1  0.70087370  0.48221015  0.33786632  1  0  0.06019  0  0.926393  0  0  0.077864  0  0.990398  0  0  0.078428  0  0.99002  0  0  0.106189  0.077154  0  0.991028  0
H  H12  1  0.48219841  0.70086829  0.83784112  1  0  0.060131  0  0.926327  0  0  0.077745  0  0.990457  0  0  0.078308  0  0.990086  0  0  0.106121  0.07703  0  0.991091  0
H  H13  1  0.29914014  0.51779073  0.66215143  1  0  0.060128  0  0.926369  0  0  0.077816  0  0.990406  0  0  0.078378  0  0.99003  0  0  0.106139  0.077109  0  0.991033  0
H  H14  1  0.32538977  0.22258670  0.09680865  1  0  0.09703  0  0.957052  0  0  0.108682  0  1.022761  0  0  0.109968  0  1.022438  0  0  0.112129  0.107485  0  1.022505  0
H  H15  1  0.77740339  0.67462319  0.40319739  1  0  0.097086  0  0.957096  0  0  0.108742  0  1.022785  0  0  0.110028  0  1.022464  0  0  0.112225  0.107547  0  1.022522  0
H  H16  1  0.67461079  0.77739323  0.90317266  1  0  0.096966  0  0.957164  0  0  0.108834  0  1.022671  0  0  0.110129  0  1.022331  0  0  0.112204  0.107639  0  1.022409  0
H  H17  1  0.22260220  0.32537607  0.59681693  1  0  0.097051  0  0.957148  0  0  0.108804  0  1.022758  0  0  0.110092  0  1.022428  0  0  0.112214  0.107608  0  1.022494  0
H  H18  1  0.73360880  0.22275316  0.03553776  1  0  0.093828  0  0.935904  0  0  0.104421  0  0.997661  0  0  0.106943  0  0.99497  0  0  0.134782  0.102434  0  1.00023  0
H  H19  1  0.77725927  0.26641045  0.46445897  1  0  0.093831  0  0.935981  0  0  0.104416  0  0.997741  0  0  0.106938  0  0.995052  0  0  0.134814  0.102427  0  1.00031  0
H  H20  1  0.26640054  0.77726112  0.96442814  1  0  0.093726  0  0.935932  0  0  0.104391  0  0.99762  0  0  0.106913  0  0.994933  0  0  0.134768  0.102404  0  1.000186  0
H  H21  1  0.22277681  0.73360770  0.53556715  1  0  0.093647  0  0.935982  0  0  0.104332  0  0.997657  0  0  0.10685  0  0.994974  0  0  0.13473  0.102346  0  1.000224  0
H  H22  1  0.36966968  0.50292431  0.10596784  1  0  0.073363  0  0.947184  0  0  0.090174  0  1.010445  0  0  0.090345  0  1.012541  0  0  0.092269  0.089542  0  1.009779  0
H  H23  1  0.49706514  0.63032214  0.39402684  1  0  0.073324  0  0.947212  0  0  0.090114  0  1.010485  0  0  0.090273  0  1.012591  0  0  0.092254  0.089483  0  1.009817  0
H  H24  1  0.63031112  0.49705921  0.89401208  1  0  0.073427  0  0.947316  0  0  0.090198  0  1.010594  0  0  0.090353  0  1.012708  0  0  0.092283  0.089612  0  1.009875  0
H  H25  1  0.50294499  0.36967144  0.60597987  1  0  0.073425  0  0.947149  0  0  0.090135  0  1.010459  0  0  0.090299  0  1.012564  0  0  0.092246  0.089509  0  1.009793  0
H  H26  1  0.33992532  0.43325257  0.92411395  1  0  0.070816  0  0.927289  0  0  0.093099  0  0.982774  0  0  0.093524  0  0.983561  0  0  0.093944  0.092422  0  0.983042  0
H  H27  1  0.56672336  0.66006783  0.57587868  1  0  0.070839  0  0.927236  0  0  0.093097  0  0.982722  0  0  0.093518  0  0.983508  0  0  0.093936  0.092421  0  0.982988  0
H  H28  1  0.66005490  0.56672063  0.07586576  1  0  0.070945  0  0.927264  0  0  0.093179  0  0.982746  0  0  0.093601  0  0.98353  0  0  0.094018  0.092472  0  0.983058  0
H  H29  1  0.43328029  0.33993454  0.42412590  1  0  0.070854  0  0.927334  0  0  0.09305  0  0.982813  0  0  0.093471  0  0.983603  0  0  0.093934  0.092377  0  0.983082  0
C  C30  1  0.52647664  0.07745311  0.74843468  1  0  -0.008151  0  3.75371  0  0  -0.042864  0  4.026095  0  0  -0.041224  0  4.045088  0  0  -0.007528  -0.043726  0  4.013307  0
C  C31  1  0.92251979  0.47353274  0.75157285  1  0  -0.007925  0  3.753745  0  0  -0.042631  0  4.026117  0  0  -0.040988  0  4.045104  0  0  -0.007462  -0.043501  0  4.013333  0
C  C32  1  0.47351130  0.92251147  0.25155151  1  0  -0.008108  0  3.753715  0  0  -0.042745  0  4.026117  0  0  -0.041103  0  4.045109  0  0  -0.007451  -0.043616  0  4.013328  0
C  C33  1  0.07748827  0.52650010  0.24845409  1  0  -0.008029  0  3.753895  0  0  -0.04265  0  4.026295  0  0  -0.041009  0  4.045292  0  0  -0.00745  -0.043516  0  4.013508  0
C  C34  1  0.91503353  0.97094626  0.46878893  1  0  0.523258  0  3.917903  0  0  0.480128  0  4.211842  0  0  0.50898  0  4.205295  0  0  0.199163  0.459643  0  4.217663  0
C  C35  1  0.02904827  0.08496049  0.03122253  1  0  0.52314  0  3.918256  0  0  0.480146  0  4.212006  0  0  0.509004  0  4.205454  0  0  0.199236  0.459659  0  4.217832  0
C  C36  1  0.08495895  0.02907140  0.53120814  1  0  0.523061  0  3.918225  0  0  0.480117  0  4.211951  0  0  0.508972  0  4.205397  0  0  0.199213  0.459627  0  4.217776  0
C  C37  1  0.97092373  0.91503371  0.96879102  1  0  0.523173  0  3.918093  0  0  0.480119  0  4.211952  0  0  0.508974  0  4.205396  0  0  0.19922  0.459634  0  4.21777  0
C  C38  1  0.42035972  0.13510041  0.82644594  1  0  -0.07017  0  3.653218  0  0  -0.11094  0  3.913695  0  0  -0.109557  0  3.931826  0  0  -0.003075  -0.111743  0  3.902643  0
C  C39  1  0.86487621  0.57965713  0.67355665  1  0  -0.070355  0  3.653609  0  0  -0.111095  0  3.914073  0  0  -0.10971  0  3.932203  0  0  -0.003075  -0.1119  0  3.903027  0
C  C40  1  0.57963449  0.86485421  0.17354126  1  0  -0.069871  0  3.65317  0  0  -0.110712  0  3.913529  0  0  -0.109338  0  3.93166  0  0  -0.002961  -0.111515  0  3.902482  0
C  C41  1  0.13512894  0.42037304  0.32646042  1  0  -0.069863  0  3.653342  0  0  -0.110735  0  3.913714  0  0  -0.10936  0  3.931848  0  0  -0.002986  -0.111536  0  3.902664  0
C  C42  1  0.43772023  0.28898109  0.06650326  1  0  -0.000341  0  3.617913  0  0  -0.064994  0  3.882623  0  0  -0.06088  0  3.893852  0  0  -0.053544  -0.066859  0  3.873614  0
C  C43  1  0.71101507  0.56228856  0.43349113  1  0  -0.000505  0  3.617922  0  0  -0.065245  0  3.882654  0  0  -0.061131  0  3.893877  0  0  -0.053642  -0.067088  0  3.873643  0
C  C44  1  0.56227403  0.71100975  0.93346839  1  0  -6.8e-05  0  3.617577  0  0  -0.065  0  3.882433  0  0  -0.060892  0  3.893667  0  0  -0.053495  -0.066835  0  3.87343  0
C  C45  1  0.28899204  0.43771307  0.56652326  1  0  -0.000226  0  3.617789  0  0  -0.065148  0  3.882616  0  0  -0.061028  0  3.893837  0  0  -0.053593  -0.066986  0  3.873611  0
C  C46  1  0.64551983  0.18104973  0.95004039  1  0  0.149686  0  3.679336  0  0  0.086599  0  3.951311  0  0  0.099348  0  3.965331  0  0  0.136536  0.078229  0  3.942924  0
C  C47  1  0.81896430  0.35450276  0.54995528  1  0  0.149531  0  3.679742  0  0  0.086463  0  3.951765  0  0  0.099205  0  3.965793  0  0  0.136449  0.078099  0  3.943368  0
C  C48  1  0.35449507  0.81896963  0.04993547  1  0  0.149862  0  3.679901  0  0  0.086721  0  3.951917  0  0  0.099461  0  3.965948  0  0  0.136536  0.078355  0  3.94352  0
C  C49  1  0.18105445  0.64551336  0.45006830  1  0  0.150008  0  3.679489  0  0  0.086829  0  3.951511  0  0  0.099578  0  3.965534  0  0  0.136545  0.078463  0  3.943117  0
C  C50  1  0.42326530  0.44842800  0.01817464  1  0  -0.128488  0  3.688005  0  0  -0.171598  0  3.954256  0  0  -0.172964  0  3.968333  0  0  -0.165488  -0.170532  0  3.945106  0
C  C51  1  0.55156589  0.57672489  0.48182063  1  0  -0.128406  0  3.687984  0  0  -0.171482  0  3.954158  0  0  -0.172835  0  3.968228  0  0  -0.165464  -0.170416  0  3.945008  0
C  C52  1  0.57671597  0.55155888  0.98180102  1  0  -0.128818  0  3.688133  0  0  -0.171813  0  3.954476  0  0  -0.173162  0  3.968551  0  0  -0.165604  -0.170773  0  3.945336  0
C  C53  1  0.44844168  0.42327322  0.51818936  1  0  -0.128672  0  3.688115  0  0  -0.171496  0  3.954199  0  0  -0.172859  0  3.968275  0  0  -0.165445  -0.170458  0  3.945068  0
N  N54  1  0.66636743  0.10664806  0.82684964  1  0  -0.376439  0  3.296253  0  0  -0.307034  0  3.587338  0  0  -0.325693  0  3.604287  0  0  -0.35585  -0.294182  0  3.575174  0
N  N55  1  0.89335294  0.33365205  0.67315378  1  0  -0.376381  0  3.296013  0  0  -0.307036  0  3.587141  0  0  -0.325691  0  3.604088  0  0  -0.355855  -0.294184  0  3.574976  0
N  N56  1  0.33363809  0.89335593  0.17312357  1  0  -0.376506  0  3.296334  0  0  -0.307156  0  3.587472  0  0  -0.325806  0  3.604415  0  0  -0.355851  -0.294304  0  3.57531  0
N  N57  1  0.10666581  0.66637778  0.32686898  1  0  -0.376587  0  3.296515  0  0  -0.307188  0  3.587647  0  0  -0.325843  0  3.60459  0  0  -0.355823  -0.294335  0  3.575487  0
N  N58  1  0.49798299  0.20029309  0.95417749  1  0  -0.063046  0  3.577393  0  0  0.03252  0  3.796352  0  0  0.01784  0  3.824003  0  0  -0.244542  0.042592  0  3.777837  0
N  N59  1  0.79970888  0.50202935  0.54582123  1  0  -0.062945  0  3.577707  0  0  0.032644  0  3.796649  0  0  0.017964  0  3.824307  0  0  -0.244528  0.042719  0  3.778116  0
N  N60  1  0.50200489  0.79969882  0.04580381  1  0  -0.063439  0  3.577746  0  0  0.032166  0  3.796845  0  0  0.017487  0  3.824506  0  0  -0.244673  0.042241  0  3.778311  0
N  N61  1  0.20030049  0.49798509  0.45419887  1  0  -0.063478  0  3.577734  0  0  0.032123  0  3.796827  0  0  0.017446  0  3.824478  0  0  -0.244576  0.042199  0  3.778296  0
O  O62  1  0.80690766  0.99522971  0.54639366  1  0  -0.5751  0  2.020637  0  0  -0.521242  0  2.26828  0  0  -0.544207  0  2.257558  0  0  -0.316086  -0.505224  0  2.276608  0
O  O63  1  0.00476569  0.19309662  0.95361644  1  0  -0.575142  0  2.020596  0  0  -0.521297  0  2.268139  0  0  -0.544264  0  2.257417  0  0  -0.31616  -0.505274  0  2.276466  0
O  O64  1  0.19309654  0.00477512  0.45361748  1  0  -0.57515  0  2.020763  0  0  -0.521217  0  2.268211  0  0  -0.544184  0  2.257483  0  0  -0.316062  -0.5052  0  2.27655  0
O  O65  1  0.99523419  0.80690234  0.04639667  1  0  -0.575228  0  2.020515  0  0  -0.521331  0  2.268099  0  0  -0.544302  0  2.257373  0  0  -0.316131  -0.505311  0  2.276426  0
O  O66  1  0.89721565  0.90209424  0.34461888  1  0  -0.581934  0  2.126077  0  0  -0.523376  0  2.370714  0  0  -0.54767  0  2.362445  0  0  -0.302292  -0.505422  0  2.376453  0
O  O67  1  0.09789297  0.10277291  0.15539476  1  0  -0.581862  0  2.126414  0  0  -0.523374  0  2.371022  0  0  -0.547667  0  2.362746  0  0  -0.302304  -0.505419  0  2.376765  0
O  O68  1  0.10275260  0.09790534  0.65538821  1  0  -0.581735  0  2.12624  0  0  -0.52337  0  2.370943  0  0  -0.547657  0  2.362664  0  0  -0.302343  -0.505416  0  2.376687  0
O  O69  1  0.90209961  0.89722333  0.84461490  1  0  -0.581735  0  2.126346  0  0  -0.523291  0  2.371038  0  0  -0.547578  0  2.362759  0  0  -0.302307  -0.505343  0  2.376777  0
