# generated using pymatgen
data_ZnH20C26(NO)6
_symmetry_space_group_name_H-M   'P 1'
_cell_length_a   8.52073917
_cell_length_b   10.60953879
_cell_length_c   13.81548347
_cell_angle_alpha   90.00011270
_cell_angle_beta   89.99982581
_cell_angle_gamma   106.75266003
_symmetry_Int_Tables_number   1
_chemical_formula_structural   ZnH20C26(NO)6
_chemical_formula_sum   'Zn2 H40 C52 N12 O12'
_cell_volume   1195.92775054
_cell_formula_units_Z   2
loop_
 _symmetry_equiv_pos_site_id
 _symmetry_equiv_pos_as_xyz
  1  'x, y, z'
loop_
 _atom_site_type_symbol
 _atom_site_label
 _atom_site_symmetry_multiplicity
 _atom_site_fract_x
 _atom_site_fract_y
 _atom_site_fract_z
 _atom_site_occupancy
 _atom_site_hle17_bader_spin_density
 _atom_site_hle17_ddec_charge
 _atom_site_hle17_ddec_spin_density
 _atom_site_hle17_ddec_sum_bond_order
 _atom_site_hle17_magmom
 _atom_site_hse06_10hf_bader_spin_density
 _atom_site_hse06_10hf_ddec_charge
 _atom_site_hse06_10hf_ddec_spin_density
 _atom_site_hse06_10hf_ddec_sum_bond_order
 _atom_site_hse06_10hf_magmom
 _atom_site_hse06_bader_spin_density
 _atom_site_hse06_ddec_charge
 _atom_site_hse06_ddec_spin_density
 _atom_site_hse06_ddec_sum_bond_order
 _atom_site_hse06_magmom
 _atom_site_pbe_bader_spin_density
 _atom_site_pbe_cm5_charge
 _atom_site_pbe_ddec_charge
 _atom_site_pbe_ddec_spin_density
 _atom_site_pbe_ddec_sum_bond_order
 _atom_site_pbe_magmom
Zn  Zn0  1  0.00000118  0.50000019  0.50000025  1  0  0.890289  0  1.979031  0  0  0.693157  0  2.426208  0  0  0.738459  0  2.383393  0  0  0.676959  0.662124  0  2.45468  0
Zn  Zn1  1  0.00000000  0.00000000  0.00000000  1  0  0.89036  0  1.979004  0  0  0.693164  0  2.426189  0  0  0.738464  0  2.383376  0  0  0.67697  0.662132  0  2.454662  0
H  H2  1  0.78649142  0.51503527  0.99318385  1  0  0.294563  0  0.944561  0  0  0.273459  0  1.015405  0  0  0.282601  0  1.007987  0  0  0.296279  0.266937  0  1.020714  0
H  H3  1  0.21350900  0.98496560  0.49318415  1  0  0.294483  0  0.944705  0  0  0.273404  0  1.015487  0  0  0.282549  0  1.008068  0  0  0.296264  0.266879  0  1.020796  0
H  H4  1  0.21350745  0.48496444  0.00681643  1  0  0.294455  0  0.944686  0  0  0.27337  0  1.015476  0  0  0.282514  0  1.008059  0  0  0.296231  0.266847  0  1.020782  0
H  H5  1  0.78649103  0.01503411  0.50681686  1  0  0.294577  0  0.94457  0  0  0.273464  0  1.015421  0  0  0.282608  0  1.008002  0  0  0.296274  0.266933  0  1.02073  0
H  H6  1  0.90905010  0.18418194  0.21935172  1  0  0.113579  0  0.9637  0  0  0.118936  0  1.030376  0  0  0.12204  0  1.030514  0  0  0.109232  0.116355  0  1.031248  0
H  H7  1  0.09094393  0.31581693  0.71935174  1  0  0.113592  0  0.96369  0  0  0.118933  0  1.03038  0  0  0.122039  0  1.030519  0  0  0.109237  0.116355  0  1.031257  0
H  H8  1  0.09094994  0.81581778  0.78064856  1  0  0.113568  0  0.963706  0  0  0.118917  0  1.030387  0  0  0.122023  0  1.030524  0  0  0.109236  0.116341  0  1.031261  0
H  H9  1  0.90905458  0.68418179  0.28064854  1  0  0.113593  0  0.963677  0  0  0.118946  0  1.030356  0  0  0.122055  0  1.030496  0  0  0.109238  0.116366  0  1.031232  0
H  H10  1  0.08168272  0.33414874  0.09644631  1  0  0.109434  0  0.983171  0  0  0.116477  0  1.048491  0  0  0.120536  0  1.044841  0  0  0.110154  0.113517  0  1.051113  0
H  H11  1  0.91831654  0.16584996  0.59644744  1  0  0.109416  0  0.983223  0  0  0.116492  0  1.048491  0  0  0.120556  0  1.044839  0  0  0.110166  0.113534  0  1.051111  0
H  H12  1  0.91831884  0.66585197  0.90355397  1  0  0.109427  0  0.983187  0  0  0.116469  0  1.048511  0  0  0.12053  0  1.044858  0  0  0.110148  0.113511  0  1.051131  0
H  H13  1  0.08168467  0.83414976  0.40355212  1  0  0.109429  0  0.983173  0  0  0.116504  0  1.048455  0  0  0.120568  0  1.0448  0  0  0.110174  0.113544  0  1.051078  0
H  H14  1  0.19180003  0.63809372  0.31554771  1  0  0.08908  0  0.949831  0  0  0.096423  0  1.015653  0  0  0.099809  0  1.011862  0  0  0.12241  0.093721  0  1.019084  0
H  H15  1  0.80820966  0.86190102  0.81554645  1  0  0.089028  0  0.949871  0  0  0.096388  0  1.015677  0  0  0.099773  0  1.011886  0  0  0.122367  0.093695  0  1.019105  0
H  H16  1  0.80820201  0.36190503  0.68445185  1  0  0.089052  0  0.949846  0  0  0.096382  0  1.01568  0  0  0.099767  0  1.01189  0  0  0.122409  0.093685  0  1.019107  0
H  H17  1  0.19179073  0.13809968  0.18445456  1  0  0.089063  0  0.949877  0  0  0.096426  0  1.015668  0  0  0.099812  0  1.011876  0  0  0.122398  0.093726  0  1.019095  0
H  H18  1  0.41946988  0.59363736  0.91586449  1  0  0.086402  0  0.904092  0  0  0.107357  0  0.956489  0  0  0.107852  0  0.955885  0  0  0.118153  0.107002  0  0.956833  0
H  H19  1  0.58052784  0.90636141  0.41586542  1  0  0.086378  0  0.90405  0  0  0.107336  0  0.956448  0  0  0.107832  0  0.955845  0  0  0.118155  0.106982  0  0.956794  0
H  H20  1  0.58052934  0.40636333  0.08413579  1  0  0.086393  0  0.904091  0  0  0.107352  0  0.956489  0  0  0.107846  0  0.955885  0  0  0.118153  0.107  0  0.956832  0
H  H21  1  0.41947303  0.09363733  0.58413341  1  0  0.08639  0  0.90412  0  0  0.10733  0  0.956517  0  0  0.107831  0  0.955917  0  0  0.118142  0.106973  0  0.95686  0
H  H22  1  0.52312563  0.68387600  0.01690280  1  0  0.08718  0  0.916272  0  0  0.102001  0  0.980544  0  0  0.102457  0  0.97974  0  0  0.113213  0.101547  0  0.981307  0
H  H23  1  0.47687263  0.81612215  0.51690426  1  0  0.087249  0  0.916212  0  0  0.102032  0  0.980514  0  0  0.10249  0  0.979712  0  0  0.113237  0.101576  0  0.981279  0
H  H24  1  0.47687523  0.31612274  0.98309749  1  0  0.087188  0  0.916276  0  0  0.102019  0  0.980533  0  0  0.102475  0  0.97973  0  0  0.113222  0.101565  0  0.981295  0
H  H25  1  0.52312741  0.18387757  0.48309457  1  0  0.087256  0  0.916229  0  0  0.102029  0  0.980523  0  0  0.10249  0  0.979725  0  0  0.113233  0.101574  0  0.981286  0
H  H26  1  0.55688975  0.81125564  0.82961130  1  0  0.101126  0  0.974055  0  0  0.112263  0  1.035555  0  0  0.115395  0  1.032669  0  0  0.105606  0.109992  0  1.037598  0
H  H27  1  0.44311138  0.68874498  0.32961144  1  0  0.101134  0  0.974021  0  0  0.11226  0  1.035547  0  0  0.115395  0  1.03265  0  0  0.105589  0.109985  0  1.03759  0
H  H28  1  0.44310946  0.18874506  0.17038898  1  0  0.101115  0  0.974046  0  0  0.112241  0  1.035567  0  0  0.115375  0  1.032673  0  0  0.105589  0.109966  0  1.03761  0
H  H29  1  0.55688983  0.31125474  0.67038812  1  0  0.101135  0  0.974033  0  0  0.112267  0  1.035541  0  0  0.115399  0  1.032653  0  0  0.105611  0.109993  0  1.037584  0
H  H30  1  0.52173355  0.02990453  0.78226676  1  0  0.108486  0  0.941655  0  0  0.120032  0  0.99672  0  0  0.12283  0  0.996228  0  0  0.108725  0.118028  0  0.997222  0
H  H31  1  0.47826526  0.47009544  0.28226726  1  0  0.108489  0  0.941682  0  0  0.120054  0  0.996735  0  0  0.122853  0  0.996241  0  0  0.108723  0.118048  0  0.997238  0
H  H32  1  0.47826601  0.97009715  0.21773280  1  0  0.108461  0  0.941677  0  0  0.119987  0  0.996766  0  0  0.122784  0  0.996277  0  0  0.108707  0.117982  0  0.997268  0
H  H33  1  0.52173325  0.52990328  0.71773302  1  0  0.108466  0  0.941663  0  0  0.120013  0  0.996733  0  0  0.122811  0  0.996241  0  0  0.10871  0.118007  0  0.997235  0
H  H34  1  0.69560420  0.89433544  0.13777659  1  0  0.073999  0  0.957338  0  0  0.081827  0  1.023013  0  0  0.083879  0  1.021236  0  0  0.112243  0.08029  0  1.024292  0
H  H35  1  0.30439541  0.60566487  0.63777662  1  0  0.073987  0  0.957354  0  0  0.081815  0  1.02303  0  0  0.083868  0  1.021252  0  0  0.112233  0.080275  0  1.024311  0
H  H36  1  0.30439466  0.10566427  0.86222369  1  0  0.073995  0  0.957376  0  0  0.081821  0  1.02305  0  0  0.083874  0  1.021272  0  0  0.112234  0.080283  0  1.024328  0
H  H37  1  0.69560463  0.39433485  0.36222294  1  0  0.073987  0  0.957333  0  0  0.081816  0  1.02301  0  0  0.083869  0  1.021233  0  0  0.112238  0.080279  0  1.024289  0
H  H38  1  0.83068975  0.22640353  0.96352195  1  0  0.069467  0  0.98386  0  0  0.076157  0  1.054265  0  0  0.077433  0  1.053787  0  0  0.109468  0.075146  0  1.054687  0
H  H39  1  0.16930875  0.27359476  0.46352128  1  0  0.069478  0  0.983816  0  0  0.076177  0  1.05422  0  0  0.077453  0  1.053742  0  0  0.109456  0.075165  0  1.054641  0
H  H40  1  0.16930911  0.77359618  0.03647834  1  0  0.069481  0  0.983833  0  0  0.076166  0  1.054254  0  0  0.077443  0  1.053776  0  0  0.109463  0.075155  0  1.054675  0
H  H41  1  0.83069129  0.72640496  0.53647683  1  0  0.069491  0  0.983832  0  0  0.076169  0  1.054269  0  0  0.077445  0  1.05379  0  0  0.109465  0.075158  0  1.054692  0
C  C42  1  0.12135475  0.75925808  0.58721263  1  0  0.588763  0  3.96494  0  0  0.53716  0  4.272154  0  0  0.569935  0  4.263017  0  0  0.19875  0.514949  0  4.277448  0
C  C43  1  0.87864778  0.74074315  0.08721275  1  0  0.588866  0  3.964837  0  0  0.53728  0  4.272024  0  0  0.570056  0  4.262885  0  0  0.198853  0.515065  0  4.277312  0
C  C44  1  0.87864695  0.24073968  0.41278693  1  0  0.588851  0  3.964887  0  0  0.537251  0  4.272102  0  0  0.570026  0  4.262965  0  0  0.198823  0.51504  0  4.277395  0
C  C45  1  0.12135026  0.25925755  0.91278754  1  0  0.588931  0  3.964796  0  0  0.537333  0  4.272  0  0  0.570108  0  4.262862  0  0  0.198883  0.515118  0  4.277289  0
C  C46  1  0.03383302  0.67017292  0.66870454  1  0  0.093931  0  3.726993  0  0  0.095921  0  3.966019  0  0  0.098655  0  3.983647  0  0  0.113011  0.094497  0  3.953563  0
C  C47  1  0.96616563  0.82982841  0.16870463  1  0  0.093851  0  3.727106  0  0  0.095796  0  3.966145  0  0  0.098528  0  3.983776  0  0  0.112958  0.094375  0  3.953687  0
C  C48  1  0.96616820  0.32982680  0.33129574  1  0  0.094029  0  3.726927  0  0  0.095996  0  3.965975  0  0  0.098729  0  3.983602  0  0  0.113051  0.094573  0  3.953523  0
C  C49  1  0.03383288  0.17017032  0.83129565  1  0  0.093855  0  3.727225  0  0  0.095795  0  3.96621  0  0  0.098527  0  3.983841  0  0  0.113011  0.094371  0  3.953753  0
C  C50  1  0.02555313  0.71442702  0.76285836  1  0  -0.096567  0  3.687998  0  0  -0.119856  0  3.941973  0  0  -0.125351  0  3.962336  0  0  -0.070101  -0.116459  0  3.92907  0
C  C51  1  0.97444746  0.78557447  0.26285765  1  0  -0.096572  0  3.688002  0  0  -0.119851  0  3.941979  0  0  -0.125353  0  3.96235  0  0  -0.070095  -0.11645  0  3.929074  0
C  C52  1  0.97444808  0.28557270  0.23714192  1  0  -0.096653  0  3.688011  0  0  -0.119952  0  3.942003  0  0  -0.125447  0  3.962366  0  0  -0.07012  -0.116548  0  3.929095  0
C  C53  1  0.02555293  0.21442623  0.73714264  1  0  -0.09656  0  3.687906  0  0  -0.119856  0  3.941899  0  0  -0.125352  0  3.962266  0  0  -0.070123  -0.116457  0  3.928995  0
C  C54  1  0.93065816  0.62869190  0.83113519  1  0  -0.009884  0  3.638764  0  0  -0.039264  0  3.88825  0  0  -0.033785  0  3.902164  0  0  -0.056938  -0.04274  0  3.879242  0
C  C55  1  0.06934214  0.87130970  0.33113414  1  0  -0.009844  0  3.638879  0  0  -0.039266  0  3.888367  0  0  -0.033791  0  3.90228  0  0  -0.056954  -0.042743  0  3.879363  0
C  C56  1  0.06934223  0.37130880  0.16886510  1  0  -0.009866  0  3.638843  0  0  -0.039251  0  3.888328  0  0  -0.033769  0  3.902243  0  0  -0.05696  -0.042727  0  3.879321  0
C  C57  1  0.93065520  0.12868902  0.66886470  1  0  -0.009929  0  3.638851  0  0  -0.03933  0  3.888323  0  0  -0.033854  0  3.902232  0  0  -0.056987  -0.042806  0  3.879313  0
C  C58  1  0.84668075  0.49999663  0.80361822  1  0  -0.078112  0  3.713043  0  0  -0.054851  0  3.950714  0  0  -0.063868  0  3.971087  0  0  0.000592  -0.049565  0  3.937783  0
C  C59  1  0.15331548  0.00000631  0.30361862  1  0  -0.078135  0  3.713308  0  0  -0.054859  0  3.950972  0  0  -0.063873  0  3.971345  0  0  0.00059  -0.049571  0  3.938041  0
C  C60  1  0.15332047  0.50000309  0.19638207  1  0  -0.078157  0  3.713174  0  0  -0.054885  0  3.950849  0  0  -0.063904  0  3.971221  0  0  0.000587  -0.049598  0  3.937918  0
C  C61  1  0.84668490  0.99999439  0.69638167  1  0  -0.078089  0  3.71324  0  0  -0.054831  0  3.950904  0  0  -0.063847  0  3.971278  0  0  0.00058  -0.049543  0  3.937973  0
C  C62  1  0.13262513  0.53808599  0.29139001  1  0  0.13807  0  3.650577  0  0  0.094543  0  3.903409  0  0  0.103257  0  3.918223  0  0  0.065232  0.088584  0  3.89442  0
C  C63  1  0.86737913  0.96190967  0.79138879  1  0  0.138232  0  3.650771  0  0  0.094627  0  3.903598  0  0  0.103343  0  3.918412  0  0  0.065344  0.088657  0  3.894612  0
C  C64  1  0.86737608  0.46191373  0.70860955  1  0  0.138178  0  3.650537  0  0  0.094674  0  3.903377  0  0  0.103389  0  3.918189  0  0  0.065288  0.088711  0  3.894387  0
C  C65  1  0.13261938  0.03808906  0.20861077  1  0  0.138099  0  3.650823  0  0  0.094542  0  3.903636  0  0  0.103255  0  3.918451  0  0  0.065259  0.08858  0  3.894641  0
C  C66  1  0.72918887  0.40000058  0.86585929  1  0  0.520894  0  3.886356  0  0  0.4735  0  4.175824  0  0  0.502579  0  4.176562  0  0  0.233675  0.454174  0  4.17455  0
C  C67  1  0.27080840  0.09999952  0.36585962  1  0  0.521058  0  3.886335  0  0  0.473642  0  4.175824  0  0  0.502725  0  4.17656  0  0  0.233765  0.454315  0  4.174553  0
C  C68  1  0.27081048  0.59999717  0.13414100  1  0  0.521149  0  3.886204  0  0  0.473728  0  4.175691  0  0  0.502811  0  4.176427  0  0  0.23381  0.454403  0  4.174421  0
C  C69  1  0.72918859  0.89999822  0.63414139  1  0  0.520933  0  3.886487  0  0  0.473561  0  4.175912  0  0  0.502643  0  4.176652  0  0  0.233721  0.454225  0  4.174636  0
C  C70  1  0.59461726  0.34545679  0.02226240  1  0  0.026796  0  3.678307  0  0  -0.03919  0  3.935568  0  0  -0.032396  0  3.945586  0  0  -0.047917  -0.043743  0  3.928704  0
C  C71  1  0.40538655  0.15454378  0.52226086  1  0  0.026799  0  3.678325  0  0  -0.039102  0  3.93546  0  0  -0.032337  0  3.945531  0  0  -0.047891  -0.043652  0  3.928592  0
C  C72  1  0.40538430  0.65454391  0.97773788  1  0  0.026803  0  3.678287  0  0  -0.039198  0  3.935519  0  0  -0.0324  0  3.945535  0  0  -0.047921  -0.043749  0  3.928653  0
C  C73  1  0.59461432  0.84545496  0.47773942  1  0  0.026833  0  3.678267  0  0  -0.039119  0  3.935474  0  0  -0.032328  0  3.945503  0  0  -0.047921  -0.043683  0  3.928605  0
C  C74  1  0.62901800  0.22186044  0.05895806  1  0  0.030858  0  3.716503  0  0  0.05656  0  3.954938  0  0  0.051462  0  3.9799  0  0  -0.000866  0.059713  0  3.93813  0
C  C75  1  0.37098212  0.27814018  0.55895677  1  0  0.03077  0  3.716697  0  0  0.056518  0  3.955034  0  0  0.051426  0  3.980001  0  0  -0.000867  0.059672  0  3.938222  0
C  C76  1  0.37098356  0.77814027  0.94104295  1  0  0.030856  0  3.7165  0  0  0.0566  0  3.954886  0  0  0.051501  0  3.979847  0  0  -0.000813  0.059754  0  3.938075  0
C  C77  1  0.62901674  0.72185954  0.44104279  1  0  0.030814  0  3.716677  0  0  0.056563  0  3.955035  0  0  0.051465  0  3.979999  0  0  -0.000837  0.059716  0  3.938226  0
C  C78  1  0.53291761  0.15039419  0.13369164  1  0  -0.059104  0  3.695144  0  0  -0.086156  0  3.939833  0  0  -0.084865  0  3.959886  0  0  -0.068575  -0.086619  0  3.926056  0
C  C79  1  0.46708372  0.34960753  0.63369100  1  0  -0.05908  0  3.695139  0  0  -0.086157  0  3.939821  0  0  -0.084864  0  3.959869  0  0  -0.068606  -0.086622  0  3.926045  0
C  C80  1  0.46708347  0.84960848  0.86630792  1  0  -0.059099  0  3.695219  0  0  -0.086176  0  3.939908  0  0  -0.084884  0  3.959962  0  0  -0.068628  -0.086643  0  3.926134  0
C  C81  1  0.53291584  0.65039415  0.36631001  1  0  -0.059097  0  3.695035  0  0  -0.086167  0  3.93973  0  0  -0.084874  0  3.959783  0  0  -0.068571  -0.08663  0  3.925951  0
C  C82  1  0.55458429  0.03082526  0.16221749  1  0  -0.098076  0  3.734561  0  0  -0.110281  0  3.988396  0  0  -0.115797  0  4.009122  0  0  -0.080967  -0.106813  0  3.974363  0
C  C83  1  0.44541573  0.46917649  0.66221635  1  0  -0.09807  0  3.734554  0  0  -0.110292  0  3.988393  0  0  -0.115808  0  4.009118  0  0  -0.080953  -0.106823  0  3.974361  0
C  C84  1  0.44541409  0.96917641  0.83778424  1  0  -0.09812  0  3.73466  0  0  -0.110341  0  3.988497  0  0  -0.115856  0  4.00922  0  0  -0.080974  -0.106873  0  3.974468  0
C  C85  1  0.55458278  0.53082224  0.33778321  1  0  -0.098123  0  3.734378  0  0  -0.110362  0  3.988222  0  0  -0.115879  0  4.008947  0  0  -0.080984  -0.106894  0  3.974191  0
C  C86  1  0.67661354  0.98805795  0.11779186  1  0  0.119996  0  3.712663  0  0  0.086731  0  3.970314  0  0  0.093135  0  3.988213  0  0  0.041285  0.082713  0  3.958119  0
C  C87  1  0.32338768  0.51194332  0.61779171  1  0  0.119959  0  3.712607  0  0  0.086686  0  3.970273  0  0  0.09309  0  3.988173  0  0  0.041241  0.082668  0  3.958082  0
C  C88  1  0.32338720  0.01194374  0.88220770  1  0  0.119952  0  3.71261  0  0  0.086686  0  3.970255  0  0  0.09309  0  3.988154  0  0  0.04126  0.082668  0  3.958063  0
C  C89  1  0.67661270  0.48805738  0.38220858  1  0  0.120014  0  3.712655  0  0  0.086744  0  3.970334  0  0  0.093148  0  3.988235  0  0  0.041292  0.082724  0  3.958141  0
C  C90  1  0.75039520  0.17247961  0.02020646  1  0  0.077645  0  3.690567  0  0  0.039883  0  3.942884  0  0  0.045699  0  3.961947  0  0  0.039189  0.036214  0  3.929922  0
C  C91  1  0.24960627  0.32752095  0.52020765  1  0  0.077643  0  3.690707  0  0  0.039848  0  3.94302  0  0  0.045665  0  3.962082  0  0  0.039203  0.036177  0  3.930056  0
C  C92  1  0.24960636  0.82752110  0.97979455  1  0  0.077597  0  3.690607  0  0  0.039802  0  3.942949  0  0  0.045619  0  3.962013  0  0  0.039151  0.03613  0  3.929985  0
C  C93  1  0.75039412  0.67247975  0.47979408  1  0  0.077594  0  3.690543  0  0  0.03981  0  3.942873  0  0  0.045628  0  3.961935  0  0  0.039154  0.036139  0  3.929913  0
N  N94  1  0.95789626  0.54446024  0.64364691  1  0  -0.317134  0  3.328072  0  0  -0.241502  0  3.588998  0  0  -0.258545  0  3.605347  0  0  -0.321906  -0.229768  0  3.577477  0
N  N95  1  0.04210201  0.95554302  0.14364821  1  0  -0.317081  0  3.328177  0  0  -0.241377  0  3.589041  0  0  -0.25842  0  3.605393  0  0  -0.321852  -0.229642  0  3.577521  0
N  N96  1  0.04210461  0.45553850  0.35635410  1  0  -0.317107  0  3.328008  0  0  -0.241441  0  3.588918  0  0  -0.258481  0  3.605266  0  0  -0.321877  -0.229713  0  3.577409  0
N  N97  1  0.95789754  0.04445866  0.85635208  1  0  -0.317226  0  3.328331  0  0  -0.241403  0  3.58906  0  0  -0.258446  0  3.605413  0  0  -0.321899  -0.229666  0  3.57754  0
N  N98  1  0.71915548  0.42896395  0.96030263  1  0  -0.424693  0  3.328485  0  0  -0.365481  0  3.577641  0  0  -0.388662  0  3.586479  0  0  -0.418351  -0.349637  0  3.571195  0
N  N99  1  0.28084691  0.07103534  0.46030217  1  0  -0.424743  0  3.328672  0  0  -0.365558  0  3.577829  0  0  -0.388741  0  3.58668  0  0  -0.418409  -0.349712  0  3.571387  0
N  N100  1  0.28084491  0.57103676  0.03969765  1  0  -0.424672  0  3.328536  0  0  -0.365435  0  3.57768  0  0  -0.388624  0  3.586522  0  0  -0.418337  -0.349586  0  3.571237  0
N  N101  1  0.71915395  0.92896340  0.53969739  1  0  -0.424771  0  3.328532  0  0  -0.365557  0  3.577658  0  0  -0.388747  0  3.586505  0  0  -0.41838  -0.349678  0  3.571185  0
N  N102  1  0.77625218  0.05920728  0.04964723  1  0  -0.32728  0  3.262145  0  0  -0.25338  0  3.529257  0  0  -0.271535  0  3.549555  0  0  -0.321632  -0.241227  0  3.515367  0
N  N103  1  0.22374729  0.44079134  0.54964647  1  0  -0.327218  0  3.262135  0  0  -0.253316  0  3.529249  0  0  -0.271471  0  3.549547  0  0  -0.321586  -0.241163  0  3.515359  0
N  N104  1  0.22374634  0.94079144  0.95035378  1  0  -0.327181  0  3.262043  0  0  -0.253271  0  3.529144  0  0  -0.271427  0  3.549444  0  0  -0.321571  -0.24112  0  3.515255  0
N  N105  1  0.77625205  0.55920640  0.45035237  1  0  -0.327227  0  3.262114  0  0  -0.253336  0  3.529237  0  0  -0.271493  0  3.549536  0  0  -0.321618  -0.241185  0  3.515348  0
O  O106  1  0.13829188  0.70210563  0.50750490  1  0  -0.620875  0  2.035796  0  0  -0.558163  0  2.294515  0  0  -0.584093  0  2.282179  0  0  -0.324685  -0.539891  0  2.302228  0
O  O107  1  0.86170982  0.79789547  0.00750514  1  0  -0.620896  0  2.035754  0  0  -0.558202  0  2.294488  0  0  -0.584131  0  2.282148  0  0  -0.324732  -0.539957  0  2.302248  0
O  O108  1  0.86170968  0.29789508  0.49249539  1  0  -0.620893  0  2.035715  0  0  -0.558201  0  2.294448  0  0  -0.58413  0  2.282111  0  0  -0.324723  -0.539953  0  2.302208  0
O  O109  1  0.13829022  0.20210425  0.99249515  1  0  -0.620892  0  2.035685  0  0  -0.558207  0  2.294433  0  0  -0.584136  0  2.282093  0  0  -0.324721  -0.539958  0  2.302194  0
O  O110  1  0.16556792  0.88114004  0.60219297  1  0  -0.581686  0  1.919916  0  0  -0.543414  0  2.142317  0  0  -0.564795  0  2.13463  0  0  -0.318129  -0.528204  0  2.146902  0
O  O111  1  0.83443537  0.61886023  0.10219371  1  0  -0.581756  0  1.919804  0  0  -0.543466  0  2.1422  0  0  -0.56485  0  2.134516  0  0  -0.318188  -0.528257  0  2.146785  0
O  O112  1  0.83443682  0.11885970  0.39780804  1  0  -0.581749  0  1.919965  0  0  -0.543462  0  2.14238  0  0  -0.564843  0  2.134695  0  0  -0.318165  -0.528255  0  2.146968  0
O  O113  1  0.16555962  0.38113848  0.89780729  1  0  -0.581744  0  1.919846  0  0  -0.543465  0  2.142243  0  0  -0.564847  0  2.134559  0  0  -0.318199  -0.528252  0  2.146827  0
O  O114  1  0.64322661  0.29512738  0.82909329  1  0  -0.562038  0  1.899317  0  0  -0.524292  0  2.121828  0  0  -0.545115  0  2.11713  0  0  -0.305648  -0.50977  0  2.124503  0
O  O115  1  0.35677269  0.20487463  0.32909217  1  0  -0.562112  0  1.899223  0  0  -0.524345  0  2.121755  0  0  -0.545167  0  2.117049  0  0  -0.305681  -0.509826  0  2.124431  0
O  O116  1  0.35677426  0.70487135  0.17090844  1  0  -0.562177  0  1.899266  0  0  -0.524426  0  2.121803  0  0  -0.54525  0  2.117102  0  0  -0.305728  -0.509914  0  2.124487  0
O  O117  1  0.64322922  0.79512706  0.67090666  1  0  -0.562048  0  1.89943  0  0  -0.524318  0  2.121956  0  0  -0.54514  0  2.117258  0  0  -0.305684  -0.50981  0  2.124645  0
