# generated using pymatgen
data_FeAg2H12C28(N2O)4
_symmetry_space_group_name_H-M   'P 1'
_cell_length_a   11.33606583
_cell_length_b   11.41758313
_cell_length_c   16.51983096
_cell_angle_alpha   90.05828316
_cell_angle_beta   89.98015924
_cell_angle_gamma   119.67914265
_symmetry_Int_Tables_number   1
_chemical_formula_structural   FeAg2H12C28(N2O)4
_chemical_formula_sum   'Fe2 Ag4 H24 C56 N16 O8'
_cell_volume   1857.66598416
_cell_formula_units_Z   2
loop_
 _symmetry_equiv_pos_site_id
 _symmetry_equiv_pos_as_xyz
  1  'x, y, z'
loop_
 _atom_site_type_symbol
 _atom_site_label
 _atom_site_symmetry_multiplicity
 _atom_site_fract_x
 _atom_site_fract_y
 _atom_site_fract_z
 _atom_site_occupancy
 _atom_site_pbe_bader_charge
 _atom_site_pbe_bader_spin_density
 _atom_site_pbe_cm5_charge
 _atom_site_pbe_ddec_charge
 _atom_site_pbe_ddec_spin_density
 _atom_site_pbe_ddec_sum_bond_order
 _atom_site_pbe_magmom
Fe  Fe0  1  0.00000000  0.00000000  0.00000121  1  1.456162  3.708591  0.808629  0.851248  3.971266  2.866058  3.674
Fe  Fe1  1  0.49999881  0.99999997  0.50000115  1  1.457471  3.70328  0.801435  0.840036  3.964927  2.855309  3.672
Ag  Ag2  1  0.15803991  0.00008352  0.69945850  1  0.409416  0.005772  0.340385  0.194121  0.003986  2.240921  0.006
Ag  Ag3  1  0.34113538  0.00024503  0.19964319  1  0.410616  0.006727  0.343298  0.196103  0.004977  2.239191  0.006
Ag  Ag4  1  0.65886898  0.99975604  0.80035728  1  0.410613  0.006726  0.343317  0.196115  0.004977  2.239201  0.006
Ag  Ag5  1  0.84195651  0.99991755  0.30054319  1  0.409712  0.005772  0.340436  0.194188  0.003986  2.240895  0.006
H  H6  1  0.04608598  0.76989035  0.94052405  1  0.112265  0.001676  0.118543  0.090143  0.000377  1.016202  0.001
H  H7  1  0.45360257  0.23064666  0.44104833  1  0.106256  0.001588  0.117691  0.088481  0.000302  1.016811  0.001
H  H8  1  0.77560056  0.22979000  0.55932987  1  0.10162  0.001592  0.117773  0.088696  0.000291  1.016173  0.001
H  H9  1  0.72342721  0.77044028  0.05848247  1  0.126465  0.001883  0.118159  0.089724  0.000601  1.015668  0.001
H  H10  1  0.95391447  0.23011173  0.05947643  1  0.112275  0.001675  0.118562  0.090185  0.000377  1.016155  0.001
H  H11  1  0.54639550  0.76935240  0.55895275  1  0.106257  0.001588  0.11767  0.088466  0.000302  1.016845  0.001
H  H12  1  0.22439940  0.77021107  0.44067000  1  0.101603  0.001592  0.11778  0.088681  0.000291  1.016147  0.001
H  H13  1  0.27657173  0.22955877  0.94151801  1  0.126441  0.001883  0.118159  0.089718  0.000601  1.015689  0.001
H  H14  1  0.92812922  0.51869617  0.93811966  1  0.1294  0.000844  0.119808  0.142192  0.000289  0.984793  0.0
H  H15  1  0.57231234  0.48187638  0.43802106  1  0.144496  0.000759  0.119423  0.141722  0.000247  0.984557  0.0
H  H16  1  0.90919209  0.48101656  0.56181355  1  0.149343  0.000775  0.119759  0.142511  0.000256  0.984894  0.0
H  H17  1  0.59115361  0.51935251  0.06201217  1  0.152858  0.000811  0.119829  0.142637  0.000274  0.984857  0.0
H  H18  1  0.07187073  0.48130489  0.06187960  1  0.12945  0.000844  0.119818  0.142206  0.000289  0.984747  0.0
H  H19  1  0.42768572  0.51812267  0.56197760  1  0.144211  0.000759  0.119432  0.141761  0.000247  0.984537  0.0
H  H20  1  0.09080875  0.51898451  0.43818510  1  0.149347  0.000775  0.119762  0.142511  0.000256  0.984903  0.0
H  H21  1  0.40884533  0.48064654  0.93798710  1  0.152862  0.000811  0.119819  0.142628  0.000274  0.984859  0.0
H  H22  1  0.74695058  0.12653603  0.16064156  1  0.107927  -0.000282  0.108756  0.108768  -0.000317  1.014045  0.0
H  H23  1  0.75330151  0.87348075  0.66064028  1  0.108264  -0.000151  0.108576  0.108348  -0.00018  1.014595  0.0
H  H24  1  0.12027582  0.87313421  0.33930390  1  0.122927  -0.000214  0.108615  0.108375  -0.00031  1.014617  0.0
H  H25  1  0.37964718  0.12662929  0.83937042  1  0.122787  -5.5e-05  0.108529  0.108581  -9.2e-05  1.013299  0.0
H  H26  1  0.25305063  0.87346403  0.83935710  1  0.10792  -0.000282  0.108754  0.108738  -0.000317  1.01405  0.0
H  H27  1  0.24669920  0.12651830  0.33935898  1  0.108555  -0.000151  0.108568  0.108321  -0.00018  1.014594  0.0
H  H28  1  0.87972715  0.12686585  0.66069719  1  0.122942  -0.000213  0.108623  0.108379  -0.00031  1.014635  0.0
H  H29  1  0.62035277  0.87337177  0.16062945  1  0.122794  -5.5e-05  0.108533  0.108574  -9.2e-05  1.013269  0.0
C  C30  1  0.94529613  0.71052105  0.96679552  1  0.579923  0.001758  0.058357  0.121511  0.00041  3.903288  0.001
C  C31  1  0.55457656  0.28999701  0.46713699  1  0.570621  0.003422  0.057737  0.122974  0.001421  3.910099  0.002
C  C32  1  0.73450203  0.28953425  0.53302269  1  0.562107  0.003385  0.058377  0.122851  0.00135  3.909551  0.002
C  C33  1  0.76498294  0.71079580  0.03253425  1  0.53488  0.001803  0.057675  0.120744  0.000662  3.906386  0.001
C  C34  1  0.05470432  0.28948103  0.03320496  1  0.579922  0.001758  0.058317  0.121488  0.00041  3.903184  0.001
C  C35  1  0.44542150  0.71000204  0.53286349  1  0.570643  0.003421  0.057743  0.122947  0.001421  3.910169  0.002
C  C36  1  0.26549741  0.71046581  0.46697718  1  0.562104  0.003384  0.058377  0.122935  0.001349  3.909477  0.002
C  C37  1  0.23501701  0.28920527  0.96746623  1  0.534939  0.001802  0.057683  0.120764  0.000662  3.906441  0.001
C  C38  1  0.87906400  0.57032780  0.96559454  1  -0.050637  0.00284  -0.070827  -0.1908  0.001216  3.905509  0.002
C  C39  1  0.62121252  0.43016045  0.46549956  1  -0.051137  0.001638  -0.071246  -0.191285  0.000688  3.906362  0.001
C  C40  1  0.80861908  0.42968944  0.53437863  1  -0.055004  0.001561  -0.071948  -0.192448  0.000666  3.904625  0.001
C  C41  1  0.69153047  0.57064980  0.03436357  1  -0.059008  0.002952  -0.071194  -0.191742  0.001238  3.906675  0.002
C  C42  1  0.12093595  0.42967327  0.03440473  1  -0.050745  0.002841  -0.070804  -0.190805  0.001217  3.905433  0.002
C  C43  1  0.37878643  0.56983860  0.53449970  1  -0.051107  0.001638  -0.071225  -0.191284  0.000688  3.906324  0.001
C  C44  1  0.19138036  0.57031062  0.46562063  1  -0.055025  0.001561  -0.071947  -0.192484  0.000666  3.904671  0.001
C  C45  1  0.30846986  0.42935026  0.96563630  1  -0.058991  0.002953  -0.071205  -0.191759  0.001239  3.906669  0.002
C  C46  1  0.75017798  0.50012952  0.00002603  1  0.335571  0.00049  0.111799  0.241699  0.000288  4.004165  0.0
C  C47  1  0.75016420  0.50014246  0.49986918  1  0.339663  0.003822  0.111982  0.242159  0.001912  4.00594  0.002
C  C48  1  0.24982235  0.49987054  0.99997445  1  0.335595  0.000489  0.111785  0.241698  0.000287  4.00419  0.0
C  C49  1  0.24983386  0.49985659  0.50012948  1  0.339924  0.003823  0.111952  0.242167  0.001912  4.005961  0.002
C  C50  1  0.71926952  0.29023101  0.05680812  1  1.270031  -0.008624  0.245529  0.44599  -0.009176  4.082501  -0.004
C  C51  1  0.78102370  0.70990570  0.55675963  1  1.272743  -0.007903  0.245394  0.444674  -0.008387  4.082944  -0.004
C  C52  1  0.92911574  0.70973959  0.44310586  1  1.307419  -0.007735  0.245557  0.445752  -0.008404  4.082692  -0.004
C  C53  1  0.57110519  0.29031419  0.94322747  1  1.307315  -0.008378  0.244969  0.44494  -0.009127  4.083068  -0.004
C  C54  1  0.28073169  0.70976905  0.94318994  1  1.269875  -0.008624  0.245573  0.446018  -0.009177  4.082456  -0.004
C  C55  1  0.21897487  0.29009436  0.44323843  1  1.272381  -0.007903  0.245393  0.44465  -0.008387  4.082952  -0.004
C  C56  1  0.07088547  0.29026047  0.55689401  1  1.307409  -0.007734  0.2455  0.445627  -0.008404  4.082743  -0.004
C  C57  1  0.42889299  0.70968687  0.05677301  1  1.307263  -0.008378  0.245013  0.444943  -0.009127  4.083059  -0.004
C  C58  1  0.63918743  0.14173136  0.05826213  1  0.012319  -0.015576  -0.009172  -0.072109  -0.016595  3.990809  -0.009
C  C59  1  0.86102709  0.85837083  0.55826327  1  0.012852  -0.015064  -0.008946  -0.071578  -0.016032  3.991508  -0.009
C  C60  1  0.99749024  0.85820602  0.44168333  1  -0.013877  -0.015426  -0.009282  -0.072715  -0.01625  3.993101  -0.009
C  C61  1  0.50265262  0.14179261  0.94172261  1  -0.013764  -0.015213  -0.008899  -0.07246  -0.016004  3.992669  -0.009
C  C62  1  0.36081340  0.85826971  0.94173714  1  0.012322  -0.015576  -0.0092  -0.072146  -0.016595  3.990806  -0.009
C  C63  1  0.13897235  0.14162923  0.44173539  1  0.012885  -0.015065  -0.008969  -0.071598  -0.016033  3.991644  -0.009
C  C64  1  0.00251097  0.14179403  0.55831654  1  -0.013796  -0.015425  -0.009264  -0.072651  -0.016249  3.993138  -0.009
C  C65  1  0.49734733  0.85820846  0.05827726  1  -0.013674  -0.015215  -0.0089  -0.072503  -0.016006  3.992692  -0.009
C  C66  1  0.66767447  0.07051879  0.11612171  1  0.101651  -0.010998  -0.066009  -0.069144  -0.011945  3.942179  -0.006
C  C67  1  0.83251586  0.92959363  0.61615675  1  0.103513  -0.009265  -0.065648  -0.068737  -0.010124  3.943688  -0.004
C  C68  1  0.09705500  0.92928554  0.38383343  1  -0.07412  -0.010568  -0.066331  -0.069705  -0.010948  3.944981  -0.005
C  C69  1  0.40288553  0.07058907  0.88389935  1  -0.070566  -0.011707  -0.066725  -0.069991  -0.012095  3.943579  -0.006
C  C70  1  0.33232586  0.92948127  0.88387755  1  0.10165  -0.010997  -0.065969  -0.06903  -0.011944  3.942119  -0.006
C  C71  1  0.16748397  0.07040542  0.38384251  1  0.103201  -0.009265  -0.06561  -0.068625  -0.010124  3.9437  -0.004
C  C72  1  0.90294621  0.07071452  0.61616705  1  -0.074111  -0.010569  -0.066331  -0.069668  -0.010949  3.944976  -0.005
C  C73  1  0.59711530  0.92941199  0.11609992  1  -0.070558  -0.011706  -0.06672  -0.069926  -0.012094  3.943566  -0.006
C  C74  1  0.53596275  0.07186200  0.99999745  1  0.055232  0.002093  0.00179  0.028025  0.000693  4.018042  0.002
C  C75  1  0.96412653  0.92816130  0.49998359  1  0.055316  0.002239  0.001835  0.02851  0.00086  4.01705  0.002
C  C76  1  0.46403808  0.92813907  0.00000242  1  -0.111164  0.002147  0.001785  0.028041  0.000694  4.018038  0.002
C  C77  1  0.03587330  0.07183774  0.50001507  1  -0.110846  0.002303  0.001861  0.028451  0.00086  4.017147  0.002
C  C78  1  0.08496608  0.99968201  0.81127871  1  0.780503  0.003931  -0.023818  -0.018239  -4.2e-05  3.763306  0.01
C  C79  1  0.41383518  0.00020948  0.31140711  1  0.793569  0.013901  -0.017694  -0.011368  0.007921  3.751404  0.016
C  C80  1  0.58616780  0.99979058  0.68859458  1  0.793565  0.0139  -0.017697  -0.011375  0.00792  3.751324  0.016
C  C81  1  0.91503298  0.00031906  0.18872358  1  0.780592  0.003927  -0.023848  -0.0182  -4.2e-05  3.763365  0.01
C  C82  1  0.25670639  0.00094410  0.59727641  1  0.773973  0.02759  -0.021837  -0.009102  0.014836  3.756881  0.025
C  C83  1  0.24357736  0.99993374  0.09724620  1  0.775864  0.024865  -0.023118  -0.010138  0.013302  3.761656  0.023
C  C84  1  0.75642424  0.00006531  0.90275488  1  0.77597  0.024865  -0.023131  -0.01013  0.013303  3.761625  0.023
C  C85  1  0.74328903  0.99905495  0.40272467  1  0.773937  0.02759  -0.021876  -0.009249  0.014837  3.75713  0.025
N  N86  1  0.88941739  0.77963640  0.99948413  1  -1.242806  0.068769  -0.316971  -0.22695  0.03296  3.517247  0.049
N  N87  1  0.60994728  0.22077140  0.50013129  1  -1.245417  0.059771  -0.317886  -0.233335  0.02852  3.533588  0.046
N  N88  1  0.11058294  0.22036366  0.00051635  1  -1.242817  0.06877  -0.316968  -0.226972  0.03296  3.5172  0.049
N  N89  1  0.39005129  0.77922865  0.49986918  1  -1.245404  0.059772  -0.317894  -0.233363  0.028521  3.533624  0.046
N  N90  1  0.67754204  0.35488664  0.00000424  1  -1.201661  0.001047  -0.230304  -0.228999  0.000606  3.563806  0.002
N  N91  1  0.82283464  0.64531480  0.49990248  1  -1.20402  0.00122  -0.230137  -0.228268  0.000621  3.566305  0.002
N  N92  1  0.32245879  0.64511442  0.99999503  1  -1.201436  0.001048  -0.230299  -0.22898  0.000606  3.563901  0.002
N  N93  1  0.17716481  0.35468526  0.50009618  1  -1.204027  0.00122  -0.230129  -0.228317  0.00062  3.566332  0.002
N  N94  1  0.05672124  0.99998704  0.87941988  1  -1.359065  0.055097  -0.361772  -0.338233  0.025559  3.442148  0.036
N  N95  1  0.44332208  0.00030743  0.37928859  1  -1.367633  0.059469  -0.359078  -0.330296  0.027643  3.421935  0.034
N  N96  1  0.55667787  0.99969364  0.62071370  1  -1.367617  0.059471  -0.359065  -0.33028  0.027643  3.421823  0.034
N  N97  1  0.94328047  0.00001403  0.12058302  1  -1.359435  0.055103  -0.361742  -0.338289  0.025559  3.442263  0.036
N  N98  1  0.32611851  0.00086089  0.54470199  1  -1.35332  0.055824  -0.365431  -0.342866  0.025181  3.395698  0.029
N  N99  1  0.17353416  0.99966967  0.04504165  1  -1.352672  0.055933  -0.365767  -0.343865  0.025078  3.403519  0.03
N  N100  1  0.82646717  0.00033241  0.95496064  1  -1.352815  0.055932  -0.36578  -0.343901  0.025077  3.403483  0.03
N  N101  1  0.67387956  0.99913817  0.45530030  1  -1.353312  0.05582  -0.365424  -0.342734  0.025177  3.395829  0.029
O  O102  1  0.81698014  0.35716325  0.10156950  1  -1.111901  -0.011944  -0.274096  -0.438534  -0.012083  2.091986  -0.01
O  O103  1  0.68334733  0.64302480  0.60149921  1  -1.111558  -0.011417  -0.273458  -0.437182  -0.01159  2.091017  -0.01
O  O104  1  0.95984544  0.64265305  0.39830877  1  -1.101387  -0.011401  -0.273622  -0.437607  -0.011551  2.090561  -0.01
O  O105  1  0.54024375  0.35731312  0.89854176  1  -1.100748  -0.011916  -0.274011  -0.438288  -0.012071  2.091984  -0.01
O  O106  1  0.18302246  0.64283781  0.89842795  1  -1.111967  -0.011944  -0.274131  -0.438553  -0.012083  2.091951  -0.01
O  O107  1  0.31665173  0.35697626  0.39849884  1  -1.111228  -0.011417  -0.273429  -0.437108  -0.01159  2.090954  -0.01
O  O108  1  0.04015665  0.35734701  0.60169171  1  -1.101357  -0.011401  -0.273603  -0.437528  -0.011552  2.090587  -0.01
O  O109  1  0.45975217  0.64268694  0.10146054  1  -1.100767  -0.011916  -0.274034  -0.438272  -0.012072  2.091955  -0.01
