# generated using pymatgen
data_NaSmH22(C4O3)5
_symmetry_space_group_name_H-M   'P 1'
_cell_length_a   8.32009505
_cell_length_b   12.82280075
_cell_length_c   11.79765745
_cell_angle_alpha   68.85278947
_cell_angle_beta   82.50891820
_cell_angle_gamma   83.42819275
_symmetry_Int_Tables_number   1
_chemical_formula_structural   NaSmH22(C4O3)5
_chemical_formula_sum   'Na2 Sm2 H44 C40 O30'
_cell_volume   1160.77742092
_cell_formula_units_Z   2
loop_
 _symmetry_equiv_pos_site_id
 _symmetry_equiv_pos_as_xyz
  1  'x, y, z'
loop_
 _atom_site_type_symbol
 _atom_site_label
 _atom_site_symmetry_multiplicity
 _atom_site_fract_x
 _atom_site_fract_y
 _atom_site_fract_z
 _atom_site_occupancy
 _atom_site_hle17_bader_spin_density
 _atom_site_hle17_ddec_charge
 _atom_site_hle17_ddec_spin_density
 _atom_site_hle17_ddec_sum_bond_order
 _atom_site_hle17_magmom
 _atom_site_hse06_10hf_bader_spin_density
 _atom_site_hse06_10hf_ddec_charge
 _atom_site_hse06_10hf_ddec_spin_density
 _atom_site_hse06_10hf_ddec_sum_bond_order
 _atom_site_hse06_10hf_magmom
 _atom_site_hse06_bader_spin_density
 _atom_site_hse06_ddec_charge
 _atom_site_hse06_ddec_spin_density
 _atom_site_hse06_ddec_sum_bond_order
 _atom_site_hse06_magmom
 _atom_site_pbe_bader_spin_density
 _atom_site_pbe_cm5_charge
 _atom_site_pbe_ddec_charge
 _atom_site_pbe_ddec_spin_density
 _atom_site_pbe_ddec_sum_bond_order
 _atom_site_pbe_magmom
Na  Na0  1  0.31026817  0.54492842  0.94535798  1  0  0.894731  0  0.417115  0  0  0.851351  0  0.57355  0  0  0.861399  0  0.552477  0  0  0.727532  0.843582  0  0.587614  0
Na  Na1  1  0.68972883  0.45507090  0.05464327  1  0  0.894734  0  0.417137  0  0  0.851348  0  0.573583  0  0  0.861391  0  0.552512  0  0  0.727551  0.843577  0  0.58765  0
Sm  Sm2  1  0.33963827  0.27094906  0.22279119  1  0  2.291249  0  1.596522  0  0  2.182313  0  1.935431  0  0  2.226069  0  1.896087  0  0  1.470066  2.075208  0  2.10751  0
Sm  Sm3  1  0.66035997  0.72904949  0.77720929  1  0  2.29128  0  1.596557  0  0  2.182334  0  1.935488  0  0  2.226092  0  1.896139  0  0  1.470024  2.075245  0  2.107533  0
H  H4  1  0.81725797  0.31583378  0.29166464  1  0  0.100278  0  0.959597  0  0  0.10913  0  1.026212  0  0  0.111359  0  1.024789  0  0  0.120752  0.107339  0  1.027815  0
H  H5  1  0.18274278  0.68416247  0.70833371  1  0  0.100284  0  0.959555  0  0  0.109138  0  1.026157  0  0  0.111377  0  1.02473  0  0  0.120747  0.107346  0  1.027758  0
H  H6  1  0.88015104  0.17023619  0.33115280  1  0  0.109869  0  0.944617  0  0  0.117859  0  1.009187  0  0  0.120735  0  1.006763  0  0  0.115958  0.115531  0  1.011622  0
H  H7  1  0.11984838  0.82976313  0.66884817  1  0  0.1099  0  0.94466  0  0  0.117869  0  1.009232  0  0  0.120754  0  1.00681  0  0  0.115954  0.115538  0  1.011665  0
H  H8  1  0.45933698  0.36947562  0.50964091  1  0  0.099938  0  0.895608  0  0  0.114979  0  0.948322  0  0  0.116671  0  0.946604  0  0  0.118794  0.113667  0  0.949915  0
H  H9  1  0.54065630  0.63052455  0.49036052  1  0  0.099929  0  0.895573  0  0  0.114965  0  0.948291  0  0  0.116656  0  0.946577  0  0  0.118799  0.113653  0  0.949888  0
H  H10  1  0.35410386  0.49853148  0.42642209  1  0  0.100589  0  0.93932  0  0  0.109174  0  1.008074  0  0  0.110512  0  1.007552  0  0  0.116237  0.108098  0  1.008878  0
H  H11  1  0.64589532  0.50146888  0.57357603  1  0  0.10059  0  0.939333  0  0  0.109164  0  1.008102  0  0  0.110506  0  1.007581  0  0  0.116234  0.108103  0  1.008892  0
H  H12  1  0.21287565  0.41086672  0.60643563  1  0  0.118844  0  0.995206  0  0  0.125487  0  1.063763  0  0  0.129497  0  1.060874  0  0  0.102497  0.122545  0  1.066059  0
H  H13  1  0.78712127  0.58913198  0.39356327  1  0  0.11876  0  0.995193  0  0  0.125502  0  1.063641  0  0  0.129517  0  1.060753  0  0  0.102508  0.122559  0  1.065944  0
H  H14  1  0.94585640  0.38567355  0.72935866  1  0  0.091731  0  0.957939  0  0  0.102972  0  1.018667  0  0  0.106416  0  1.016283  0  0  0.101414  0.100338  0  1.020743  0
H  H15  1  0.05414310  0.61432347  0.27064045  1  0  0.091818  0  0.957958  0  0  0.103048  0  1.018684  0  0  0.106506  0  1.016283  0  0  0.101442  0.100413  0  1.020761  0
H  H16  1  0.72506515  0.30887126  0.66899833  1  0  0.09635  0  0.964267  0  0  0.103554  0  1.029205  0  0  0.107588  0  1.026173  0  0  0.098065  0.10061  0  1.031529  0
H  H17  1  0.27493312  0.69112653  0.33100154  1  0  0.096329  0  0.964322  0  0  0.103507  0  1.029304  0  0  0.107544  0  1.026268  0  0  0.098024  0.100563  0  1.031627  0
H  H18  1  0.77054125  0.25651250  0.48249003  1  0  0.106184  0  0.95861  0  0  0.120912  0  1.013008  0  0  0.123493  0  1.01179  0  0  0.108358  0.118948  0  1.014228  0
H  H19  1  0.22945796  0.74348710  0.51750746  1  0  0.106188  0  0.958641  0  0  0.120952  0  1.013005  0  0  0.123478  0  1.011863  0  0  0.108357  0.118986  0  1.014232  0
H  H20  1  0.36660929  0.24756228  0.85974225  1  0  0.094252  0  0.90061  0  0  0.108456  0  0.955719  0  0  0.110321  0  0.953618  0  0  0.117626  0.107045  0  0.957545  0
H  H21  1  0.63339277  0.75243528  0.14025980  1  0  0.094417  0  0.900524  0  0  0.108533  0  0.955699  0  0  0.110398  0  0.9536  0  0  0.117658  0.107119  0  0.957524  0
H  H22  1  0.55078243  0.16338241  0.90565026  1  0  0.093145  0  0.956183  0  0  0.102003  0  1.02251  0  0  0.102579  0  1.023709  0  0  0.112572  0.101523  0  1.022069  0
H  H23  1  0.44922602  0.83661541  0.09435777  1  0  0.09316  0  0.956214  0  0  0.102051  0  1.022461  0  0  0.102627  0  1.023661  0  0  0.112581  0.101567  0  1.02202  0
H  H24  1  0.24187122  0.91916814  0.39904118  1  0  0.091705  0  0.932975  0  0  0.106574  0  0.991424  0  0  0.10788  0  0.990254  0  0  0.113988  0.105485  0  0.99268  0
H  H25  1  0.75811721  0.08083349  0.60096291  1  0  0.091686  0  0.933073  0  0  0.106559  0  0.991526  0  0  0.10786  0  0.990361  0  0  0.113988  0.105464  0  0.992779  0
H  H26  1  0.05916726  0.00230440  0.41450735  1  0  0.088988  0  0.948467  0  0  0.098836  0  1.017017  0  0  0.100524  0  1.015614  0  0  0.109201  0.097478  0  1.018416  0
H  H27  1  0.94082546  0.99769869  0.58548813  1  0  0.089022  0  0.948434  0  0  0.098918  0  1.016942  0  0  0.100606  0  1.015539  0  0  0.109253  0.097558  0  1.018332  0
H  H28  1  0.03828745  0.90492265  0.28820066  1  0  0.112081  0  0.963896  0  0  0.123084  0  1.023296  0  0  0.12542  0  1.023207  0  0  0.105234  0.121368  0  1.02357  0
H  H29  1  0.96171887  0.09507714  0.71179339  1  0  0.112088  0  0.96392  0  0  0.123098  0  1.0233  0  0  0.125435  0  1.023209  0  0  0.105229  0.121377  0  1.023578  0
H  H30  1  0.03299126  0.82187811  0.12895946  1  0  0.092087  0  0.949872  0  0  0.102195  0  1.010891  0  0  0.105234  0  1.009432  0  0  0.099491  0.099984  0  1.012072  0
H  H31  1  0.96701733  0.17812335  0.87103381  1  0  0.092049  0  0.949944  0  0  0.102116  0  1.011024  0  0  0.10515  0  1.009575  0  0  0.099483  0.09991  0  1.012189  0
H  H32  1  0.18834554  0.90183003  0.92702092  1  0  0.098756  0  0.965543  0  0  0.109856  0  1.023548  0  0  0.112689  0  1.022459  0  0  0.100738  0.107692  0  1.024649  0
H  H33  1  0.81167310  0.09817091  0.07297728  1  0  0.09882  0  0.965498  0  0  0.109882  0  1.023547  0  0  0.112723  0  1.022463  0  0  0.100743  0.107716  0  1.024661  0
H  H34  1  0.35068973  0.06401723  0.88252310  1  0  0.112028  0  0.946194  0  0  0.125063  0  1.001229  0  0  0.128391  0  0.999306  0  0  0.108111  0.122592  0  1.00293  0
H  H35  1  0.64933184  0.93598230  0.11748200  1  0  0.112015  0  0.946144  0  0  0.125039  0  1.001187  0  0  0.12837  0  0.999266  0  0  0.10807  0.122568  0  1.002893  0
H  H36  1  0.09946076  0.48986836  0.15094263  1  0  0.447521  0  0.84383  0  0  0.420223  0  0.901227  0  0  0.430308  0  0.886345  0  0  0.299422  0.412841  0  0.911972  0
H  H37  1  0.90053238  0.51013270  0.84905768  1  0  0.447604  0  0.843714  0  0  0.420263  0  0.901168  0  0  0.430346  0  0.886289  0  0  0.299456  0.412882  0  0.911912  0
H  H38  1  0.27200547  0.53227225  0.16239640  1  0  0.429619  0  0.879585  0  0  0.397195  0  0.945991  0  0  0.408959  0  0.928845  0  0  0.293118  0.388724  0  0.958191  0
H  H39  1  0.72799024  0.46772790  0.83760474  1  0  0.429617  0  0.879588  0  0  0.397196  0  0.945985  0  0  0.408958  0  0.928842  0  0  0.29312  0.388721  0  0.958192  0
H  H40  1  0.63498114  0.10144889  0.29940447  1  0  0.456946  0  0.829993  0  0  0.428112  0  0.889331  0  0  0.438682  0  0.873794  0  0  0.301825  0.420456  0  0.900391  0
H  H41  1  0.36501254  0.89854709  0.70059820  1  0  0.456943  0  0.830019  0  0  0.428106  0  0.889353  0  0  0.438677  0  0.873818  0  0  0.30183  0.420449  0  0.900414  0
H  H42  1  0.69058929  0.20192978  0.17650331  1  0  0.422704  0  0.885832  0  0  0.394091  0  0.947099  0  0  0.404606  0  0.931867  0  0  0.295236  0.386701  0  0.957526  0
H  H43  1  0.30940547  0.79806711  0.82349810  1  0  0.422727  0  0.885803  0  0  0.39412  0  0.947058  0  0  0.404634  0  0.931826  0  0  0.295225  0.386731  0  0.957482  0
H  H44  1  0.19082965  0.46747330  0.80309981  1  0  0.414346  0  0.889639  0  0  0.381857  0  0.956884  0  0  0.392895  0  0.940814  0  0  0.287194  0.374051  0  0.968248  0
H  H45  1  0.80916869  0.53252365  0.19690031  1  0  0.414437  0  0.889522  0  0  0.381928  0  0.956797  0  0  0.392967  0  0.940726  0  0  0.287218  0.374122  0  0.968161  0
H  H46  1  0.11179175  0.39442057  0.93926186  1  0  0.427556  0  0.863787  0  0  0.396917  0  0.927663  0  0  0.408182  0  0.910976  0  0  0.300278  0.388795  0  0.939687  0
H  H47  1  0.88820296  0.60557493  0.06073659  1  0  0.427645  0  0.863715  0  0  0.396975  0  0.927599  0  0  0.408239  0  0.910915  0  0  0.300287  0.388853  0  0.939623  0
C  C48  1  0.01882161  0.30100523  0.44196153  1  0  0.181251  0  3.753398  0  0  0.171009  0  4.013699  0  0  0.17771  0  4.030153  0  0  0.076504  0.166285  0  4.000523  0
C  C49  1  0.98117886  0.69899429  0.55803669  1  0  0.181328  0  3.753483  0  0  0.171024  0  4.013793  0  0  0.177728  0  4.030228  0  0  0.07648  0.166302  0  4.000615  0
C  C50  1  0.91955744  0.25593019  0.28371819  1  0  -0.093492  0  3.603967  0  0  -0.145866  0  3.861195  0  0  -0.143676  0  3.860735  0  0  -0.067395  -0.147454  0  3.859497  0
C  C51  1  0.08044185  0.74406857  0.71627955  1  0  -0.093579  0  3.604102  0  0  -0.145946  0  3.861259  0  0  -0.143792  0  3.860844  0  0  -0.067401  -0.147523  0  3.859544  0
C  C52  1  0.96336779  0.27776837  0.14844602  1  0  0.697151  0  3.873293  0  0  0.642535  0  4.189121  0  0  0.676193  0  4.179025  0  0  0.214363  0.619765  0  4.192712  0
C  C53  1  0.03662913  0.72223033  0.85155287  1  0  0.697069  0  3.873416  0  0  0.642501  0  4.189153  0  0  0.676164  0  4.179059  0  0  0.214296  0.619733  0  4.192742  0
C  C54  1  0.14421127  0.34467739  0.47684529  1  0  0.188753  0  3.77844  0  0  0.178349  0  4.037345  0  0  0.185825  0  4.05341  0  0  0.080905  0.173068  0  4.024606  0
C  C55  1  0.85578786  0.65532450  0.52315406  1  0  0.188589  0  3.778616  0  0  0.178279  0  4.037432  0  0  0.18576  0  4.0535  0  0  0.080893  0.172998  0  4.024692  0
C  C56  1  0.40805308  0.41741643  0.42239649  1  0  -0.057632  0  3.589448  0  0  -0.111989  0  3.845214  0  0  -0.108855  0  3.845269  0  0  -0.054401  -0.114331  0  3.843433  0
C  C57  1  0.59194395  0.58258212  0.57760414  1  0  -0.057532  0  3.589165  0  0  -0.111874  0  3.844955  0  0  -0.108742  0  3.845018  0  0  -0.054384  -0.114235  0  3.843169  0
C  C58  1  0.54267837  0.43673041  0.31844098  1  0  0.702786  0  3.881949  0  0  0.651229  0  4.195364  0  0  0.684565  0  4.185399  0  0  0.21486  0.628484  0  4.199291  0
C  C59  1  0.45731747  0.56326738  0.68155918  1  0  0.702657  0  3.882093  0  0  0.65107  0  4.195534  0  0  0.684406  0  4.185569  0  0  0.214757  0.628341  0  4.199436  0
C  C60  1  0.11769494  0.37486041  0.58029254  1  0  -0.187555  0  3.763794  0  0  -0.209223  0  4.015882  0  0  -0.213295  0  4.035736  0  0  -0.108658  -0.206579  0  4.003045  0
C  C61  1  0.88230172  0.62514010  0.41970413  1  0  -0.187361  0  3.763607  0  0  -0.209117  0  4.01563  0  0  -0.213199  0  4.0355  0  0  -0.108607  -0.206475  0  4.002798  0
C  C62  1  0.96595607  0.36220651  0.64841312  1  0  -0.050168  0  3.774337  0  0  -0.067817  0  4.030875  0  0  -0.068434  0  4.050706  0  0  -0.097742  -0.067389  0  4.017688  0
C  C63  1  0.03404343  0.63779051  0.35158599  1  0  -0.050354  0  3.774352  0  0  -0.067997  0  4.030915  0  0  -0.068626  0  4.050749  0  0  -0.097818  -0.067571  0  4.017735  0
C  C64  1  0.84145502  0.32010117  0.61350977  1  0  -0.076161  0  3.811442  0  0  -0.094442  0  4.077132  0  0  -0.095598  0  4.096578  0  0  -0.103347  -0.093665  0  4.064154  0
C  C65  1  0.15854446  0.67989662  0.38648996  1  0  -0.076137  0  3.811489  0  0  -0.094414  0  4.077167  0  0  -0.095568  0  4.096601  0  0  -0.103308  -0.093634  0  4.064185  0
C  C66  1  0.86780714  0.28955671  0.50982332  1  0  -0.18522  0  3.796843  0  0  -0.209611  0  4.057235  0  0  -0.212935  0  4.077587  0  0  -0.109644  -0.207561  0  4.044241  0
C  C67  1  0.13219075  0.71044449  0.49017469  1  0  -0.185202  0  3.796937  0  0  -0.209605  0  4.057321  0  0  -0.21289  0  4.077694  0  0  -0.109639  -0.207555  0  4.044323  0
C  C68  1  0.28815696  0.07629891  0.06134495  1  0  0.176294  0  3.799609  0  0  0.163466  0  4.066139  0  0  0.171277  0  4.082222  0  0  0.076449  0.157953  0  4.053749  0
C  C69  1  0.71184759  0.92370073  0.93866127  1  0  0.176173  0  3.799553  0  0  0.163248  0  4.066139  0  0  0.171073  0  4.082198  0  0  0.076366  0.157737  0  4.053746  0
C  C70  1  0.45414875  0.21999024  0.92958034  1  0  -0.068235  0  3.630808  0  0  -0.123075  0  3.888884  0  0  -0.120306  0  3.889663  0  0  -0.057264  -0.125276  0  3.887002  0
C  C71  1  0.54585680  0.78000968  0.07042226  1  0  -0.068466  0  3.63092  0  0  -0.123249  0  3.888861  0  0  -0.120487  0  3.889644  0  0  -0.057317  -0.125431  0  3.886955  0
C  C72  1  0.52840793  0.32270370  0.92887423  1  0  0.715198  0  3.837682  0  0  0.663393  0  4.146582  0  0  0.697153  0  4.135637  0  0  0.224317  0.640237  0  4.151781  0
C  C73  1  0.47159414  0.67729602  0.07113140  1  0  0.714875  0  3.837631  0  0  0.663128  0  4.146425  0  0  0.696892  0  4.135474  0  0  0.224214  0.639967  0  4.151625  0
C  C74  1  0.20299964  0.02893789  0.17702627  1  0  0.168481  0  3.770313  0  0  0.159846  0  4.029715  0  0  0.165676  0  4.046469  0  0  0.070809  0.155573  0  4.016727  0
C  C75  1  0.79700555  0.97106399  0.82297237  1  0  0.168599  0  3.770381  0  0  0.16007  0  4.029657  0  0  0.165899  0  4.046407  0  0  0.070939  0.155796  0  4.016667  0
C  C76  1  0.19115333  0.00471063  0.38871451  1  0  -0.074397  0  3.610387  0  0  -0.133213  0  3.87687  0  0  -0.129543  0  3.875748  0  0  -0.067786  -0.135667  0  3.875131  0
C  C77  1  0.80883865  0.99529182  0.61128892  1  0  -0.074418  0  3.610182  0  0  -0.133316  0  3.876737  0  0  -0.129641  0  3.87561  0  0  -0.067857  -0.135743  0  3.874969  0
C  C78  1  0.27189032  0.04573277  0.47236528  1  0  0.704634  0  3.889395  0  0  0.655294  0  4.203783  0  0  0.688775  0  4.193221  0  0  0.209386  0.632459  0  4.207851  0
C  C79  1  0.72810223  0.95427491  0.52763390  1  0  0.704785  0  3.889261  0  0  0.655471  0  4.203638  0  0  0.688951  0  4.193073  0  0  0.209396  0.63263  0  4.207708  0
C  C80  1  0.10917067  0.93900486  0.20051251  1  0  -0.179059  0  3.777797  0  0  -0.199064  0  4.027817  0  0  -0.202183  0  4.048666  0  0  -0.105403  -0.197055  0  4.014382  0
C  C81  1  0.89083816  0.06099408  0.79948150  1  0  -0.179019  0  3.777772  0  0  -0.199059  0  4.027753  0  0  -0.202178  0  4.048599  0  0  -0.105392  -0.197049  0  4.014318  0
C  C82  1  0.10536951  0.89273982  0.11020205  1  0  -0.058064  0  3.79347  0  0  -0.076189  0  4.052407  0  0  -0.077884  0  4.073303  0  0  -0.097539  -0.07508  0  4.038386  0
C  C83  1  0.89463941  0.10726190  0.88979790  1  0  -0.057949  0  3.793467  0  0  -0.076043  0  4.052377  0  0  -0.077736  0  4.07327  0  0  -0.097492  -0.074934  0  4.038361  0
C  C84  1  0.19192162  0.93778462  0.99694640  1  0  -0.052275  0  3.782802  0  0  -0.069984  0  4.039607  0  0  -0.070068  0  4.059096  0  0  -0.096803  -0.069968  0  4.026833  0
C  C85  1  0.80809662  0.06221904  0.00304845  1  0  -0.052404  0  3.782739  0  0  -0.070074  0  4.039506  0  0  -0.070172  0  4.059006  0  0  -0.096797  -0.070064  0  4.026743  0
C  C86  1  0.28271798  0.03028461  0.97151459  1  0  -0.187816  0  3.774666  0  0  -0.211193  0  4.034829  0  0  -0.215125  0  4.053718  0  0  -0.10849  -0.208723  0  4.022843  0
C  C87  1  0.71729951  0.96971626  0.02848462  1  0  -0.18783  0  3.77453  0  0  -0.211189  0  4.034693  0  0  -0.215131  0  4.053584  0  0  -0.108553  -0.20872  0  4.022711  0
O  O88  1  0.05517881  0.27320401  0.33772437  1  0  -0.348706  0  2.484395  0  0  -0.279139  0  2.722184  0  0  -0.296036  0  2.726446  0  0  -0.226288  -0.259837  0  2.717861  0
O  O89  1  0.94482279  0.72679635  0.66227346  1  0  -0.348718  0  2.484481  0  0  -0.279126  0  2.722226  0  0  -0.296011  0  2.726497  0  0  -0.226277  -0.259835  0  2.71791  0
O  O90  1  0.10880167  0.29769028  0.10234880  1  0  -0.721331  0  2.096104  0  0  -0.673298  0  2.348216  0  0  -0.698292  0  2.337242  0  0  -0.372553  -0.647442  0  2.356312  0
O  O91  1  0.89119808  0.70230570  0.89765317  1  0  -0.721309  0  2.096078  0  0  -0.673286  0  2.348147  0  0  -0.698278  0  2.337184  0  0  -0.372581  -0.647435  0  2.356241  0
O  O92  1  0.84728762  0.27790431  0.08922984  1  0  -0.648094  0  1.942322  0  0  -0.594807  0  2.169335  0  0  -0.618817  0  2.15889  0  0  -0.356784  -0.578617  0  2.176686  0
O  O93  1  0.15270463  0.72209342  0.91077161  1  0  -0.648027  0  1.942445  0  0  -0.594772  0  2.169448  0  0  -0.618779  0  2.158999  0  0  -0.356714  -0.578598  0  2.176808  0
O  O94  1  0.28711976  0.35691466  0.40154582  1  0  -0.321695  0  2.492238  0  0  -0.252919  0  2.729047  0  0  -0.269359  0  2.731781  0  0  -0.204405  -0.234685  0  2.724983  0
O  O95  1  0.71288060  0.64308792  0.59845488  1  0  -0.321639  0  2.492059  0  0  -0.252911  0  2.728849  0  0  -0.269362  0  2.73159  0  0  -0.204386  -0.234679  0  2.724791  0
O  O96  1  0.53774076  0.38671348  0.24231979  1  0  -0.793826  0  2.06623  0  0  -0.74842  0  2.332439  0  0  -0.771633  0  2.31825  0  0  -0.466324  -0.722842  0  2.343488  0
O  O97  1  0.46226210  0.61328826  0.75768087  1  0  -0.793778  0  2.066085  0  0  -0.748399  0  2.332372  0  0  -0.771615  0  2.318187  0  0  -0.466284  -0.722827  0  2.343406  0
O  O98  1  0.65149096  0.49833141  0.31503398  1  0  -0.623906  0  1.953914  0  0  -0.573647  0  2.18442  0  0  -0.599644  0  2.176285  0  0  -0.309492  -0.555873  0  2.190077  0
O  O99  1  0.34851599  0.50166607  0.68496837  1  0  -0.623852  0  1.954137  0  0  -0.573552  0  2.18464  0  0  -0.599543  0  2.176498  0  0  -0.309443  -0.555789  0  2.19029  0
O  O100  1  0.37455404  0.16575166  0.04775968  1  0  -0.304387  0  2.492968  0  0  -0.237861  0  2.733874  0  0  -0.254092  0  2.737243  0  0  -0.189604  -0.220409  0  2.728821  0
O  O101  1  0.62545041  0.83424812  0.95224481  1  0  -0.304388  0  2.493045  0  0  -0.237781  0  2.733864  0  0  -0.254014  0  2.737232  0  0  -0.189602  -0.220337  0  2.728805  0
O  O102  1  0.47883475  0.36101300  0.01575652  1  0  -0.817603  0  2.006214  0  0  -0.774536  0  2.274091  0  0  -0.796179  0  2.25751  0  0  -0.472303  -0.750296  0  2.287149  0
O  O103  1  0.52116553  0.63899041  0.98424393  1  0  -0.81745  0  2.006179  0  0  -0.774398  0  2.274025  0  0  -0.796043  0  2.257446  0  0  -0.472232  -0.750162  0  2.287082  0
O  O104  1  0.63029345  0.36529115  0.84055403  1  0  -0.591356  0  1.973889  0  0  -0.530742  0  2.191628  0  0  -0.557413  0  2.184129  0  0  -0.286366  -0.512776  0  2.197167  0
O  O105  1  0.36970346  0.63471192  0.15945118  1  0  -0.591175  0  1.9738  0  0  -0.530612  0  2.191525  0  0  -0.557284  0  2.184021  0  0  -0.28634  -0.512649  0  2.19706  0
O  O106  1  0.22192574  0.07618739  0.26318883  1  0  -0.346873  0  2.4586  0  0  -0.278959  0  2.699974  0  0  -0.294891  0  2.70244  0  0  -0.217184  -0.260391  0  2.69637  0
O  O107  1  0.77807496  0.92381400  0.73681645  1  0  -0.346914  0  2.45858  0  0  -0.279009  0  2.699943  0  0  -0.294943  0  2.702413  0  0  -0.217211  -0.260453  0  2.696329  0
O  O108  1  0.35161810  0.13262113  0.42301787  1  0  -0.726727  0  2.018936  0  0  -0.689235  0  2.267349  0  0  -0.712473  0  2.254959  0  0  -0.409792  -0.663722  0  2.277633  0
O  O109  1  0.64836645  0.86738301  0.57698590  1  0  -0.726912  0  2.018786  0  0  -0.689445  0  2.267234  0  0  -0.712684  0  2.254839  0  0  -0.40978  -0.663925  0  2.277508  0
O  O110  1  0.25088944  0.98827974  0.58431769  1  0  -0.633683  0  1.913486  0  0  -0.583788  0  2.133559  0  0  -0.608481  0  2.122357  0  0  -0.32538  -0.56702  0  2.141537  0
O  O111  1  0.74910289  0.01172007  0.41568822  1  0  -0.633637  0  1.913688  0  0  -0.583743  0  2.133756  0  0  -0.608433  0  2.122554  0  0  -0.325316  -0.56698  0  2.141742  0
O  O112  1  0.21889724  0.47032975  0.15040507  1  0  -0.988416  0  1.93064  0  0  -0.953891  0  2.14021  0  0  -0.971005  0  2.106062  0  0  -0.707257  -0.932919  0  2.167797  0
O  O113  1  0.78109725  0.52967041  0.84959621  1  0  -0.988507  0  1.930593  0  0  -0.95394  0  2.14023  0  0  -0.971051  0  2.106091  0  0  -0.707326  -0.932975  0  2.16783  0
O  O114  1  0.59511195  0.16090379  0.22553783  1  0  -0.933283  0  1.87417  0  0  -0.896394  0  2.063067  0  0  -0.914596  0  2.030958  0  0  -0.658643  -0.873698  0  2.090272  0
O  O115  1  0.40488275  0.83909463  0.77446482  1  0  -0.93331  0  1.874154  0  0  -0.896402  0  2.063052  0  0  -0.914606  0  2.030933  0  0  -0.658632  -0.873714  0  2.090254  0
O  O116  1  0.10720260  0.46797086  0.87189126  1  0  -0.856082  0  1.811344  0  0  -0.798013  0  1.972932  0  0  -0.81676  0  1.939887  0  0  -0.614422  -0.785126  0  1.996713  0
O  O117  1  0.89279217  0.53202457  0.12810805  1  0  -0.856253  0  1.811215  0  0  -0.798141  0  1.972814  0  0  -0.816891  0  1.939767  0  0  -0.614459  -0.785253  0  1.996592  0
