# generated using pymatgen
data_H9PbC6S(NO)2
_symmetry_space_group_name_H-M   'P 1'
_cell_length_a   7.56370882
_cell_length_b   9.87092326
_cell_length_c   12.54846425
_cell_angle_alpha   106.14438552
_cell_angle_beta   90.00022281
_cell_angle_gamma   90.00032798
_symmetry_Int_Tables_number   1
_chemical_formula_structural   H9PbC6S(NO)2
_chemical_formula_sum   'H36 Pb4 C24 S4 N8 O8'
_cell_volume   899.93155086
_cell_formula_units_Z   4
loop_
 _symmetry_equiv_pos_site_id
 _symmetry_equiv_pos_as_xyz
  1  'x, y, z'
loop_
 _atom_site_type_symbol
 _atom_site_label
 _atom_site_symmetry_multiplicity
 _atom_site_fract_x
 _atom_site_fract_y
 _atom_site_fract_z
 _atom_site_occupancy
 _atom_site_hle17_bader_spin_density
 _atom_site_hle17_ddec_charge
 _atom_site_hle17_ddec_spin_density
 _atom_site_hle17_ddec_sum_bond_order
 _atom_site_hle17_magmom
 _atom_site_hse06_10hf_bader_spin_density
 _atom_site_hse06_10hf_ddec_charge
 _atom_site_hse06_10hf_ddec_spin_density
 _atom_site_hse06_10hf_ddec_sum_bond_order
 _atom_site_hse06_10hf_magmom
 _atom_site_hse06_bader_spin_density
 _atom_site_hse06_ddec_charge
 _atom_site_hse06_ddec_spin_density
 _atom_site_hse06_ddec_sum_bond_order
 _atom_site_hse06_magmom
 _atom_site_pbe_bader_spin_density
 _atom_site_pbe_cm5_charge
 _atom_site_pbe_ddec_charge
 _atom_site_pbe_ddec_spin_density
 _atom_site_pbe_ddec_sum_bond_order
 _atom_site_pbe_magmom
H  H0  1  0.31817373  0.00788189  0.95523845  1  0  0.101573  0  0.941498  0  0  0.115503  0  0.998987  0  0  0.119026  0  0.996451  0  0  0.101335  0.11296  0  1.000859  0
H  H1  1  0.81817498  0.49212068  0.54476607  1  0  0.101619  0  0.941455  0  0  0.115547  0  0.998934  0  0  0.119077  0  0.996396  0  0  0.10135  0.113002  0  1.000807  0
H  H2  1  0.68182417  0.99211821  0.04476379  1  0  0.101599  0  0.941441  0  0  0.115525  0  0.998934  0  0  0.119052  0  0.996397  0  0  0.101359  0.112982  0  1.000805  0
H  H3  1  0.18182556  0.50787624  0.45523388  1  0  0.10161  0  0.941459  0  0  0.115541  0  0.998947  0  0  0.119064  0  0.996408  0  0  0.101359  0.112995  0  1.000814  0
H  H4  1  0.52707387  0.16798279  0.34944385  1  0  0.054942  0  0.933056  0  0  0.070699  0  0.999599  0  0  0.071077  0  0.999639  0  0  0.09595  0.070412  0  0.999586  0
H  H5  1  0.02707708  0.33201790  0.15055109  1  0  0.054926  0  0.933102  0  0  0.070726  0  0.99959  0  0  0.071106  0  0.999624  0  0  0.095958  0.070437  0  0.999577  0
H  H6  1  0.47292403  0.83202150  0.65055530  1  0  0.054932  0  0.933109  0  0  0.070743  0  0.999598  0  0  0.071121  0  0.999639  0  0  0.095963  0.07045  0  0.999578  0
H  H7  1  0.97292346  0.66798004  0.84944271  1  0  0.054937  0  0.933076  0  0  0.070719  0  0.9996  0  0  0.071095  0  0.99964  0  0  0.095955  0.070429  0  0.99958  0
H  H8  1  0.62878241  0.04823592  0.23292203  1  0  0.059231  0  0.938955  0  0  0.076943  0  1.001918  0  0  0.07694  0  1.002479  0  0  0.100618  0.076847  0  1.001582  0
H  H9  1  0.12877934  0.45176325  0.26707681  1  0  0.059194  0  0.938926  0  0  0.076903  0  1.001905  0  0  0.076901  0  1.002466  0  0  0.100599  0.07681  0  1.001564  0
H  H10  1  0.37121682  0.95176943  0.76707735  1  0  0.059232  0  0.938948  0  0  0.07695  0  1.001925  0  0  0.076946  0  1.002485  0  0  0.100594  0.076848  0  1.001589  0
H  H11  1  0.87121592  0.54823156  0.73292110  1  0  0.059219  0  0.938931  0  0  0.076945  0  1.001891  0  0  0.07694  0  1.002452  0  0  0.100611  0.076847  0  1.001555  0
H  H12  1  0.77978881  0.28907977  0.29581610  1  0  0.04685  0  0.934786  0  0  0.066237  0  0.996251  0  0  0.06648  0  0.996442  0  0  0.096301  0.065391  0  0.99724  0
H  H13  1  0.27978880  0.21092130  0.20418351  1  0  0.046855  0  0.934791  0  0  0.066235  0  0.996249  0  0  0.066479  0  0.996441  0  0  0.096309  0.065393  0  0.997238  0
H  H14  1  0.22021306  0.71092136  0.70418237  1  0  0.046787  0  0.934789  0  0  0.06615  0  0.99629  0  0  0.066392  0  0.996482  0  0  0.096281  0.065307  0  0.997278  0
H  H15  1  0.72021175  0.78907877  0.79581394  1  0  0.046839  0  0.934801  0  0  0.066243  0  0.996256  0  0  0.066488  0  0.996444  0  0  0.096287  0.065401  0  0.99724  0
H  H16  1  0.82564358  0.25478464  0.42403045  1  0  0.060081  0  0.96391  0  0  0.075258  0  1.032144  0  0  0.075077  0  1.03348  0  0  0.099127  0.075341  0  1.031148  0
H  H17  1  0.32564433  0.24521880  0.07597058  1  0  0.060081  0  0.963841  0  0  0.075249  0  1.032081  0  0  0.075069  0  1.033418  0  0  0.099137  0.075331  0  1.031093  0
H  H18  1  0.17435697  0.74521861  0.57596928  1  0  0.06007  0  0.963892  0  0  0.07526  0  1.03209  0  0  0.07508  0  1.033423  0  0  0.099139  0.075342  0  1.031099  0
H  H19  1  0.67435754  0.75478127  0.92402767  1  0  0.060105  0  0.963857  0  0  0.075288  0  1.032096  0  0  0.075105  0  1.033433  0  0  0.099141  0.075371  0  1.031104  0
H  H20  1  0.07699706  0.17787617  0.33809622  1  0  0.299677  0  0.932718  0  0  0.288011  0  0.991433  0  0  0.29549  0  0.985034  0  0  0.284841  0.282618  0  0.996154  0
H  H21  1  0.57699778  0.32212588  0.16190312  1  0  0.299703  0  0.932695  0  0  0.288085  0  0.991339  0  0  0.295564  0  0.984939  0  0  0.28487  0.282688  0  0.99607  0
H  H22  1  0.92300217  0.82212496  0.66190225  1  0  0.299722  0  0.932623  0  0  0.288085  0  0.991304  0  0  0.295562  0  0.984908  0  0  0.284874  0.28269  0  0.996028  0
H  H23  1  0.42300277  0.67787527  0.83809775  1  0  0.299699  0  0.932664  0  0  0.28805  0  0.991349  0  0  0.295528  0  0.984952  0  0  0.284849  0.282656  0  0.996073  0
H  H24  1  0.98757879  0.11360370  0.21067374  1  0  0.2761  0  0.944078  0  0  0.265376  0  1.003317  0  0  0.269251  0  1.003384  0  0  0.283924  0.262621  0  1.00343  0
H  H25  1  0.48758462  0.38639432  0.28932651  1  0  0.276107  0  0.944039  0  0  0.26538  0  1.003293  0  0  0.269257  0  1.003356  0  0  0.283904  0.262629  0  1.003399  0
H  H26  1  0.01241779  0.88639638  0.78932531  1  0  0.276131  0  0.944046  0  0  0.265411  0  1.003289  0  0  0.269287  0  1.003354  0  0  0.283926  0.262659  0  1.003394  0
H  H27  1  0.51241064  0.61360470  0.71067231  1  0  0.27609  0  0.944003  0  0  0.265355  0  1.003268  0  0  0.269231  0  1.003333  0  0  0.283892  0.262607  0  1.003373  0
H  H28  1  0.41616722  0.07799925  0.63524525  1  0  0.275379  0  0.938245  0  0  0.261327  0  1.005334  0  0  0.267663  0  1.001285  0  0  0.276092  0.256907  0  1.008219  0
H  H29  1  0.91616735  0.42200385  0.86475483  1  0  0.275413  0  0.938212  0  0  0.26137  0  1.005284  0  0  0.267706  0  1.001237  0  0  0.276104  0.256955  0  1.008164  0
H  H30  1  0.58382936  0.92200505  0.36475390  1  0  0.275433  0  0.938181  0  0  0.261344  0  1.005291  0  0  0.267677  0  1.001248  0  0  0.276086  0.256925  0  1.008176  0
H  H31  1  0.08383451  0.57799836  0.13524786  1  0  0.27539  0  0.938223  0  0  0.261346  0  1.005299  0  0  0.267679  0  1.001255  0  0  0.276106  0.25693  0  1.008176  0
H  H32  1  0.33131897  0.95023260  0.53391711  1  0  0.264359  0  0.95157  0  0  0.251877  0  1.018039  0  0  0.257749  0  1.014984  0  0  0.27186  0.247831  0  1.019962  0
H  H33  1  0.83131826  0.54977237  0.96608130  1  0  0.264375  0  0.951568  0  0  0.251896  0  1.018033  0  0  0.257769  0  1.014977  0  0  0.271882  0.247848  0  1.019966  0
H  H34  1  0.66867893  0.04977169  0.46608204  1  0  0.264352  0  0.951573  0  0  0.251877  0  1.01802  0  0  0.25775  0  1.014963  0  0  0.271885  0.247831  0  1.019945  0
H  H35  1  0.16868229  0.45023298  0.03391888  1  0  0.264364  0  0.951501  0  0  0.251871  0  1.018004  0  0  0.257743  0  1.014948  0  0  0.271852  0.24782  0  1.019942  0
Pb  Pb36  1  0.98329453  0.88415753  0.33495319  1  0  1.047337  0  1.576671  0  0  0.853493  0  1.990867  0  0  0.904979  0  1.956782  0  0  0.494741  0.81691  0  2.015116  0
Pb  Pb37  1  0.48330016  0.61584495  0.16504932  1  0  1.04734  0  1.576672  0  0  0.853515  0  1.990838  0  0  0.904985  0  1.956777  0  0  0.494741  0.816926  0  2.015104  0
Pb  Pb38  1  0.01670602  0.11584255  0.66504585  1  0  1.04728  0  1.576732  0  0  0.85344  0  1.990922  0  0  0.904915  0  1.956857  0  0  0.494714  0.816857  0  2.015177  0
Pb  Pb39  1  0.51670568  0.38415516  0.83495372  1  0  1.047351  0  1.576717  0  0  0.85351  0  1.990905  0  0  0.90499  0  1.956829  0  0  0.494751  0.816928  0  2.01518  0
C  C40  1  0.25181892  0.81586982  0.06584842  1  0  0.66314  0  3.933311  0  0  0.608478  0  4.232825  0  0  0.64336  0  4.224343  0  0  0.1986  0.584745  0  4.237808  0
C  C41  1  0.75182299  0.68413771  0.43415861  1  0  0.663239  0  3.933591  0  0  0.60851  0  4.233147  0  0  0.643402  0  4.224681  0  0  0.19862  0.584768  0  4.238124  0
C  C42  1  0.74818295  0.18413239  0.93415507  1  0  0.663068  0  3.933402  0  0  0.608404  0  4.232895  0  0  0.643282  0  4.22443  0  0  0.198578  0.584673  0  4.237874  0
C  C43  1  0.24818020  0.31585921  0.56584055  1  0  0.663205  0  3.933541  0  0  0.608495  0  4.233115  0  0  0.643371  0  4.224647  0  0  0.198607  0.584767  0  4.238095  0
C  C44  1  0.11963004  0.90933936  0.03123869  1  0  -0.095648  0  3.744115  0  0  -0.078735  0  3.988121  0  0  -0.08259  0  4.005076  0  0  -0.02602  -0.076912  0  3.977681  0
C  C45  1  0.61963230  0.59066005  0.46876548  1  0  -0.09567  0  3.744174  0  0  -0.078626  0  3.988008  0  0  -0.082568  0  4.005083  0  0  -0.026006  -0.076772  0  3.977523  0
C  C46  1  0.88037315  0.09066180  0.96876457  1  0  -0.095618  0  3.743973  0  0  -0.078662  0  3.987909  0  0  -0.082552  0  4.004919  0  0  -0.026011  -0.076841  0  3.977467  0
C  C47  1  0.38036957  0.40933795  0.53123710  1  0  -0.095636  0  3.744084  0  0  -0.078668  0  3.988023  0  0  -0.082551  0  4.00502  0  0  -0.025995  -0.076858  0  3.977591  0
C  C48  1  0.93851541  0.90256561  0.05724787  1  0  0.081871  0  3.816901  0  0  0.086462  0  4.07339  0  0  0.090833  0  4.095689  0  0  -0.019519  0.083332  0  4.058259  0
C  C49  1  0.43851739  0.59742923  0.44275289  1  0  0.081865  0  3.817033  0  0  0.086419  0  4.07351  0  0  0.090818  0  4.095821  0  0  -0.019493  0.083277  0  4.058363  0
C  C50  1  0.06148514  0.09743343  0.94275254  1  0  0.081791  0  3.816925  0  0  0.086373  0  4.073393  0  0  0.090755  0  4.095698  0  0  -0.019536  0.083244  0  4.058261  0
C  C51  1  0.56148712  0.40256876  0.55724969  1  0  0.081833  0  3.816946  0  0  0.086418  0  4.073423  0  0  0.090801  0  4.095721  0  0  -0.019536  0.083289  0  4.058298  0
C  C52  1  0.17775589  0.00421442  0.97443495  1  0  -0.144444  0  3.746394  0  0  -0.171065  0  4.002742  0  0  -0.171978  0  4.019388  0  0  -0.099199  -0.170107  0  3.991511  0
C  C53  1  0.67775308  0.49578419  0.52556679  1  0  -0.144509  0  3.746604  0  0  -0.171161  0  4.002917  0  0  -0.172055  0  4.019598  0  0  -0.099217  -0.170209  0  3.99167  0
C  C54  1  0.82224466  0.99578462  0.02556705  1  0  -0.144491  0  3.746288  0  0  -0.171121  0  4.002628  0  0  -0.172024  0  4.019287  0  0  -0.099233  -0.170159  0  3.991394  0
C  C55  1  0.32224878  0.50421379  0.47443420  1  0  -0.144506  0  3.746592  0  0  -0.17114  0  4.00293  0  0  -0.172047  0  4.019596  0  0  -0.099263  -0.170173  0  3.991689  0
C  C56  1  0.64749463  0.10550395  0.32068910  1  0  0.053486  0  3.652142  0  0  -0.003749  0  3.917401  0  0  0.000355  0  3.930243  0  0  -0.075481  -0.006323  0  3.908031  0
C  C57  1  0.14749585  0.39449743  0.17930947  1  0  0.053487  0  3.65215  0  0  -0.003784  0  3.917419  0  0  0.000322  0  3.930264  0  0  -0.075489  -0.006362  0  3.908049  0
C  C58  1  0.35250460  0.89450035  0.67931085  1  0  0.053486  0  3.65212  0  0  -0.003824  0  3.917449  0  0  0.000285  0  3.930283  0  0  -0.075457  -0.006379  0  3.908062  0
C  C59  1  0.85250205  0.60550264  0.82068718  1  0  0.053543  0  3.652132  0  0  -0.003731  0  3.917448  0  0  0.000381  0  3.930279  0  0  -0.075473  -0.006297  0  3.908068  0
C  C60  1  0.80645674  0.20429145  0.33513041  1  0  0.059719  0  3.661161  0  0  0.001795  0  3.926087  0  0  0.005506  0  3.939551  0  0  -0.075447  -0.00038  0  3.916438  0
C  C61  1  0.30645581  0.29571083  0.16487032  1  0  0.059757  0  3.661124  0  0  0.001871  0  3.926009  0  0  0.005571  0  3.939487  0  0  -0.075455  -0.000308  0  3.916372  0
C  C62  1  0.19354248  0.79571073  0.66486829  1  0  0.059836  0  3.661056  0  0  0.001966  0  3.925978  0  0  0.005674  0  3.939441  0  0  -0.07546  -0.00023  0  3.916345  0
C  C63  1  0.69354077  0.70428925  0.83512792  1  0  0.059638  0  3.661217  0  0  0.001686  0  3.926185  0  0  0.005394  0  3.939649  0  0  -0.075508  -0.000502  0  3.916546  0
S  S64  1  0.85671270  0.78022518  0.12379217  1  0  -0.523705  0  2.148751  0  0  -0.455252  0  2.487019  0  0  -0.475454  0  2.483667  0  0  -0.170785  -0.441098  0  2.48948  0
S  S65  1  0.35671254  0.71977131  0.37620955  1  0  -0.523736  0  2.148705  0  0  -0.455301  0  2.486987  0  0  -0.475497  0  2.483619  0  0  -0.170816  -0.441138  0  2.489436  0
S  S66  1  0.14329050  0.21977070  0.87620915  1  0  -0.523676  0  2.148775  0  0  -0.455223  0  2.487042  0  0  -0.475424  0  2.483687  0  0  -0.170784  -0.441068  0  2.489504  0
S  S67  1  0.64329065  0.28022563  0.62379360  1  0  -0.5237  0  2.148721  0  0  -0.45523  0  2.486939  0  0  -0.47543  0  2.48358  0  0  -0.170785  -0.44107  0  2.4894  0
N  N68  1  0.97019478  0.12798681  0.29369495  1  0  -0.642163  0  3.093081  0  0  -0.579714  0  3.31858  0  0  -0.600083  0  3.322094  0  0  -0.610913  -0.565073  0  3.315915  0
N  N69  1  0.47019733  0.37201427  0.20630511  1  0  -0.642236  0  3.093021  0  0  -0.579846  0  3.318493  0  0  -0.600211  0  3.322007  0  0  -0.610932  -0.565199  0  3.315831  0
N  N70  1  0.02980445  0.87201221  0.70630387  1  0  -0.642262  0  3.093022  0  0  -0.579872  0  3.318524  0  0  -0.600239  0  3.322032  0  0  -0.610942  -0.565226  0  3.315863  0
N  N71  1  0.52979925  0.62798582  0.79369473  1  0  -0.642138  0  3.092908  0  0  -0.57969  0  3.318399  0  0  -0.600058  0  3.321913  0  0  -0.610847  -0.565046  0  3.315735  0
N  N72  1  0.67726025  0.00066198  0.38251339  1  0  -0.615633  0  3.102387  0  0  -0.548308  0  3.321508  0  0  -0.569567  0  3.326255  0  0  -0.595971  -0.533395  0  3.317832  0
N  N73  1  0.17726584  0.49934169  0.11748813  1  0  -0.615552  0  3.102267  0  0  -0.548247  0  3.321279  0  0  -0.569507  0  3.326024  0  0  -0.595943  -0.533332  0  3.317608  0
N  N74  1  0.32273633  0.99934127  0.61748633  1  0  -0.615571  0  3.102403  0  0  -0.548263  0  3.321481  0  0  -0.569527  0  3.326228  0  0  -0.595955  -0.533357  0  3.317802  0
N  N75  1  0.82273603  0.50066156  0.88251319  1  0  -0.615648  0  3.102461  0  0  -0.548363  0  3.32153  0  0  -0.569628  0  3.326272  0  0  -0.595976  -0.533451  0  3.317857  0
O  O76  1  0.32551553  0.71932257  0.99088482  1  0  -0.658071  0  1.931193  0  0  -0.597251  0  2.160134  0  0  -0.625543  0  2.153175  0  0  -0.317204  -0.576925  0  2.164193  0
O  O77  1  0.82550834  0.78066548  0.50910834  1  0  -0.657997  0  1.931761  0  0  -0.597158  0  2.160716  0  0  -0.62545  0  2.153779  0  0  -0.317161  -0.576839  0  2.164777  0
O  O78  1  0.67448502  0.28067330  0.00911491  1  0  -0.658019  0  1.931419  0  0  -0.5972  0  2.160346  0  0  -0.625495  0  2.153404  0  0  -0.31717  -0.576878  0  2.164409  0
O  O79  1  0.17448691  0.21933356  0.49089287  1  0  -0.658008  0  1.931767  0  0  -0.597161  0  2.160715  0  0  -0.625456  0  2.153786  0  0  -0.317153  -0.576842  0  2.164773  0
O  O80  1  0.28133793  0.84048528  0.16996084  1  0  -0.664105  0  1.941746  0  0  -0.587405  0  2.168625  0  0  -0.618573  0  2.161866  0  0  -0.312856  -0.565721  0  2.173646  0
O  O81  1  0.78133850  0.65951289  0.33003787  1  0  -0.664219  0  1.941533  0  0  -0.587515  0  2.168433  0  0  -0.618679  0  2.161672  0  0  -0.3129  -0.56583  0  2.173456  0
O  O82  1  0.71866526  0.15951588  0.83004242  1  0  -0.66408  0  1.941707  0  0  -0.587388  0  2.168581  0  0  -0.618548  0  2.161824  0  0  -0.312872  -0.565702  0  2.173596  0
O  O83  1  0.21866469  0.34048194  0.66996323  1  0  -0.664212  0  1.941495  0  0  -0.587505  0  2.168391  0  0  -0.61867  0  2.161636  0  0  -0.312908  -0.565821  0  2.173415  0
