# generated using pymatgen
data_NiH14C16(NO3)2
_symmetry_space_group_name_H-M   'P 1'
_cell_length_a   7.59763334
_cell_length_b   8.68474344
_cell_length_c   13.02125017
_cell_angle_alpha   75.66767114
_cell_angle_beta   90.43546169
_cell_angle_gamma   72.22265276
_symmetry_Int_Tables_number   1
_chemical_formula_structural   NiH14C16(NO3)2
_chemical_formula_sum   'Ni2 H28 C32 N4 O12'
_cell_volume   789.46901752
_cell_formula_units_Z   2
loop_
 _symmetry_equiv_pos_site_id
 _symmetry_equiv_pos_as_xyz
  1  'x, y, z'
loop_
 _atom_site_type_symbol
 _atom_site_label
 _atom_site_symmetry_multiplicity
 _atom_site_fract_x
 _atom_site_fract_y
 _atom_site_fract_z
 _atom_site_occupancy
 _atom_site_hle17_bader_spin_density
 _atom_site_hle17_ddec_charge
 _atom_site_hle17_ddec_spin_density
 _atom_site_hle17_ddec_sum_bond_order
 _atom_site_hle17_magmom
 _atom_site_hse06_10hf_bader_spin_density
 _atom_site_hse06_10hf_ddec_charge
 _atom_site_hse06_10hf_ddec_spin_density
 _atom_site_hse06_10hf_ddec_sum_bond_order
 _atom_site_hse06_10hf_magmom
 _atom_site_hse06_bader_spin_density
 _atom_site_hse06_ddec_charge
 _atom_site_hse06_ddec_spin_density
 _atom_site_hse06_ddec_sum_bond_order
 _atom_site_hse06_magmom
 _atom_site_pbe_bader_spin_density
 _atom_site_pbe_cm5_charge
 _atom_site_pbe_ddec_charge
 _atom_site_pbe_ddec_spin_density
 _atom_site_pbe_ddec_sum_bond_order
 _atom_site_pbe_magmom
Ni  Ni0  1  0.14258335  0.25190309  0.24136546  1  0  0.657648  0  2.350688  0  0  0.618478  0  2.832619  0  0  0.684168  0  2.752706  0  0  0.638941  0.587862  0  2.878314  0
Ni  Ni1  1  0.85742111  0.74810504  0.75863106  1  0  0.657585  0  2.350836  0  0  0.61832  0  2.8328  0  0  0.684097  0  2.752857  0  0  0.638906  0.587756  0  2.878491  0
H  H2  1  0.81928745  0.57376661  0.15384931  1  0  0.105252  0  0.916463  0  0  0.116675  0  0.967452  0  0  0.120219  0  0.963504  0  0  0.131664  0.113675  0  0.970957  0
H  H3  1  0.18069556  0.42622831  0.84614761  1  0  0.105226  0  0.91648  0  0  0.116713  0  0.967387  0  0  0.120265  0  0.963431  0  0  0.131659  0.113695  0  0.970897  0
H  H4  1  0.56369963  0.73380540  0.24444972  1  0  0.118347  0  0.952905  0  0  0.126864  0  1.013255  0  0  0.131085  0  1.010634  0  0  0.11314  0.12364  0  1.015512  0
H  H5  1  0.43630582  0.26620546  0.75555567  1  0  0.118315  0  0.952923  0  0  0.126904  0  1.013207  0  0  0.131131  0  1.010574  0  0  0.113147  0.123667  0  1.015456  0
H  H6  1  0.56777064  0.64713727  0.44273903  1  0  0.090262  0  0.96585  0  0  0.102169  0  1.02879  0  0  0.104456  0  1.026787  0  0  0.104772  0.100467  0  1.030475  0
H  H7  1  0.43225066  0.35286401  0.55726748  1  0  0.090266  0  0.965899  0  0  0.102163  0  1.028842  0  0  0.104448  0  1.026844  0  0  0.104765  0.10046  0  1.030529  0
H  H8  1  0.74162339  0.43033869  0.62427166  1  0  0.119927  0  0.95547  0  0  0.12884  0  1.018211  0  0  0.132197  0  1.016548  0  0  0.104921  0.126239  0  1.019653  0
H  H9  1  0.25837460  0.56967360  0.37572360  1  0  0.119968  0  0.95545  0  0  0.128844  0  1.018233  0  0  0.132202  0  1.016568  0  0  0.104933  0.126247  0  1.019669  0
H  H10  1  0.97953433  0.16426789  0.70793440  1  0  0.12865  0  0.943248  0  0  0.138027  0  0.99968  0  0  0.142122  0  0.997955  0  0  0.113765  0.134793  0  1.001207  0
H  H11  1  0.02045236  0.83573364  0.29206700  1  0  0.128674  0  0.943244  0  0  0.13807  0  0.999637  0  0  0.142164  0  0.997912  0  0  0.113784  0.134845  0  1.001162  0
H  H12  1  0.24738267  0.90645045  0.68710655  1  0  0.132133  0  0.959319  0  0  0.13906  0  1.019442  0  0  0.143151  0  1.016154  0  0  0.114944  0.13576  0  1.022213  0
H  H13  1  0.75261559  0.09355180  0.31289234  1  0  0.13211  0  0.959316  0  0  0.139048  0  1.019433  0  0  0.143137  0  1.016146  0  0  0.114936  0.135749  0  1.022202  0
H  H14  1  0.44903530  0.77127282  0.56229305  1  0  0.105044  0  0.940567  0  0  0.118317  0  0.994741  0  0  0.12116  0  0.994265  0  0  0.110103  0.116139  0  0.995512  0
H  H15  1  0.55097372  0.22873919  0.43771062  1  0  0.10501  0  0.940574  0  0  0.118233  0  0.994812  0  0  0.121087  0  0.994322  0  0  0.110093  0.116054  0  0.995585  0
H  H16  1  0.40899018  0.92032520  0.36581169  1  0  0.093699  0  0.947248  0  0  0.102835  0  1.008299  0  0  0.105271  0  1.005822  0  0  0.125231  0.100939  0  1.01027  0
H  H17  1  0.59101889  0.07968112  0.63418810  1  0  0.093708  0  0.947248  0  0  0.102824  0  1.008316  0  0  0.105252  0  1.005859  0  0  0.12521  0.100927  0  1.010287  0
H  H18  1  0.84378856  0.93692396  0.03307195  1  0  0.123934  0  0.951163  0  0  0.132571  0  1.010803  0  0  0.136097  0  1.008791  0  0  0.110063  0.130086  0  1.012417  0
H  H19  1  0.15621951  0.06305854  0.96693716  1  0  0.123953  0  0.951187  0  0  0.132573  0  1.01082  0  0  0.1361  0  1.008809  0  0  0.110022  0.130087  0  1.012436  0
H  H20  1  0.54462672  0.93073355  0.09149423  1  0  0.10931  0  0.970084  0  0  0.118845  0  1.028852  0  0  0.122309  0  1.027841  0  0  0.100848  0.116415  0  1.029632  0
H  H21  1  0.45537164  0.06925888  0.90850596  1  0  0.109369  0  0.969967  0  0  0.118885  0  1.028773  0  0  0.122347  0  1.027768  0  0  0.100886  0.116466  0  1.029539  0
H  H22  1  0.18279285  0.41336172  0.06714856  1  0  0.420386  0  0.816698  0  0  0.402813  0  0.872237  0  0  0.411355  0  0.864497  0  0  0.325483  0.396815  0  0.87796  0
H  H23  1  0.81720754  0.58664517  0.93283816  1  0  0.420353  0  0.816725  0  0  0.402794  0  0.872245  0  0  0.411333  0  0.864511  0  0  0.325464  0.396795  0  0.877969  0
H  H24  1  0.00660834  0.33268450  0.05713461  1  0  0.410329  0  0.895925  0  0  0.374829  0  0.979193  0  0  0.389129  0  0.959431  0  0  0.286036  0.364912  0  0.989773  0
H  H25  1  0.99339238  0.66732428  0.94287033  1  0  0.410246  0  0.89608  0  0  0.374774  0  0.979273  0  0  0.389079  0  0.959506  0  0  0.286007  0.364855  0  0.989872  0
H  H26  1  0.24132238  0.65694461  0.12878835  1  0  0.407118  0  0.890182  0  0  0.378072  0  0.951408  0  0  0.389058  0  0.935227  0  0  0.274781  0.370204  0  0.962944  0
H  H27  1  0.75867005  0.34304233  0.87122262  1  0  0.407181  0  0.890061  0  0  0.378168  0  0.951239  0  0  0.389152  0  0.935061  0  0  0.274902  0.370307  0  0.96277  0
H  H28  1  0.38084846  0.48376767  0.18670211  1  0  0.400788  0  0.909604  0  0  0.369387  0  0.977178  0  0  0.380729  0  0.959835  0  0  0.268877  0.361108  0  0.989823  0
H  H29  1  0.61914924  0.51622392  0.81330743  1  0  0.400841  0  0.90953  0  0  0.369445  0  0.977095  0  0  0.380785  0  0.959759  0  0  0.268902  0.361167  0  0.98974  0
C  C30  1  0.81525698  0.53783238  0.23974990  1  0  0.16556  0  3.587447  0  0  0.133803  0  3.839288  0  0  0.148996  0  3.847931  0  0  0.073121  0.123196  0  3.835378  0
C  C31  1  0.18473620  0.46216903  0.76024837  1  0  0.165632  0  3.587455  0  0  0.13379  0  3.839304  0  0  0.148974  0  3.84796  0  0  0.073134  0.123202  0  3.835372  0
C  C32  1  0.67533877  0.62812259  0.29211770  1  0  -0.087405  0  3.698239  0  0  -0.101765  0  3.952632  0  0  -0.107782  0  3.968187  0  0  -0.068286  -0.098491  0  3.943518  0
C  C33  1  0.32466135  0.37187809  0.70788369  1  0  -0.087293  0  3.698199  0  0  -0.101724  0  3.95261  0  0  -0.107739  0  3.968163  0  0  -0.068247  -0.098426  0  3.943474  0
C  C34  1  0.67702559  0.57906997  0.40186952  1  0  -0.059244  0  3.685422  0  0  -0.085949  0  3.93758  0  0  -0.080548  0  3.952759  0  0  -0.069006  -0.090063  0  3.92802  0
C  C35  1  0.32298708  0.42092855  0.59813358  1  0  -0.059352  0  3.685379  0  0  -0.086044  0  3.937553  0  0  -0.080647  0  3.952733  0  0  -0.06906  -0.090163  0  3.927997  0
C  C36  1  0.81901687  0.43630541  0.46097386  1  0  0.026372  0  3.824026  0  0  0.039849  0  4.058839  0  0  0.037028  0  4.083268  0  0  -0.003806  0.041798  0  4.042436  0
C  C37  1  0.18099054  0.56369251  0.53902629  1  0  0.026428  0  3.823812  0  0  0.03995  0  4.05861  0  0  0.037116  0  4.083029  0  0  -0.003731  0.041896  0  4.042212  0
C  C38  1  0.83708625  0.36707392  0.57421338  1  0  -0.114142  0  3.710222  0  0  -0.13695  0  3.969441  0  0  -0.142253  0  3.993555  0  0  -0.08426  -0.133385  0  3.953457  0
C  C39  1  0.16291137  0.63293074  0.42578596  1  0  -0.114229  0  3.710348  0  0  -0.137012  0  3.969594  0  0  -0.142316  0  3.993705  0  0  -0.084303  -0.133447  0  3.953616  0
C  C40  1  0.97158410  0.21881917  0.62244195  1  0  -0.078088  0  3.676626  0  0  -0.101322  0  3.93041  0  0  -0.103779  0  3.952557  0  0  -0.074006  -0.099721  0  3.916036  0
C  C41  1  0.02841130  0.78118426  0.37755912  1  0  -0.078099  0  3.676768  0  0  -0.101321  0  3.930541  0  0  -0.103775  0  3.952689  0  0  -0.074046  -0.099736  0  3.91616  0
C  C42  1  0.10086602  0.12768034  0.56171389  1  0  0.032219  0  3.777375  0  0  0.04771  0  4.011952  0  0  0.043502  0  4.034835  0  0  0.002743  0.050369  0  3.996941  0
C  C43  1  0.89912459  0.87232109  0.43828594  1  0  0.032189  0  3.777432  0  0  0.047651  0  4.012053  0  0  0.043434  0  4.034938  0  0  0.002824  0.050315  0  3.997046  0
C  C44  1  0.23583914  0.96881767  0.60250409  1  0  -0.032264  0  3.613019  0  0  -0.060996  0  3.866492  0  0  -0.050754  0  3.875475  0  0  -0.059681  -0.068638  0  3.861701  0
C  C45  1  0.76415615  0.03118591  0.39749542  1  0  -0.032192  0  3.613029  0  0  -0.060926  0  3.866506  0  0  -0.050685  0  3.875494  0  0  -0.059674  -0.068573  0  3.861719  0
C  C46  1  0.34525833  0.89408931  0.53246014  1  0  -0.124572  0  3.748254  0  0  -0.140282  0  4.011462  0  0  -0.150022  0  4.030513  0  0  -0.085493  -0.134251  0  3.999519  0
C  C47  1  0.65474467  0.10591985  0.46753933  1  0  -0.124469  0  3.74827  0  0  -0.140108  0  4.011454  0  0  -0.149855  0  4.030501  0  0  -0.085462  -0.134079  0  3.999512  0
C  C48  1  0.32549625  0.97476260  0.42321636  1  0  0.13314  0  3.664779  0  0  0.101013  0  3.921462  0  0  0.115719  0  3.93475  0  0  0.055224  0.091335  0  3.913422  0
C  C49  1  0.67450879  0.02524397  0.57678344  1  0  0.13307  0  3.664703  0  0  0.100919  0  3.921425  0  0  0.115621  0  3.934716  0  0  0.055201  0.091249  0  3.913392  0
C  C50  1  0.08954804  0.19959654  0.45126866  1  0  0.108713  0  3.788139  0  0  0.101073  0  4.026275  0  0  0.107351  0  4.046965  0  0  0.107403  0.096918  0  4.013162  0
C  C51  1  0.91044858  0.80040213  0.54873072  1  0  0.108728  0  3.78812  0  0  0.101128  0  4.02627  0  0  0.107396  0  4.04695  0  0  0.107394  0.096969  0  4.013176  0
C  C52  1  0.95063630  0.35134191  0.40145580  1  0  0.109699  0  3.796304  0  0  0.10613  0  4.030153  0  0  0.111339  0  4.051188  0  0  0.111667  0.102494  0  4.016876  0
C  C53  1  0.04936534  0.64865767  0.59854342  1  0  0.109769  0  3.796148  0  0  0.106074  0  4.030116  0  0  0.111332  0  4.051086  0  0  0.111641  0.102443  0  4.016839  0
C  C54  1  0.86883793  0.14377523  0.09328873  1  0  0.697651  0  3.88186  0  0  0.648679  0  4.184795  0  0  0.68334  0  4.175715  0  0  0.21293  0.625229  0  4.189834  0
C  C55  1  0.13115036  0.85622994  0.90671140  1  0  0.697658  0  3.88193  0  0  0.648672  0  4.184836  0  0  0.683338  0  4.175757  0  0  0.212937  0.625224  0  4.189874  0
C  C56  1  0.76552518  0.03159698  0.07194517  1  0  -0.122269  0  3.61923  0  0  -0.146758  0  3.879781  0  0  -0.147561  0  3.892114  0  0  -0.071669  -0.14677  0  3.871486  0
C  C57  1  0.23448088  0.96839619  0.92805485  1  0  -0.12239  0  3.619346  0  0  -0.146793  0  3.879796  0  0  -0.147606  0  3.892139  0  0  -0.071628  -0.146808  0  3.87151  0
C  C58  1  0.59900674  0.02780830  0.10388090  1  0  -0.226764  0  3.735317  0  0  -0.242056  0  3.992113  0  0  -0.251913  0  4.008972  0  0  -0.108227  -0.235059  0  3.980428  0
C  C59  1  0.40099687  0.97218316  0.89611321  1  0  -0.226735  0  3.735152  0  0  -0.242098  0  3.991965  0  0  -0.251952  0  4.008828  0  0  -0.1083  -0.235116  0  3.980265  0
C  C60  1  0.47455135  0.15198495  0.15330415  1  0  0.643207  0  3.919022  0  0  0.606313  0  4.213649  0  0  0.643505  0  4.207657  0  0  0.196718  0.580876  0  4.217504  0
C  C61  1  0.52544475  0.84800880  0.84668357  1  0  0.643142  0  3.919062  0  0  0.606327  0  4.213578  0  0  0.643519  0  4.207581  0  0  0.196796  0.580915  0  4.217408  0
N  N62  1  0.95003015  0.40090991  0.29339729  1  0  -0.251846  0  3.352541  0  0  -0.208008  0  3.649939  0  0  -0.232169  0  3.660221  0  0  -0.328691  -0.195326  0  3.644271  0
N  N63  1  0.04996367  0.59908908  0.70660053  1  0  -0.25195  0  3.352589  0  0  -0.208  0  3.649965  0  0  -0.232193  0  3.660258  0  0  -0.32873  -0.195327  0  3.6443  0
N  N64  1  0.20146613  0.12629000  0.38323142  1  0  -0.264615  0  3.376203  0  0  -0.219205  0  3.677767  0  0  -0.243988  0  3.686474  0  0  -0.336857  -0.206215  0  3.672721  0
N  N65  1  0.79853313  0.87371340  0.61676731  1  0  -0.264637  0  3.376122  0  0  -0.219172  0  3.677644  0  0  -0.243971  0  3.686377  0  0  -0.336882  -0.206215  0  3.672639  0
O  O66  1  0.93700531  0.11143762  0.18718057  1  0  -0.60271  0  1.984176  0  0  -0.553336  0  2.219203  0  0  -0.583734  0  2.209476  0  0  -0.295832  -0.531621  0  2.224481  0
O  O67  1  0.06298725  0.88854760  0.81282293  1  0  -0.602656  0  1.984401  0  0  -0.553241  0  2.219386  0  0  -0.583649  0  2.209665  0  0  -0.2958  -0.531532  0  2.224661  0
O  O68  1  0.89571659  0.25494493  0.01383459  1  0  -0.64086  0  1.978114  0  0  -0.575617  0  2.19088  0  0  -0.603212  0  2.176923  0  0  -0.31751  -0.555875  0  2.198801  0
O  O69  1  0.10428516  0.74505528  0.98617070  1  0  -0.640862  0  1.97807  0  0  -0.575623  0  2.19081  0  0  -0.603223  0  2.17685  0  0  -0.317512  -0.555884  0  2.19873  0
O  O70  1  0.33838739  0.10211711  0.19563083  1  0  -0.54318  0  2.091677  0  0  -0.513727  0  2.378405  0  0  -0.559553  0  2.371297  0  0  -0.311779  -0.483616  0  2.381706  0
O  O71  1  0.66160954  0.89788927  0.80436368  1  0  -0.543207  0  2.091651  0  0  -0.51378  0  2.378359  0  0  -0.559619  0  2.371256  0  0  -0.311803  -0.483688  0  2.381653  0
O  O72  1  0.49867670  0.28894902  0.15123929  1  0  -0.606638  0  1.940105  0  0  -0.561176  0  2.152675  0  0  -0.586211  0  2.141033  0  0  -0.309202  -0.543939  0  2.1605  0
O  O73  1  0.50131562  0.71104872  0.84874716  1  0  -0.606484  0  1.940416  0  0  -0.561049  0  2.152961  0  0  -0.586085  0  2.141319  0  0  -0.309183  -0.543826  0  2.160781  0
O  O74  1  0.07473584  0.39309739  0.10084944  1  0  -0.740814  0  2.066409  0  0  -0.70265  0  2.316057  0  0  -0.73943  0  2.288041  0  0  -0.540994  -0.679132  0  2.332624  0
O  O75  1  0.92526951  0.60691205  0.89914536  1  0  -0.740754  0  2.066563  0  0  -0.702601  0  2.316155  0  0  -0.7394  0  2.288147  0  0  -0.540969  -0.679083  0  2.332733  0
O  O76  1  0.31320304  0.59431608  0.19756838  1  0  -0.84398  0  1.738817  0  0  -0.802586  0  1.883024  0  0  -0.820404  0  1.851513  0  0  -0.618066  -0.789188  0  1.90537  0
O  O77  1  0.68680126  0.40567524  0.80243960  1  0  -0.844111  0  1.738626  0  0  -0.802747  0  1.882798  0  0  -0.820568  0  1.85129  0  0  -0.618218  -0.789364  0  1.905119  0
