# generated using pymatgen
data_CdH23C20N3O4
_symmetry_space_group_name_H-M   'P 1'
_cell_length_a   8.79954636
_cell_length_b   11.08050669
_cell_length_c   11.61913669
_cell_angle_alpha   90.00010099
_cell_angle_beta   90.00000874
_cell_angle_gamma   89.83734473
_symmetry_Int_Tables_number   1
_chemical_formula_structural   CdH23C20N3O4
_chemical_formula_sum   'Cd2 H46 C40 N6 O8'
_cell_volume   1132.90114310
_cell_formula_units_Z   2
loop_
 _symmetry_equiv_pos_site_id
 _symmetry_equiv_pos_as_xyz
  1  'x, y, z'
loop_
 _atom_site_type_symbol
 _atom_site_label
 _atom_site_symmetry_multiplicity
 _atom_site_fract_x
 _atom_site_fract_y
 _atom_site_fract_z
 _atom_site_occupancy
 _atom_site_hle17_bader_spin_density
 _atom_site_hle17_ddec_charge
 _atom_site_hle17_ddec_spin_density
 _atom_site_hle17_ddec_sum_bond_order
 _atom_site_hle17_magmom
 _atom_site_hse06_10hf_bader_spin_density
 _atom_site_hse06_10hf_ddec_charge
 _atom_site_hse06_10hf_ddec_spin_density
 _atom_site_hse06_10hf_ddec_sum_bond_order
 _atom_site_hse06_10hf_magmom
 _atom_site_hse06_bader_spin_density
 _atom_site_hse06_ddec_charge
 _atom_site_hse06_ddec_spin_density
 _atom_site_hse06_ddec_sum_bond_order
 _atom_site_hse06_magmom
 _atom_site_pbe_bader_spin_density
 _atom_site_pbe_cm5_charge
 _atom_site_pbe_ddec_charge
 _atom_site_pbe_ddec_spin_density
 _atom_site_pbe_ddec_sum_bond_order
 _atom_site_pbe_magmom
Cd  Cd0  1  0.96770753  0.21866893  0.23406410  1  0  1.020838  0  1.768145  0  0  0.821209  0  2.214527  0  0  0.879751  0  2.166127  0  0  0.746761  0.780109  0  2.247154  0
Cd  Cd1  1  0.03229111  0.78132852  0.73406466  1  0  1.020908  0  1.768132  0  0  0.821291  0  2.214501  0  0  0.879831  0  2.166102  0  0  0.746793  0.780192  0  2.247131  0
H  H2  1  0.82205923  0.45117416  0.26448135  1  0  0.250946  0  0.896005  0  0  0.25222  0  0.935717  0  0  0.256688  0  0.933885  0  0  0.30591  0.248991  0  0.937177  0
H  H3  1  0.17794511  0.54882602  0.76448068  1  0  0.250944  0  0.89598  0  0  0.252222  0  0.935687  0  0  0.25669  0  0.933855  0  0  0.305911  0.248994  0  0.937147  0
H  H4  1  0.99391276  0.06380253  0.99011670  1  0  0.080994  0  0.939079  0  0  0.087819  0  1.007142  0  0  0.090161  0  1.005244  0  0  0.119269  0.086041  0  1.008653  0
H  H5  1  0.00608254  0.93619901  0.49011810  1  0  0.080975  0  0.939059  0  0  0.087806  0  1.007095  0  0  0.090147  0  1.005198  0  0  0.119269  0.086027  0  1.008606  0
H  H6  1  0.91022320  0.07720413  0.78491041  1  0  0.136861  0  0.957053  0  0  0.14314  0  1.019073  0  0  0.147401  0  1.016655  0  0  0.115199  0.140053  0  1.020978  0
H  H7  1  0.08977435  0.92280154  0.28491179  1  0  0.136779  0  0.957141  0  0  0.143134  0  1.019078  0  0  0.147396  0  1.016656  0  0  0.115171  0.140047  0  1.020983  0
H  H8  1  0.76209896  0.26073671  0.72266497  1  0  0.094243  0  0.936097  0  0  0.109291  0  0.987402  0  0  0.111244  0  0.986956  0  0  0.112038  0.107815  0  0.9878  0
H  H9  1  0.23790085  0.73926974  0.22266434  1  0  0.094177  0  0.936194  0  0  0.109224  0  0.987499  0  0  0.11118  0  0.987055  0  0  0.112012  0.107749  0  0.987892  0
H  H10  1  0.69704500  0.41851513  0.87053581  1  0  0.111767  0  0.931545  0  0  0.125476  0  0.981868  0  0  0.128956  0  0.980913  0  0  0.112141  0.122915  0  0.982814  0
H  H11  1  0.30295484  0.58148978  0.37053406  1  0  0.111736  0  0.931569  0  0  0.125428  0  0.98191  0  0  0.128918  0  0.980944  0  0  0.112129  0.122868  0  0.982855  0
H  H12  1  0.71345644  0.48825450  0.06596663  1  0  0.066782  0  0.929045  0  0  0.081884  0  0.990477  0  0  0.083028  0  0.989919  0  0  0.101149  0.080994  0  0.990987  0
H  H13  1  0.28654331  0.51174624  0.56596332  1  0  0.066785  0  0.928969  0  0  0.081866  0  0.990422  0  0  0.083007  0  0.989868  0  0  0.101161  0.080976  0  0.990933  0
H  H14  1  0.65787793  0.35980336  0.14778671  1  0  0.108777  0  0.900712  0  0  0.128874  0  0.953344  0  0  0.129912  0  0.952664  0  0  0.125385  0.128026  0  0.953961  0
H  H15  1  0.34212411  0.64019662  0.64778276  1  0  0.108767  0  0.900699  0  0  0.128839  0  0.953369  0  0  0.129878  0  0.952685  0  0  0.125371  0.127991  0  0.953988  0
H  H16  1  0.07474532  0.44714694  0.09880548  1  0  0.094104  0  0.932432  0  0  0.108303  0  0.994696  0  0  0.110137  0  0.992649  0  0  0.108936  0.106875  0  0.996273  0
H  H17  1  0.92525784  0.55285204  0.59880404  1  0  0.094061  0  0.932527  0  0  0.108301  0  0.994734  0  0  0.110137  0  0.992683  0  0  0.108933  0.106874  0  0.996311  0
H  H18  1  0.06772644  0.51684727  0.23434401  1  0  0.074403  0  0.928281  0  0  0.091884  0  0.991726  0  0  0.09184  0  0.992309  0  0  0.10809  0.091847  0  0.991368  0
H  H19  1  0.93227561  0.48315196  0.73434245  1  0  0.074458  0  0.928261  0  0  0.0919  0  0.991742  0  0  0.091855  0  0.992327  0  0  0.108112  0.091864  0  0.991383  0
H  H20  1  0.04333089  0.56408155  0.93430225  1  0  0.069122  0  0.94009  0  0  0.078422  0  1.00547  0  0  0.08094  0  1.003411  0  0  0.112032  0.076521  0  1.007116  0
H  H21  1  0.95667008  0.43591986  0.43429861  1  0  0.069089  0  0.940104  0  0  0.078401  0  1.005475  0  0  0.080921  0  1.003413  0  0  0.11202  0.0765  0  1.007119  0
H  H22  1  0.83394350  0.89863400  0.93023084  1  0  0.083637  0  0.952091  0  0  0.089308  0  1.021626  0  0  0.091914  0  1.019621  0  0  0.117974  0.087373  0  1.023127  0
H  H23  1  0.16605745  0.10136380  0.43023085  1  0  0.083627  0  0.9521  0  0  0.089299  0  1.021636  0  0  0.091905  0  1.01963  0  0  0.117955  0.087364  0  1.023138  0
H  H24  1  0.78912537  0.89077243  0.14568546  1  0  0.118305  0  0.960137  0  0  0.124795  0  1.023195  0  0  0.128594  0  1.021488  0  0  0.110871  0.122026  0  1.024607  0
H  H25  1  0.21087781  0.10922844  0.64568491  1  0  0.11829  0  0.960125  0  0  0.12478  0  1.023193  0  0  0.128578  0  1.021486  0  0  0.110871  0.122008  0  1.024602  0
H  H26  1  0.86060608  0.70358288  0.25148060  1  0  0.098767  0  0.928917  0  0  0.11444  0  0.980834  0  0  0.117013  0  0.979722  0  0  0.111009  0.112526  0  0.981743  0
H  H27  1  0.13939826  0.29641818  0.75148036  1  0  0.098761  0  0.928945  0  0  0.114427  0  0.980859  0  0  0.117001  0  0.979745  0  0  0.111006  0.112512  0  0.981771  0
H  H28  1  0.50603356  0.16877052  0.18726107  1  0  0.080859  0  0.932953  0  0  0.093223  0  0.991209  0  0  0.095022  0  0.990936  0  0  0.0982  0.091927  0  0.99153  0
H  H29  1  0.49396620  0.83122593  0.68726177  1  0  0.080893  0  0.932926  0  0  0.093255  0  0.991172  0  0  0.095056  0  0.990896  0  0  0.098203  0.091958  0  0.991494  0
H  H30  1  0.55883806  0.96278138  0.12980136  1  0  0.052175  0  0.950794  0  0  0.071267  0  1.015291  0  0  0.071878  0  1.015512  0  0  0.082091  0.070784  0  1.015217  0
H  H31  1  0.44116511  0.03721675  0.62980674  1  0  0.052137  0  0.950712  0  0  0.071252  0  1.015195  0  0  0.071868  0  1.015407  0  0  0.082083  0.070768  0  1.015122  0
H  H32  1  0.40337082  0.96113832  0.22664590  1  0  0.066479  0  0.954435  0  0  0.082498  0  1.021681  0  0  0.08314  0  1.022427  0  0  0.086713  0.082005  0  1.021223  0
H  H33  1  0.59663348  0.03885637  0.72665130  1  0  0.066395  0  0.954445  0  0  0.082454  0  1.021659  0  0  0.083094  0  1.022404  0  0  0.086722  0.081962  0  1.021202  0
H  H34  1  0.22202966  0.93789564  0.06804631  1  0  0.06571  0  0.942775  0  0  0.083285  0  1.006575  0  0  0.0843  0  1.007071  0  0  0.085019  0.082501  0  1.006326  0
H  H35  1  0.77797121  0.06210059  0.56804660  1  0  0.06566  0  0.942793  0  0  0.083235  0  1.006611  0  0  0.084246  0  1.007111  0  0  0.084993  0.082451  0  1.006363  0
H  H36  1  0.36183166  0.82281605  0.05680700  1  0  0.059783  0  0.939692  0  0  0.075752  0  1.002691  0  0  0.077726  0  1.001318  0  0  0.082026  0.074351  0  1.003676  0
H  H37  1  0.63817147  0.17718014  0.55681264  1  0  0.05973  0  0.939701  0  0  0.075682  0  1.002747  0  0  0.077656  0  1.001373  0  0  0.082025  0.074284  0  1.003729  0
H  H38  1  0.49628867  0.93179423  0.90601563  1  0  0.069927  0  0.909216  0  0  0.085509  0  0.961911  0  0  0.086903  0  0.96215  0  0  0.097036  0.084512  0  0.96186  0
H  H39  1  0.50370659  0.06820355  0.40602251  1  0  0.069946  0  0.909179  0  0  0.085508  0  0.961873  0  0  0.0869  0  0.962112  0  0  0.09703  0.08451  0  0.961822  0
H  H40  1  0.24896692  0.12646544  0.92688396  1  0  0.063624  0  0.950977  0  0  0.079614  0  1.018403  0  0  0.080513  0  1.018493  0  0  0.083943  0.078918  0  1.018427  0
H  H41  1  0.75103063  0.87353508  0.42688275  1  0  0.06365  0  0.95098  0  0  0.079654  0  1.018402  0  0  0.08055  0  1.018488  0  0  0.083953  0.078957  0  1.018426  0
H  H42  1  0.40014551  0.12646115  0.82765801  1  0  0.056599  0  0.952344  0  0  0.074639  0  1.015962  0  0  0.075396  0  1.01619  0  0  0.083043  0.074098  0  1.015795  0
H  H43  1  0.59985089  0.87354009  0.32765850  1  0  0.056559  0  0.952412  0  0  0.074632  0  1.016011  0  0  0.075381  0  1.01624  0  0  0.083044  0.07409  0  1.015845  0
H  H44  1  0.45723724  0.26099135  0.99477295  1  0  0.06318  0  0.944832  0  0  0.079635  0  1.007126  0  0  0.081616  0  1.005757  0  0  0.081287  0.078145  0  1.008216  0
H  H45  1  0.54276145  0.73900658  0.49477149  1  0  0.063157  0  0.944848  0  0  0.079614  0  1.007169  0  0  0.081585  0  1.005813  0  0  0.081287  0.078124  0  1.008257  0
H  H46  1  0.58782110  0.13858745  0.98872507  1  0  0.053033  0  0.959705  0  0  0.070054  0  1.026028  0  0  0.0699  0  1.028799  0  0  0.07915  0.070142  0  1.024122  0
H  H47  1  0.41217759  0.86141137  0.48872725  1  0  0.052981  0  0.959709  0  0  0.070026  0  1.026042  0  0  0.069873  0  1.028811  0  0  0.079132  0.070112  0  1.024135  0
C  C48  1  0.80522524  0.31943936  0.00795271  1  0  0.232192  0  3.73727  0  0  0.235526  0  3.983049  0  0  0.242711  0  4.005551  0  0  0.120494  0.230771  0  3.96773  0
C  C49  1  0.19477451  0.68056307  0.50795140  1  0  0.232219  0  3.737312  0  0  0.235522  0  3.983127  0  0  0.242706  0  4.005631  0  0  0.120538  0.230767  0  3.96781  0
C  C50  1  0.92515984  0.13951884  0.96000695  1  0  0.136397  0  3.705821  0  0  0.104188  0  3.964393  0  0  0.111515  0  3.981782  0  0  0.053329  0.099414  0  3.952687  0
C  C51  1  0.07484001  0.86048443  0.46000651  1  0  0.13651  0  3.705808  0  0  0.104319  0  3.964381  0  0  0.111647  0  3.981772  0  0  0.0534  0.099544  0  3.952676  0
C  C52  1  0.88080462  0.14856171  0.84529619  1  0  -0.118581  0  3.701038  0  0  -0.135824  0  3.960638  0  0  -0.142191  0  3.979594  0  0  -0.078174  -0.131871  0  3.948173  0
C  C53  1  0.11919521  0.85144316  0.34529660  1  0  -0.118615  0  3.70111  0  0  -0.135941  0  3.960727  0  0  -0.142308  0  3.979684  0  0  -0.078234  -0.131988  0  3.948261  0
C  C54  1  0.79770236  0.25019789  0.81197538  1  0  0.00078  0  3.732262  0  0  -0.017537  0  3.983662  0  0  -0.014238  0  4.003241  0  0  -0.063565  -0.019394  0  3.970208  0
C  C55  1  0.20229976  0.74980960  0.31197477  1  0  0.00093  0  3.732082  0  0  -0.017381  0  3.98347  0  0  -0.014085  0  4.003053  0  0  -0.063437  -0.019236  0  3.970016  0
C  C56  1  0.76133673  0.33777803  0.89372249  1  0  -0.179329  0  3.741816  0  0  -0.198428  0  3.992272  0  0  -0.206392  0  4.013783  0  0  -0.085021  -0.193272  0  3.977821  0
C  C57  1  0.23866310  0.66222512  0.39372345  1  0  -0.17931  0  3.741677  0  0  -0.198382  0  3.992137  0  0  -0.206356  0  4.013643  0  0  -0.085061  -0.193226  0  3.977686  0
C  C58  1  0.75433915  0.40274742  0.10347795  1  0  -0.049187  0  3.676659  0  0  -0.114012  0  3.937295  0  0  -0.110833  0  3.94749  0  0  -0.062492  -0.116052  0  3.930173  0
C  C59  1  0.24566175  0.59725429  0.60347564  1  0  -0.049163  0  3.67658  0  0  -0.113941  0  3.937221  0  0  -0.11076  0  3.947415  0  0  -0.062479  -0.115981  0  3.930102  0
C  C60  1  0.00054856  0.49957255  0.15632012  1  0  -0.02352  0  3.688382  0  0  -0.089801  0  3.953444  0  0  -0.085123  0  3.964857  0  0  -0.071023  -0.092799  0  3.945583  0
C  C61  1  0.99945462  0.50042653  0.65631860  1  0  -0.023532  0  3.688466  0  0  -0.089805  0  3.953513  0  0  -0.085127  0  3.964925  0  0  -0.071  -0.092802  0  3.945653  0
C  C62  1  0.95467408  0.61647376  0.09995636  1  0  0.008497  0  3.770237  0  0  0.032958  0  4.01329  0  0  0.027798  0  4.039089  0  0  -0.012991  0.036086  0  3.995935  0
C  C63  1  0.04533137  0.38352792  0.59995196  1  0  0.008579  0  3.770095  0  0  0.033  0  4.013185  0  0  0.02784  0  4.038984  0  0  -0.012975  0.036127  0  3.995833  0
C  C64  1  0.98315193  0.63385733  0.98294281  1  0  0.074898  0  3.716199  0  0  0.038647  0  3.967451  0  0  0.044025  0  3.986979  0  0  0.045709  0.035197  0  3.954258  0
C  C65  1  0.01684675  0.36614057  0.48294066  1  0  0.074902  0  3.71628  0  0  0.038648  0  3.967551  0  0  0.044024  0  3.987081  0  0  0.045746  0.0352  0  3.954356  0
C  C66  1  0.86872021  0.82125839  0.98205735  1  0  0.126535  0  3.689057  0  0  0.095398  0  3.938179  0  0  0.101824  0  3.956901  0  0  0.051638  0.091228  0  3.925544  0
C  C67  1  0.13128188  0.17873860  0.48205663  1  0  0.126526  0  3.688928  0  0  0.095392  0  3.938047  0  0  0.101819  0  3.956768  0  0  0.051647  0.091221  0  3.925415  0
C  C68  1  0.84002189  0.81475110  0.10004259  1  0  -0.109975  0  3.719868  0  0  -0.119322  0  3.968508  0  0  -0.126113  0  3.989674  0  0  -0.076741  -0.115048  0  3.954434  0
C  C69  1  0.15998470  0.18525057  0.60004044  1  0  -0.109939  0  3.71995  0  0  -0.119303  0  3.968612  0  0  -0.126095  0  3.989778  0  0  -0.076742  -0.115023  0  3.954536  0
C  C70  1  0.88220615  0.71053795  0.15916652  1  0  -0.053926  0  3.707463  0  0  -0.080544  0  3.953562  0  0  -0.078655  0  3.973456  0  0  -0.065571  -0.081459  0  3.940023  0
C  C71  1  0.11779815  0.28946023  0.65916540  1  0  -0.053966  0  3.707424  0  0  -0.08055  0  3.953513  0  0  -0.078662  0  3.973408  0  0  -0.065599  -0.081465  0  3.939977  0
C  C72  1  0.42581469  0.12565303  0.12703625  1  0  -0.119235  0  3.628028  0  0  -0.11628  0  3.864412  0  0  -0.122641  0  3.879433  0  0  -0.094748  -0.111977  0  3.854069  0
C  C73  1  0.57418620  0.87434421  0.62703789  1  0  -0.119402  0  3.628147  0  0  -0.116371  0  3.864421  0  0  -0.122736  0  3.879447  0  0  -0.094731  -0.112066  0  3.854079  0
C  C74  1  0.43836572  0.98825481  0.13974618  1  0  -0.109992  0  3.680865  0  0  -0.156405  0  3.941478  0  0  -0.156362  0  3.955394  0  0  -0.169642  -0.156257  0  3.931785  0
C  C75  1  0.56163631  0.01174245  0.63975067  1  0  -0.109837  0  3.68074  0  0  -0.15628  0  3.941323  0  0  -0.156236  0  3.955239  0  0  -0.169636  -0.156133  0  3.931635  0
C  C76  1  0.34331626  0.92084421  0.05044516  1  0  -0.115883  0  3.665821  0  0  -0.158192  0  3.921914  0  0  -0.159188  0  3.935806  0  0  -0.166525  -0.157303  0  3.912185  0
C  C77  1  0.65668461  0.07915288  0.55044806  1  0  -0.115729  0  3.665742  0  0  -0.158104  0  3.9219  0  0  -0.159097  0  3.935792  0  0  -0.166497  -0.157213  0  3.912168  0
C  C78  1  0.37937248  0.96135586  0.92631492  1  0  -0.1116  0  3.63608  0  0  -0.109034  0  3.872549  0  0  -0.115242  0  3.887608  0  0  -0.091965  -0.10486  0  3.862207  0
C  C79  1  0.62062620  0.03864375  0.42631659  1  0  -0.111825  0  3.636199  0  0  -0.109091  0  3.872558  0  0  -0.115306  0  3.88761  0  0  -0.092  -0.104917  0  3.862218  0
C  C80  1  0.36825970  0.09887325  0.91526346  1  0  -0.117712  0  3.692041  0  0  -0.161731  0  3.9482  0  0  -0.161794  0  3.961813  0  0  -0.172398  -0.161511  0  3.938714  0
C  C81  1  0.63173784  0.90112544  0.41526487  1  0  -0.11774  0  3.692194  0  0  -0.16183  0  3.948404  0  0  -0.161871  0  3.961994  0  0  -0.17242  -0.161611  0  3.938917  0
C  C82  1  0.46791407  0.16267958  0.00387825  1  0  -0.115707  0  3.692803  0  0  -0.159594  0  3.950338  0  0  -0.160517  0  3.965075  0  0  -0.171907  -0.158739  0  3.94005  0
C  C83  1  0.53208452  0.83731744  0.50387810  1  0  -0.11547  0  3.692697  0  0  -0.159433  0  3.950319  0  0  -0.160356  0  3.965054  0  0  -0.171853  -0.158576  0  3.940029  0
C  C84  1  0.26906894  0.17497641  0.16077373  1  0  0.653843  0  3.855313  0  0  0.609318  0  4.149622  0  0  0.642332  0  4.144685  0  0  0.189871  0.586895  0  4.152085  0
C  C85  1  0.73092854  0.82502000  0.66077530  1  0  0.653887  0  3.855476  0  0  0.609376  0  4.149726  0  0  0.642391  0  4.144788  0  0  0.189851  0.586954  0  4.15219  0
C  C86  1  0.27260301  0.89355623  0.84598186  1  0  0.646966  0  3.874462  0  0  0.60159  0  4.172419  0  0  0.634537  0  4.167814  0  0  0.186892  0.579244  0  4.174576  0
C  C87  1  0.72738886  0.10644778  0.34598281  1  0  0.647201  0  3.874266  0  0  0.60169  0  4.172377  0  0  0.634639  0  4.167768  0  0  0.186938  0.579344  0  4.174532  0
N  N88  1  0.88673035  0.22219917  0.03928199  1  0  -0.354271  0  3.229706  0  0  -0.283139  0  3.484363  0  0  -0.302799  0  3.502876  0  0  -0.324612  -0.269853  0  3.471625  0
N  N89  1  0.11326713  0.77780244  0.53927997  1  0  -0.354361  0  3.229739  0  0  -0.283233  0  3.484413  0  0  -0.302892  0  3.502925  0  0  -0.324681  -0.269949  0  3.471678  0
N  N90  1  0.87272424  0.42106397  0.19091476  1  0  -0.391813  0  3.235555  0  0  -0.324896  0  3.493877  0  0  -0.342929  0  3.504541  0  0  -0.474151  -0.312267  0  3.486023  0
N  N91  1  0.12727781  0.57893609  0.69091327  1  0  -0.391851  0  3.235601  0  0  -0.324926  0  3.493902  0  0  -0.342959  0  3.504564  0  0  -0.474197  -0.3123  0  3.486053  0
N  N92  1  0.94103957  0.73279771  0.92465370  1  0  -0.307984  0  3.247197  0  0  -0.234503  0  3.510372  0  0  -0.252813  0  3.529871  0  0  -0.321676  -0.222146  0  3.496965  0
N  N93  1  0.05896139  0.26720278  0.42465398  1  0  -0.307972  0  3.247074  0  0  -0.234492  0  3.510242  0  0  -0.252802  0  3.529741  0  0  -0.321685  -0.222134  0  3.496834  0
O  O94  1  0.23464065  0.28318380  0.13843653  1  0  -0.660506  0  1.885082  0  0  -0.61438  0  2.108198  0  0  -0.638996  0  2.098386  0  0  -0.359355  -0.597018  0  2.114257  0
O  O95  1  0.76536138  0.71681345  0.63843620  1  0  -0.660515  0  1.885113  0  0  -0.614403  0  2.108207  0  0  -0.63902  0  2.098394  0  0  -0.359344  -0.597041  0  2.114266  0
O  O96  1  0.17810729  0.10201883  0.21288252  1  0  -0.65986  0  2.003782  0  0  -0.588304  0  2.251914  0  0  -0.618587  0  2.243024  0  0  -0.343476  -0.567066  0  2.257161  0
O  O97  1  0.82188905  0.89797679  0.71288595  1  0  -0.659885  0  2.003773  0  0  -0.588339  0  2.25189  0  0  -0.618619  0  2.242995  0  0  -0.34349  -0.567102  0  2.257138  0
O  O98  1  0.16167837  0.95194319  0.80029349  1  0  -0.654067  0  1.945038  0  0  -0.586749  0  2.18743  0  0  -0.616131  0  2.17944  0  0  -0.344042  -0.56608  0  2.192064  0
O  O99  1  0.83830894  0.04806076  0.30028918  1  0  -0.654049  0  1.944979  0  0  -0.586717  0  2.187448  0  0  -0.616099  0  2.179453  0  0  -0.344004  -0.566049  0  2.192083  0
O  O100  1  0.29156304  0.78065245  0.83201860  1  0  -0.667896  0  1.887242  0  0  -0.621535  0  2.117764  0  0  -0.647215  0  2.107807  0  0  -0.363156  -0.603404  0  2.123871  0
O  O101  1  0.70842542  0.21935246  0.33202489  1  0  -0.668038  0  1.887109  0  0  -0.62161  0  2.117659  0  0  -0.647289  0  2.107699  0  0  -0.36322  -0.603481  0  2.123766  0
