# generated using pymatgen
data_Zn3H28C42(NO4)4
_symmetry_space_group_name_H-M   'P 1'
_cell_length_a   7.55217387
_cell_length_b   9.56163320
_cell_length_c   13.89692303
_cell_angle_alpha   82.65992003
_cell_angle_beta   77.60105534
_cell_angle_gamma   81.19771914
_symmetry_Int_Tables_number   1
_chemical_formula_structural   Zn3H28C42(NO4)4
_chemical_formula_sum   'Zn3 H28 C42 N4 O16'
_cell_volume   963.86985477
_cell_formula_units_Z   1
loop_
 _symmetry_equiv_pos_site_id
 _symmetry_equiv_pos_as_xyz
  1  'x, y, z'
loop_
 _atom_site_type_symbol
 _atom_site_label
 _atom_site_symmetry_multiplicity
 _atom_site_fract_x
 _atom_site_fract_y
 _atom_site_fract_z
 _atom_site_occupancy
 _atom_site_hle17_bader_spin_density
 _atom_site_hle17_ddec_charge
 _atom_site_hle17_ddec_spin_density
 _atom_site_hle17_ddec_sum_bond_order
 _atom_site_hle17_magmom
 _atom_site_hse06_10hf_bader_spin_density
 _atom_site_hse06_10hf_ddec_charge
 _atom_site_hse06_10hf_ddec_spin_density
 _atom_site_hse06_10hf_ddec_sum_bond_order
 _atom_site_hse06_10hf_magmom
 _atom_site_hse06_bader_spin_density
 _atom_site_hse06_ddec_charge
 _atom_site_hse06_ddec_spin_density
 _atom_site_hse06_ddec_sum_bond_order
 _atom_site_hse06_magmom
 _atom_site_pbe_bader_spin_density
 _atom_site_pbe_cm5_charge
 _atom_site_pbe_ddec_charge
 _atom_site_pbe_ddec_spin_density
 _atom_site_pbe_ddec_sum_bond_order
 _atom_site_pbe_magmom
Zn  Zn0  1  0.23303263  0.58877562  0.50173585  1  0  1.181927  0  1.673116  0  0  1.005037  0  2.14789  0  0  1.057962  0  2.081714  0  0  0.696804  0.967684  0  2.193859  0
Zn  Zn1  1  0.76697054  0.41122497  0.49826183  1  0  1.181879  0  1.67319  0  0  1.00497  0  2.147977  0  0  1.05789  0  2.081801  0  0  0.696798  0.967622  0  2.19395  0
Zn  Zn2  1  0.49999967  0.00000096  0.50000120  1  0  1.112443  0  1.739261  0  0  0.937251  0  2.186738  0  0  0.984481  0  2.131758  0  0  0.685464  0.903266  0  2.225636  0
H  H3  1  0.86796256  0.26656672  0.78484036  1  0  0.102455  0  0.942913  0  0  0.111766  0  1.004167  0  0  0.115688  0  1.000452  0  0  0.106186  0.10883  0  1.007068  0
H  H4  1  0.13203365  0.73343491  0.21515806  1  0  0.102509  0  0.942905  0  0  0.111819  0  1.004141  0  0  0.115739  0  1.000434  0  0  0.106211  0.108882  0  1.007039  0
H  H5  1  0.23310088  0.89390068  0.87829811  1  0  0.101079  0  0.948886  0  0  0.112149  0  1.008993  0  0  0.114707  0  1.009278  0  0  0.104111  0.110283  0  1.008986  0
H  H6  1  0.76690342  0.10609358  0.12170435  1  0  0.101089  0  0.948829  0  0  0.112123  0  1.008986  0  0  0.114678  0  1.009273  0  0  0.104084  0.110258  0  1.008971  0
H  H7  1  0.52841078  0.23547797  0.78784867  1  0  0.124434  0  0.928339  0  0  0.137312  0  0.985043  0  0  0.141096  0  0.982645  0  0  0.113099  0.134484  0  0.986868  0
H  H8  1  0.47158544  0.76452368  0.21215119  1  0  0.124503  0  0.928351  0  0  0.137393  0  0.985026  0  0  0.141177  0  0.982629  0  0  0.113126  0.134565  0  0.986851  0
H  H9  1  0.95089681  0.43900095  0.18193417  1  0  0.10532  0  0.945557  0  0  0.115314  0  1.005833  0  0  0.117795  0  1.005131  0  0  0.105647  0.113648  0  1.005945  0
H  H10  1  0.04909996  0.56099753  0.81806664  1  0  0.105355  0  0.945552  0  0  0.115349  0  1.005819  0  0  0.117832  0  1.005114  0  0  0.105639  0.113653  0  1.005971  0
H  H11  1  0.97894137  0.18839299  0.94265204  1  0  0.102918  0  0.968495  0  0  0.112044  0  1.032442  0  0  0.115593  0  1.030873  0  0  0.099306  0.109486  0  1.033698  0
H  H12  1  0.02105402  0.81160543  0.05734535  1  0  0.102907  0  0.968474  0  0  0.112036  0  1.032426  0  0  0.115586  0  1.030855  0  0  0.099274  0.109479  0  1.033685  0
H  H13  1  0.16929605  0.01763234  0.28316767  1  0  0.112271  0  0.927806  0  0  0.123526  0  0.982798  0  0  0.127049  0  0.980401  0  0  0.110951  0.120846  0  0.984798  0
H  H14  1  0.83070868  0.98236722  0.71683209  1  0  0.112283  0  0.927827  0  0  0.123537  0  0.982815  0  0  0.127061  0  0.980418  0  0  0.110968  0.120856  0  0.984821  0
H  H15  1  0.32812737  0.69702087  0.99142086  1  0  0.0677  0  0.924481  0  0  0.076423  0  0.993667  0  0  0.080411  0  0.988454  0  0  0.112836  0.073372  0  0.997736  0
H  H16  1  0.67187980  0.30297232  0.00857993  1  0  0.067695  0  0.924405  0  0  0.076402  0  0.993612  0  0  0.080392  0  0.988395  0  0  0.112863  0.073352  0  0.99768  0
H  H17  1  0.63506027  0.55831957  0.75330209  1  0  0.120208  0  0.930788  0  0  0.127952  0  0.992686  0  0  0.131264  0  0.991273  0  0  0.114518  0.125869  0  0.993026  0
H  H18  1  0.36494326  0.44167890  0.24669647  1  0  0.120183  0  0.930822  0  0  0.127916  0  0.992737  0  0  0.131228  0  0.991325  0  0  0.114505  0.125833  0  0.99308  0
H  H19  1  0.11501841  0.40041040  0.00820419  1  0  0.108809  0  0.951359  0  0  0.121913  0  1.006949  0  0  0.124405  0  1.007081  0  0  0.104441  0.120086  0  1.007045  0
H  H20  1  0.88497799  0.59959018  0.99179503  1  0  0.108834  0  0.951353  0  0  0.121917  0  1.006959  0  0  0.12442  0  1.007076  0  0  0.104434  0.120074  0  1.007074  0
H  H21  1  0.33494684  0.97857622  0.10855644  1  0  0.115751  0  0.951387  0  0  0.122713  0  1.017031  0  0  0.126705  0  1.014545  0  0  0.104083  0.11977  0  1.019044  0
H  H22  1  0.66505480  0.02142545  0.89144276  1  0  0.115747  0  0.951415  0  0  0.122703  0  1.017059  0  0  0.126681  0  1.014588  0  0  0.104073  0.119762  0  1.019077  0
H  H23  1  0.65660773  0.70462038  0.59051919  1  0  0.097915  0  0.974806  0  0  0.106404  0  1.034825  0  0  0.10864  0  1.033549  0  0  0.120302  0.104668  0  1.036172  0
H  H24  1  0.34339546  0.29538025  0.40948137  1  0  0.097934  0  0.974796  0  0  0.106383  0  1.034864  0  0  0.10862  0  1.033586  0  0  0.120303  0.104645  0  1.036212  0
H  H25  1  0.26600520  0.02301929  0.70934928  1  0  0.074552  0  0.985451  0  0  0.082083  0  1.052923  0  0  0.082654  0  1.054322  0  0  0.112829  0.081825  0  1.051472  0
H  H26  1  0.73399857  0.97697820  0.29065582  1  0  0.074581  0  0.98542  0  0  0.082098  0  1.052903  0  0  0.082662  0  1.054321  0  0  0.11284  0.081839  0  1.051457  0
H  H27  1  0.15296226  0.10632140  0.48009711  1  0  0.438083  0  0.859999  0  0  0.407334  0  0.922995  0  0  0.417297  0  0.908668  0  0  0.299238  0.400386  0  0.932943  0
H  H28  1  0.84703822  0.89367922  0.51990377  1  0  0.438079  0  0.860006  0  0  0.407327  0  0.923008  0  0  0.41729  0  0.908681  0  0  0.299227  0.400379  0  0.932954  0
H  H29  1  0.15504774  0.96574274  0.54999849  1  0  0.429066  0  0.874333  0  0  0.399346  0  0.935871  0  0  0.409502  0  0.92121  0  0  0.295339  0.392433  0  0.945844  0
H  H30  1  0.84495409  0.03425789  0.45000223  1  0  0.429035  0  0.874375  0  0  0.399307  0  0.935928  0  0  0.409463  0  0.921266  0  0  0.29532  0.392393  0  0.945902  0
C  C31  1  0.22986296  0.18606931  0.05001658  1  0  0.272105  0  3.795003  0  0  0.261398  0  4.057092  0  0  0.272659  0  4.073177  0  0  0.081172  0.253851  0  4.046135  0
C  C32  1  0.77013362  0.81393021  0.94998272  1  0  0.27204  0  3.795074  0  0  0.261331  0  4.057157  0  0  0.27259  0  4.073243  0  0  0.08113  0.253795  0  4.04619  0
C  C33  1  0.46866070  0.30033412  0.60727991  1  0  0.683252  0  3.879018  0  0  0.626711  0  4.177485  0  0  0.661903  0  4.167837  0  0  0.219165  0.602646  0  4.183219  0
C  C34  1  0.53133886  0.69967179  0.39271915  1  0  0.683272  0  3.87919  0  0  0.626693  0  4.177694  0  0  0.661887  0  4.168046  0  0  0.219047  0.602641  0  4.18341  0
C  C35  1  0.06083724  0.33914045  0.60556821  1  0  0.691781  0  3.868011  0  0  0.634654  0  4.164839  0  0  0.671351  0  4.155426  0  0  0.221285  0.609941  0  4.169931  0
C  C36  1  0.93916015  0.66086227  0.39443068  1  0  0.691894  0  3.867984  0  0  0.634686  0  4.16493  0  0  0.67138  0  4.155517  0  0  0.2213  0.609949  0  4.170057  0
C  C37  1  0.32165159  0.28049729  0.69807069  1  0  -0.001924  0  3.698839  0  0  0.012084  0  3.933388  0  0  0.012694  0  3.950392  0  0  0.006895  0.011476  0  3.921528  0
C  C38  1  0.67834626  0.71951076  0.30192908  1  0  -0.001933  0  3.699016  0  0  0.012067  0  3.933601  0  0  0.012678  0  3.950602  0  0  0.006873  0.011459  0  3.921736  0
C  C39  1  0.95736757  0.25376602  0.34583803  1  0  0.663066  0  3.899631  0  0  0.606451  0  4.196132  0  0  0.641666  0  4.187946  0  0  0.214971  0.58282  0  4.200959  0
C  C40  1  0.04263325  0.74623243  0.65416014  1  0  0.663081  0  3.899635  0  0  0.606475  0  4.196128  0  0  0.641688  0  4.187942  0  0  0.214969  0.582846  0  4.200949  0
C  C41  1  0.13407899  0.29151646  0.69747379  1  0  -0.103286  0  3.729596  0  0  -0.092677  0  3.968431  0  0  -0.101308  0  3.988424  0  0  -0.01934  -0.087459  0  3.955722  0
C  C42  1  0.86591886  0.70849158  0.30252527  1  0  -0.103359  0  3.729627  0  0  -0.092716  0  3.968462  0  0  -0.101349  0  3.988461  0  0  -0.01934  -0.087499  0  3.955764  0
C  C43  1  0.01275673  0.25838499  0.78641552  1  0  -0.029311  0  3.743999  0  0  -0.053454  0  3.997232  0  0  -0.049966  0  4.014828  0  0  -0.077705  -0.055822  0  3.985574  0
C  C44  1  0.98724012  0.74162091  0.21358314  1  0  -0.029385  0  3.744017  0  0  -0.053517  0  3.997243  0  0  -0.050029  0  4.014834  0  0  -0.077751  -0.055883  0  3.985586  0
C  C45  1  0.32985438  0.84813510  0.81666461  1  0  -0.152179  0  3.715415  0  0  -0.171907  0  3.963589  0  0  -0.180531  0  3.988452  0  0  -0.080596  -0.166439  0  3.947107  0
C  C46  1  0.67015010  0.15185810  0.18333793  1  0  -0.152266  0  3.715508  0  0  -0.171928  0  3.963669  0  0  -0.180554  0  3.988529  0  0  -0.080593  -0.166457  0  3.947183  0
C  C47  1  0.04971555  0.23017693  0.24220117  1  0  -0.100036  0  3.792868  0  0  -0.078288  0  4.029632  0  0  -0.088644  0  4.054056  0  0  -0.027643  -0.071754  0  4.013164  0
C  C48  1  0.95028511  0.76982262  0.75779907  1  0  -0.100034  0  3.792906  0  0  -0.078286  0  4.029668  0  0  -0.088642  0  4.054095  0  0  -0.027647  -0.071751  0  4.013195  0
C  C49  1  0.38350076  0.24227967  0.78676712  1  0  -0.194271  0  3.696559  0  0  -0.228676  0  3.954233  0  0  -0.233878  0  3.970562  0  0  -0.09331  -0.224581  0  3.941554  0
C  C50  1  0.61649373  0.75772410  0.21323203  1  0  -0.19436  0  3.696747  0  0  -0.228781  0  3.954464  0  0  -0.23398  0  3.970789  0  0  -0.093297  -0.22468  0  3.941772  0
C  C51  1  0.03323559  0.33795275  0.16484804  1  0  -0.038224  0  3.73765  0  0  -0.062882  0  3.988094  0  0  -0.059847  0  4.007174  0  0  -0.080417  -0.064246  0  3.974555  0
C  C52  1  0.96676370  0.66204678  0.83515093  1  0  -0.038324  0  3.737742  0  0  -0.062976  0  3.988162  0  0  -0.059943  0  4.007248  0  0  -0.08045  -0.064324  0  3.974625  0
C  C53  1  0.26036795  0.20994653  0.87410899  1  0  0.287534  0  3.805936  0  0  0.275259  0  4.073968  0  0  0.288504  0  4.087599  0  0  0.087116  0.266221  0  4.064357  0
C  C54  1  0.73962691  0.79005511  0.12589031  1  0  0.287637  0  3.805927  0  0  0.275328  0  4.07401  0  0  0.288575  0  4.087638  0  0  0.087175  0.266297  0  4.064397  0
C  C55  1  0.43517494  0.71572673  0.83082039  1  0  0.08282  0  3.796739  0  0  0.099255  0  4.027001  0  0  0.100963  0  4.050688  0  0  0.0079  0.098241  0  4.01085  0
C  C56  1  0.56482797  0.28426750  0.16918008  1  0  0.082799  0  3.796531  0  0  0.099137  0  4.026899  0  0  0.100853  0  4.050572  0  0  0.007789  0.098122  0  4.01075  0
C  C57  1  0.07378745  0.21614321  0.87441473  1  0  -0.216279  0  3.790165  0  0  -0.237383  0  4.04722  0  0  -0.244183  0  4.066616  0  0  -0.111831  -0.232836  0  4.034038  0
C  C58  1  0.92620857  0.78385949  0.12558361  1  0  -0.216317  0  3.790176  0  0  -0.237419  0  4.047234  0  0  -0.24422  0  4.066627  0  0  -0.111835  -0.232878  0  4.034057  0
C  C59  1  0.15709557  0.10005469  0.22218919  1  0  -0.037181  0  3.733324  0  0  -0.062097  0  3.984692  0  0  -0.06  0  4.005326  0  0  -0.078123  -0.062954  0  3.970302  0
C  C60  1  0.84290644  0.89994486  0.77781089  1  0  -0.037162  0  3.733343  0  0  -0.062076  0  3.984706  0  0  -0.059979  0  4.005336  0  0  -0.078106  -0.062927  0  3.970322  0
C  C61  1  0.42036148  0.64341411  0.93055010  1  0  0.099561  0  3.658211  0  0  0.0649  0  3.92318  0  0  0.072016  0  3.934193  0  0  0.078744  0.059861  0  3.916064  0
C  C62  1  0.57964433  0.35657906  0.06945013  1  0  0.099712  0  3.658105  0  0  0.065107  0  3.923064  0  0  0.07222  0  3.934077  0  0  0.078844  0.060069  0  3.91595  0
C  C63  1  0.55297639  0.66179652  0.74734266  1  0  -0.109057  0  3.639245  0  0  -0.130921  0  3.886733  0  0  -0.136884  0  3.907214  0  0  -0.06526  -0.126682  0  3.872063  0
C  C64  1  0.44702751  0.33819983  0.25265678  1  0  -0.109031  0  3.639266  0  0  -0.130855  0  3.886782  0  0  -0.136821  0  3.907262  0  0  -0.065229  -0.126617  0  3.872113  0
C  C65  1  0.12302063  0.31653876  0.06860734  1  0  -0.191954  0  3.772379  0  0  -0.21277  0  4.028319  0  0  -0.219754  0  4.04942  0  0  -0.103922  -0.208419  0  4.014274  0
C  C66  1  0.87697577  0.68346184  0.93139260  1  0  -0.191881  0  3.772417  0  0  -0.212673  0  4.028329  0  0  -0.219664  0  4.049438  0  0  -0.103855  -0.208308  0  4.014271  0
C  C67  1  0.24754952  0.07746164  0.12600250  1  0  -0.187446  0  3.748564  0  0  -0.20829  0  4.006981  0  0  -0.215056  0  4.027486  0  0  -0.102668  -0.203947  0  3.992953  0
C  C68  1  0.75244959  0.92253895  0.87399711  1  0  -0.187466  0  3.74861  0  0  -0.208302  0  4.007024  0  0  -0.215055  0  4.027536  0  0  -0.102672  -0.203955  0  3.992976  0
C  C69  1  0.56516994  0.74307547  0.65639451  1  0  0.139234  0  3.650729  0  0  0.109135  0  3.902204  0  0  0.115446  0  3.919981  0  0  0.05213  0.104423  0  3.891282  0
C  C70  1  0.43483207  0.25692407  0.34360486  1  0  0.139186  0  3.650738  0  0  0.109131  0  3.902237  0  0  0.115442  0  3.920015  0  0  0.052137  0.104426  0  3.891313  0
C  C71  1  0.34862913  0.92172521  0.72292893  1  0  0.126846  0  3.708099  0  0  0.097297  0  3.957265  0  0  0.103012  0  3.978829  0  0  0.043226  0.093422  0  3.942315  0
C  C72  1  0.65137462  0.07827224  0.27707330  1  0  0.126865  0  3.708278  0  0  0.097371  0  3.957383  0  0  0.103083  0  3.978944  0  0  0.043267  0.093499  0  3.94243  0
N  N73  1  0.46705908  0.87206329  0.64391682  1  0  -0.321189  0  3.217198  0  0  -0.243759  0  3.477804  0  0  -0.261799  0  3.494587  0  0  -0.311589  -0.231372  0  3.466892  0
N  N74  1  0.53294295  0.12793630  0.35608613  1  0  -0.321115  0  3.217053  0  0  -0.243744  0  3.477683  0  0  -0.261783  0  3.494466  0  0  -0.311581  -0.231364  0  3.466778  0
N  N75  1  0.51553623  0.52235077  0.94970592  1  0  -0.204356  0  3.029291  0  0  -0.176391  0  3.321872  0  0  -0.185159  0  3.338479  0  0  -0.209574  -0.170313  0  3.310202  0
N  N76  1  0.48447077  0.47764349  0.05029550  1  0  -0.204497  0  3.029337  0  0  -0.176543  0  3.321911  0  0  -0.185311  0  3.338518  0  0  -0.209671  -0.170467  0  3.310244  0
O  O77  1  0.16689448  0.38705052  0.52765872  1  0  -0.674295  0  2.098336  0  0  -0.600387  0  2.369978  0  0  -0.627848  0  2.35242  0  0  -0.323354  -0.581388  0  2.381105  0
O  O78  1  0.83310156  0.61295219  0.47234034  1  0  -0.674324  0  2.09832  0  0  -0.600365  0  2.369984  0  0  -0.627813  0  2.352418  0  0  -0.323345  -0.581357  0  2.381118  0
O  O79  1  0.21928821  0.05185540  0.53032357  1  0  -0.833995  0  1.939819  0  0  -0.770413  0  2.154152  0  0  -0.793441  0  2.122293  0  0  -0.574079  -0.754464  0  2.175752  0
O  O80  1  0.78071209  0.94814629  0.46967724  1  0  -0.833963  0  1.939829  0  0  -0.770368  0  2.154152  0  0  -0.793396  0  2.122294  0  0  -0.574055  -0.754422  0  2.175752  0
O  O81  1  0.54029877  0.19660609  0.55851023  1  0  -0.635988  0  2.030462  0  0  -0.579067  0  2.299393  0  0  -0.605847  0  2.285377  0  0  -0.303202  -0.559262  0  2.308016  0
O  O82  1  0.45969847  0.80339773  0.44149147  1  0  -0.635966  0  2.030473  0  0  -0.57906  0  2.299473  0  0  -0.605839  0  2.285454  0  0  -0.303118  -0.559266  0  2.308097  0
O  O83  1  0.98451719  0.15862853  0.41538850  1  0  -0.659192  0  2.063478  0  0  -0.595106  0  2.291497  0  0  -0.618404  0  2.278259  0  0  -0.313408  -0.57917  0  2.300188  0
O  O84  1  0.01548211  0.84137100  0.58461118  1  0  -0.65921  0  2.063503  0  0  -0.595124  0  2.291509  0  0  -0.618427  0  2.278284  0  0  -0.313417  -0.579188  0  2.300192  0
O  O85  1  0.52666744  0.42209693  0.59108609  1  0  -0.636837  0  2.05239  0  0  -0.562407  0  2.323306  0  0  -0.592834  0  2.30862  0  0  -0.308764  -0.540605  0  2.332491  0
O  O86  1  0.47333074  0.57790895  0.40891026  1  0  -0.636853  0  2.052449  0  0  -0.562357  0  2.323301  0  0  -0.592792  0  2.308623  0  0  -0.308738  -0.540565  0  2.332481  0
O  O87  1  0.85305287  0.37163448  0.35957945  1  0  -0.631165  0  2.069054  0  0  -0.559011  0  2.346251  0  0  -0.589897  0  2.33318  0  0  -0.30844  -0.537834  0  2.354491  0
O  O88  1  0.14694796  0.62836399  0.64042015  1  0  -0.631176  0  2.069035  0  0  -0.559049  0  2.346262  0  0  -0.589933  0  2.333189  0  0  -0.308435  -0.537871  0  2.354495  0
O  O89  1  0.89291368  0.32959824  0.61022959  1  0  -0.626516  0  2.046438  0  0  -0.558633  0  2.315411  0  0  -0.58725  0  2.29924  0  0  -0.309225  -0.538967  0  2.325946  0
O  O90  1  0.10708371  0.67040447  0.38976930  1  0  -0.626569  0  2.0465  0  0  -0.558685  0  2.315529  0  0  -0.587302  0  2.29936  0  0  -0.30923  -0.539002  0  2.326055  0
O  O91  1  0.33397742  0.16229326  0.95704709  1  0  -0.300176  0  2.347372  0  0  -0.232488  0  2.575776  0  0  -0.250611  0  2.576471  0  0  -0.152553  -0.219619  0  2.57469  0
O  O92  1  0.66601663  0.83770519  0.04295261  1  0  -0.300182  0  2.347403  0  0  -0.232483  0  2.575825  0  0  -0.250605  0  2.576519  0  0  -0.152585  -0.219621  0  2.574736  0
