# generated using pymatgen
data_TbH6C7NO6
_symmetry_space_group_name_H-M   'P 1'
_cell_length_a   7.93577143
_cell_length_b   9.26412008
_cell_length_c   12.70012191
_cell_angle_alpha   76.18671535
_cell_angle_beta   84.49971632
_cell_angle_gamma   81.57630132
_symmetry_Int_Tables_number   1
_chemical_formula_structural   TbH6C7NO6
_chemical_formula_sum   'Tb4 H24 C28 N4 O24'
_cell_volume   895.09938695
_cell_formula_units_Z   4
loop_
 _symmetry_equiv_pos_site_id
 _symmetry_equiv_pos_as_xyz
  1  'x, y, z'
loop_
 _atom_site_type_symbol
 _atom_site_label
 _atom_site_symmetry_multiplicity
 _atom_site_fract_x
 _atom_site_fract_y
 _atom_site_fract_z
 _atom_site_occupancy
 _atom_site_hle17_bader_spin_density
 _atom_site_hle17_ddec_charge
 _atom_site_hle17_ddec_spin_density
 _atom_site_hle17_ddec_sum_bond_order
 _atom_site_hle17_magmom
 _atom_site_hse06_10hf_bader_spin_density
 _atom_site_hse06_10hf_ddec_charge
 _atom_site_hse06_10hf_ddec_spin_density
 _atom_site_hse06_10hf_ddec_sum_bond_order
 _atom_site_hse06_10hf_magmom
 _atom_site_hse06_bader_spin_density
 _atom_site_hse06_ddec_charge
 _atom_site_hse06_ddec_spin_density
 _atom_site_hse06_ddec_sum_bond_order
 _atom_site_hse06_magmom
 _atom_site_pbe_bader_spin_density
 _atom_site_pbe_cm5_charge
 _atom_site_pbe_ddec_charge
 _atom_site_pbe_ddec_spin_density
 _atom_site_pbe_ddec_sum_bond_order
 _atom_site_pbe_magmom
Tb  Tb0  1  0.15009427  0.30168627  0.02666362  1  0  2.330053  0  1.631847  0  0  2.198711  0  2.075016  0  0  2.312795  0  1.911704  0  0  1.473888  2.162759  0  2.109792  0
Tb  Tb1  1  0.84990241  0.69831644  0.97333696  1  0  2.330108  0  1.63182  0  0  2.198742  0  2.075026  0  0  2.312846  0  1.911672  0  0  1.473912  2.162831  0  2.10973  0
Tb  Tb2  1  0.64421208  0.38230365  0.90597467  1  0  2.347115  0  1.577614  0  0  2.218487  0  2.01769  0  0  2.330021  0  1.857658  0  0  1.468802  2.184607  0  2.049677  0
Tb  Tb3  1  0.35578729  0.61769792  0.09402516  1  0  2.34706  0  1.577629  0  0  2.218403  0  2.017739  0  0  2.329956  0  1.857682  0  0  1.468765  2.184524  0  2.049731  0
H  H4  1  0.22103574  0.09234278  0.23372365  1  0  0.431483  0  0.820736  0  0  0.415744  0  0.871706  0  0  0.423684  0  0.863482  0  0  0.328003  0.410287  0  0.877852  0
H  H5  1  0.77896080  0.90766105  0.76627438  1  0  0.431477  0  0.820712  0  0  0.415734  0  0.871696  0  0  0.423673  0  0.863473  0  0  0.327983  0.410277  0  0.877842  0
H  H6  1  0.32796513  0.99382604  0.15937013  1  0  0.446191  0  0.838646  0  0  0.421  0  0.893935  0  0  0.430686  0  0.87996  0  0  0.313423  0.414636  0  0.903157  0
H  H7  1  0.67202962  0.00617221  0.84063056  1  0  0.446204  0  0.838669  0  0  0.421015  0  0.893917  0  0  0.430702  0  0.879943  0  0  0.313447  0.414651  0  0.90314  0
H  H8  1  0.46924853  0.29279991  0.09814274  1  0  0.442182  0  0.851969  0  0  0.415764  0  0.90949  0  0  0.42603  0  0.894849  0  0  0.299814  0.408064  0  0.921016  0
H  H9  1  0.53074845  0.70720057  0.90185900  1  0  0.442122  0  0.852059  0  0  0.415705  0  0.909574  0  0  0.42597  0  0.894936  0  0  0.299782  0.408004  0  0.921106  0
H  H10  1  0.81500275  0.40128519  0.07123474  1  0  0.401307  0  0.906784  0  0  0.378405  0  0.966888  0  0  0.385631  0  0.957211  0  0  0.300953  0.372377  0  0.975816  0
H  H11  1  0.18499282  0.59871641  0.92876374  1  0  0.401236  0  0.906916  0  0  0.378331  0  0.967001  0  0  0.385558  0  0.957324  0  0  0.300917  0.372304  0  0.975926  0
H  H12  1  0.93664584  0.11145752  0.87549217  1  0  0.446197  0  0.837576  0  0  0.416732  0  0.901219  0  0  0.427188  0  0.886006  0  0  0.311265  0.409343  0  0.912103  0
H  H13  1  0.06334846  0.88854409  0.12450716  1  0  0.446252  0  0.837613  0  0  0.416764  0  0.901214  0  0  0.427222  0  0.885999  0  0  0.311262  0.409373  0  0.912101  0
H  H14  1  0.99656831  0.26974746  0.81976733  1  0  0.428276  0  0.859507  0  0  0.397939  0  0.929114  0  0  0.406952  0  0.916353  0  0  0.311819  0.391089  0  0.939238  0
H  H15  1  0.00342584  0.73025527  0.18023182  1  0  0.428272  0  0.859495  0  0  0.397936  0  0.929108  0  0  0.40695  0  0.916345  0  0  0.311794  0.391087  0  0.93923  0
H  H16  1  0.47144833  0.54984882  0.58530872  1  0  0.091043  0  0.941656  0  0  0.09313  0  1.013454  0  0  0.097029  0  1.00946  0  0  0.119671  0.090169  0  1.016402  0
H  H17  1  0.52855491  0.45014264  0.41469502  1  0  0.090992  0  0.941802  0  0  0.093067  0  1.013584  0  0  0.096964  0  1.009596  0  0  0.119639  0.090107  0  1.016532  0
H  H18  1  0.09568002  0.72821216  0.36820939  1  0  0.07778  0  0.941822  0  0  0.084068  0  1.008261  0  0  0.087846  0  1.004375  0  0  0.110754  0.081378  0  1.011057  0
H  H19  1  0.90433181  0.27178145  0.63179111  1  0  0.07766  0  0.942009  0  0  0.084003  0  1.008392  0  0  0.087782  0  1.004504  0  0  0.110745  0.081314  0  1.011186  0
H  H20  1  0.86281308  0.69378344  0.51767360  1  0  0.117184  0  0.966983  0  0  0.123721  0  1.030111  0  0  0.127273  0  1.029465  0  0  0.107182  0.121186  0  1.030667  0
H  H21  1  0.13719629  0.30621916  0.48232390  1  0  0.117173  0  0.966956  0  0  0.123686  0  1.030116  0  0  0.127239  0  1.029467  0  0  0.10715  0.121151  0  1.030672  0
H  H22  1  0.88878175  0.14160911  0.31379609  1  0  0.108094  0  0.981648  0  0  0.111818  0  1.05203  0  0  0.115621  0  1.051125  0  0  0.101749  0.10956  0  1.051771  0
H  H23  1  0.11121084  0.85839588  0.68620275  1  0  0.108092  0  0.981683  0  0  0.111852  0  1.052028  0  0  0.115655  0  1.051122  0  0  0.101743  0.109593  0  1.051767  0
H  H24  1  0.76653247  0.01324161  0.49562555  1  0  0.067763  0  0.923213  0  0  0.077266  0  0.982965  0  0  0.079807  0  0.981231  0  0  0.10903  0.075219  0  0.984629  0
H  H25  1  0.23346326  0.98675886  0.50437075  1  0  0.067749  0  0.923279  0  0  0.077288  0  0.982997  0  0  0.079832  0  0.981259  0  0  0.10901  0.075239  0  0.984663  0
H  H26  1  0.50339443  0.75806646  0.35773342  1  0  0.081504  0  0.983366  0  0  0.075103  0  1.070027  0  0  0.079609  0  1.065557  0  0  0.109615  0.07219  0  1.072104  0
H  H27  1  0.49660398  0.24193287  0.64226371  1  0  0.081397  0  0.983435  0  0  0.075044  0  1.070076  0  0  0.079551  0  1.065604  0  0  0.109585  0.07213  0  1.072152  0
C  C28  1  0.27181249  0.48321915  0.77134731  1  0  0.710113  0  3.872884  0  0  0.661175  0  4.168122  0  0  0.6972  0  4.159951  0  0  0.233498  0.637635  0  4.173525  0
C  C29  1  0.72818984  0.51677904  0.22865688  1  0  0.710204  0  3.872817  0  0  0.661258  0  4.168089  0  0  0.697284  0  4.159917  0  0  0.233595  0.637719  0  4.173497  0
C  C30  1  0.21599872  0.55557467  0.66010555  1  0  -0.138251  0  3.729286  0  0  -0.125589  0  3.967042  0  0  -0.136132  0  3.987997  0  0  -0.013299  -0.117664  0  3.948833  0
C  C31  1  0.78400078  0.44442579  0.33989919  1  0  -0.138215  0  3.729121  0  0  -0.125602  0  3.966938  0  0  -0.136146  0  3.98789  0  0  -0.013276  -0.117681  0  3.948734  0
C  C32  1  0.33575792  0.58145114  0.57179980  1  0  0.125306  0  3.681474  0  0  0.091198  0  3.941869  0  0  0.098215  0  3.957401  0  0  0.059643  0.087301  0  3.929286  0
C  C33  1  0.66424694  0.41854703  0.42820503  1  0  0.125327  0  3.681573  0  0  0.091304  0  3.94187  0  0  0.098322  0  3.957401  0  0  0.059685  0.087406  0  3.929289  0
C  C34  1  0.12619477  0.67967954  0.45252305  1  0  0.132374  0  3.717039  0  0  0.104523  0  3.983675  0  0  0.111806  0  3.998404  0  0  0.050362  0.099607  0  3.974096  0
C  C35  1  0.87381577  0.32031409  0.54747910  1  0  0.132501  0  3.717275  0  0  0.104599  0  3.983927  0  0  0.111882  0  3.998661  0  0  0.050345  0.099683  0  3.974349  0
C  C36  1  0.99644025  0.65960089  0.53531281  1  0  -0.152267  0  3.728965  0  0  -0.171441  0  3.975921  0  0  -0.17901  0  3.997975  0  0  -0.088078  -0.166686  0  3.961566  0
C  C37  1  0.00356814  0.34039947  0.46468750  1  0  -0.152302  0  3.728922  0  0  -0.171444  0  3.975893  0  0  -0.179014  0  3.99795  0  0  -0.0881  -0.166691  0  3.961537  0
C  C38  1  0.04180907  0.59718143  0.64144168  1  0  -0.010061  0  3.701503  0  0  0.000701  0  3.929946  0  0  0.001873  0  3.946291  0  0  0.009714  0.000187  0  3.917832  0
C  C39  1  0.95819424  0.40281899  0.35856049  1  0  -0.010041  0  3.701473  0  0  0.000658  0  3.929953  0  0  0.001828  0  3.946296  0  0  0.009737  0.00015  0  3.917837  0
C  C40  1  0.91283913  0.59158919  0.73678823  1  0  0.73072  0  3.8589  0  0  0.683745  0  4.148933  0  0  0.720102  0  4.138471  0  0  0.243492  0.659254  0  4.157967  0
C  C41  1  0.08716150  0.40841237  0.26321310  1  0  0.730615  0  3.858955  0  0  0.683763  0  4.148839  0  0  0.720125  0  4.138367  0  0  0.24352  0.659269  0  4.157875  0
C  C42  1  0.81441419  0.10686765  0.11710801  1  0  0.726262  0  3.853976  0  0  0.677367  0  4.146251  0  0  0.713566  0  4.134848  0  0  0.241379  0.653099  0  4.155001  0
C  C43  1  0.18558675  0.89313166  0.88289055  1  0  0.726435  0  3.85373  0  0  0.677582  0  4.145948  0  0  0.713784  0  4.134541  0  0  0.241442  0.653314  0  4.1547  0
C  C44  1  0.75903389  0.02003450  0.22771768  1  0  -0.005092  0  3.694861  0  0  0.003377  0  3.923613  0  0  0.005064  0  3.939031  0  0  0.009843  0.002644  0  3.912413  0
C  C45  1  0.24096579  0.97996482  0.77228017  1  0  -0.005074  0  3.694877  0  0  0.003325  0  3.923701  0  0  0.005012  0  3.939119  0  0  0.009808  0.002592  0  3.912498  0
C  C46  1  0.80501497  0.05603991  0.32077041  1  0  -0.146473  0  3.706522  0  0  -0.16433  0  3.954224  0  0  -0.17123  0  3.97427  0  0  -0.08721  -0.159853  0  3.939352  0
C  C47  1  0.19498300  0.94396279  0.67922616  1  0  -0.146634  0  3.70664  0  0  -0.164527  0  3.954413  0  0  -0.171428  0  3.974456  0  0  -0.087279  -0.160049  0  3.939538  0
C  C48  1  0.73652723  0.98398120  0.42165193  1  0  0.134291  0  3.748326  0  0  0.106177  0  4.016808  0  0  0.113107  0  4.032592  0  0  0.048994  0.101903  0  4.005864  0
C  C49  1  0.26346850  0.01601927  0.57834516  1  0  0.134408  0  3.748324  0  0  0.106263  0  4.016804  0  0  0.113192  0  4.032591  0  0  0.049079  0.101989  0  4.005856  0
C  C50  1  0.58921702  0.84393044  0.34498423  1  0  0.111548  0  3.684854  0  0  0.081216  0  3.944734  0  0  0.087635  0  3.960078  0  0  0.046248  0.077912  0  3.932319  0
C  C51  1  0.41078282  0.15606776  0.65501302  1  0  0.111672  0  3.684976  0  0  0.081266  0  3.944854  0  0  0.087684  0  3.960201  0  0  0.0462  0.077961  0  3.932436  0
C  C52  1  0.64743809  0.91232236  0.23971488  1  0  -0.136991  0  3.724567  0  0  -0.121431  0  3.95686  0  0  -0.131088  0  3.976161  0  0  -0.014326  -0.115578  0  3.943175  0
C  C53  1  0.35255920  0.08767586  0.76028409  1  0  -0.137091  0  3.724644  0  0  -0.121459  0  3.956911  0  0  -0.131119  0  3.976212  0  0  -0.014298  -0.115605  0  3.943223  0
C  C54  1  0.60059115  0.86502686  0.14302560  1  0  0.729354  0  3.859503  0  0  0.677352  0  4.156094  0  0  0.713975  0  4.148022  0  0  0.238188  0.652502  0  4.164333  0
C  C55  1  0.39940442  0.13497474  0.85697288  1  0  0.729275  0  3.859423  0  0  0.677231  0  4.156068  0  0  0.713861  0  4.147986  0  0  0.2381  0.652382  0  4.164303  0
N  N56  1  0.29289873  0.64179498  0.46951524  1  0  -0.298188  0  3.071862  0  0  -0.259429  0  3.345441  0  0  -0.270652  0  3.358234  0  0  -0.308342  -0.252124  0  3.336772  0
N  N57  1  0.70711099  0.35819531  0.53049069  1  0  -0.29815  0  3.07194  0  0  -0.259427  0  3.345538  0  0  -0.27065  0  3.358331  0  0  -0.308305  -0.252122  0  3.33687  0
N  N58  1  0.63251398  0.87816437  0.43484531  1  0  -0.308577  0  3.053925  0  0  -0.276577  0  3.326626  0  0  -0.287024  0  3.33975  0  0  -0.323987  -0.269637  0  3.317177  0
N  N59  1  0.36748458  0.12183385  0.56515359  1  0  -0.30853  0  3.054014  0  0  -0.276511  0  3.326742  0  0  -0.28696  0  3.339868  0  0  -0.323896  -0.269571  0  3.31729  0
O  O60  1  0.16882994  0.40227358  0.83487865  1  0  -0.750807  0  2.091431  0  0  -0.687752  0  2.334997  0  0  -0.722302  0  2.324645  0  0  -0.370322  -0.668841  0  2.340321  0
O  O61  1  0.83117113  0.59772462  0.16512561  1  0  -0.750856  0  2.091471  0  0  -0.687756  0  2.335  0  0  -0.72231  0  2.324648  0  0  -0.370341  -0.668848  0  2.340324  0
O  O62  1  0.41416110  0.50585675  0.79768501  1  0  -0.715635  0  1.99717  0  0  -0.66678  0  2.247309  0  0  -0.699764  0  2.233347  0  0  -0.370875  -0.650314  0  2.254361  0
O  O63  1  0.58583997  0.49414145  0.20231926  1  0  -0.715669  0  1.997106  0  0  -0.666823  0  2.24729  0  0  -0.699809  0  2.233326  0  0  -0.370926  -0.650356  0  2.254345  0
O  O64  1  0.93539805  0.67749084  0.79789476  1  0  -0.748863  0  2.069133  0  0  -0.695349  0  2.32053  0  0  -0.730559  0  2.307487  0  0  -0.401521  -0.676621  0  2.327514  0
O  O65  1  0.06460243  0.32251184  0.20210560  1  0  -0.748818  0  2.069099  0  0  -0.695343  0  2.320432  0  0  -0.730552  0  2.307385  0  0  -0.401538  -0.676609  0  2.327422  0
O  O66  1  0.79475341  0.51044063  0.75002287  1  0  -0.688928  0  1.986632  0  0  -0.64064  0  2.232547  0  0  -0.674165  0  2.217507  0  0  -0.367746  -0.623382  0  2.240789  0
O  O67  1  0.20524819  0.48956315  0.24997566  1  0  -0.688855  0  1.986566  0  0  -0.64061  0  2.232424  0  0  -0.674138  0  2.21738  0  0  -0.367743  -0.623363  0  2.240698  0
O  O68  1  0.69498087  0.18845877  0.06352946  1  0  -0.699981  0  2.082592  0  0  -0.644871  0  2.329405  0  0  -0.677765  0  2.315678  0  0  -0.367207  -0.626372  0  2.335944  0
O  O69  1  0.30501865  0.81154167  0.93646899  1  0  -0.700062  0  2.082545  0  0  -0.644933  0  2.32932  0  0  -0.677835  0  2.315594  0  0  -0.367201  -0.626433  0  2.335859  0
O  O70  1  0.97313443  0.09918080  0.08860568  1  0  -0.736033  0  2.03988  0  0  -0.685284  0  2.290324  0  0  -0.717468  0  2.274179  0  0  -0.365347  -0.668178  0  2.299807  0
O  O71  1  0.02686479  0.90082189  0.91139239  1  0  -0.736114  0  2.039789  0  0  -0.685375  0  2.29022  0  0  -0.717561  0  2.274067  0  0  -0.365389  -0.668276  0  2.299702  0
O  O72  1  0.70602319  0.87635215  0.06082212  1  0  -0.716112  0  2.053337  0  0  -0.666394  0  2.311904  0  0  -0.701107  0  2.298706  0  0  -0.391457  -0.648241  0  2.318806  0
O  O73  1  0.29397476  0.12365055  0.93917760  1  0  -0.716037  0  2.053233  0  0  -0.666308  0  2.31181  0  0  -0.701017  0  2.298604  0  0  -0.391432  -0.648153  0  2.318715  0
O  O74  1  0.45771967  0.81379212  0.14934050  1  0  -0.747883  0  2.030687  0  0  -0.690981  0  2.279177  0  0  -0.72547  0  2.264485  0  0  -0.382498  -0.673823  0  2.287661  0
O  O75  1  0.54227618  0.18620724  0.85066229  1  0  -0.747851  0  2.030671  0  0  -0.690926  0  2.279138  0  0  -0.725414  0  2.26444  0  0  -0.382447  -0.673769  0  2.287622  0
O  O76  1  0.29538717  0.09775953  0.16779256  1  0  -0.864534  0  1.876651  0  0  -0.818948  0  2.058336  0  0  -0.842717  0  2.029194  0  0  -0.607398  -0.80662  0  2.075431  0
O  O77  1  0.70461109  0.90224092  0.83220596  1  0  -0.864526  0  1.87663  0  0  -0.818951  0  2.05831  0  0  -0.842721  0  2.029165  0  0  -0.607405  -0.806626  0  2.075401  0
O  O78  1  0.41223480  0.37631805  0.04520083  1  0  -1.248577  0  1.81803  0  0  -1.194698  0  2.066786  0  0  -1.246081  0  2.028458  0  0  -0.790378  -1.176829  0  2.087076  0
O  O79  1  0.58776599  0.62368239  0.95479833  1  0  -1.248502  0  1.818122  0  0  -1.194628  0  2.066907  0  0  -1.246009  0  2.028577  0  0  -0.790363  -1.176774  0  2.087186  0
O  O80  1  0.86760011  0.42851942  0.99774155  1  0  -1.204176  0  1.890542  0  0  -1.146919  0  2.122638  0  0  -1.197367  0  2.094636  0  0  -0.790203  -1.128682  0  2.138103  0
O  O81  1  0.13239642  0.57148441  0.00225727  1  0  -1.20409  0  1.890637  0  0  -1.146834  0  2.122711  0  0  -1.197284  0  2.094709  0  0  -0.790184  -1.128598  0  2.138177  0
O  O82  1  0.89568857  0.21730209  0.84290203  1  0  -0.898738  0  1.867553  0  0  -0.857318  0  2.065115  0  0  -0.882841  0  2.031064  0  0  -0.607144  -0.845478  0  2.088162  0
O  O83  1  0.10430558  0.78270064  0.15709633  1  0  -0.89879  0  1.86761  0  0  -0.857354  0  2.065089  0  0  -0.882882  0  2.031034  0  0  -0.607111  -0.845512  0  2.088138  0
