# generated using pymatgen
data_NiH12(C4O3)4
_symmetry_space_group_name_H-M   'P 1'
_cell_length_a   4.93173920
_cell_length_b   6.40130168
_cell_length_c   12.31002187
_cell_angle_alpha   78.02158546
_cell_angle_beta   85.40888660
_cell_angle_gamma   86.52492586
_symmetry_Int_Tables_number   1
_chemical_formula_structural   NiH12(C4O3)4
_chemical_formula_sum   'Ni1 H12 C16 O12'
_cell_volume   378.55410890
_cell_formula_units_Z   1
loop_
 _symmetry_equiv_pos_site_id
 _symmetry_equiv_pos_as_xyz
  1  'x, y, z'
loop_
 _atom_site_type_symbol
 _atom_site_label
 _atom_site_symmetry_multiplicity
 _atom_site_fract_x
 _atom_site_fract_y
 _atom_site_fract_z
 _atom_site_occupancy
 _atom_site_hle17_ddec_charge
 _atom_site_hle17_ddec_spin_density
 _atom_site_hle17_ddec_sum_bond_order
 _atom_site_hle17_magmom
 _atom_site_hse06_10hf_ddec_charge
 _atom_site_hse06_10hf_ddec_spin_density
 _atom_site_hse06_10hf_ddec_sum_bond_order
 _atom_site_hse06_10hf_magmom
 _atom_site_hse06_ddec_charge
 _atom_site_hse06_ddec_spin_density
 _atom_site_hse06_ddec_sum_bond_order
 _atom_site_hse06_magmom
 _atom_site_pbe_cm5_charge
 _atom_site_pbe_ddec_charge
 _atom_site_pbe_ddec_spin_density
 _atom_site_pbe_ddec_sum_bond_order
 _atom_site_pbe_magmom
Ni  Ni0  1  0.99999840  0.00000499  0.50000009  1  0.986551  0.009213  1.78224  0.007  1.007746  0.009983  2.159506  0.01  1.094929  0.006064  2.090024  0.007  0.590391  0.935954  0.012237  2.22295  0.012
H  H1  1  0.39871849  0.01335632  0.62409066  1  0.422883  4.5e-05  0.877302  0.0  0.396733  0.000499  0.936801  0.0  0.407751  0.000312  0.921251  0.0  0.296755  0.38882  0.000664  0.947874  0.0
H  H2  1  0.60128890  0.98665347  0.37591044  1  0.422927  4.4e-05  0.877295  0.0  0.396777  0.000499  0.936754  0.0  0.407794  0.000311  0.921206  0.0  0.296772  0.388862  0.000664  0.947831  0.0
H  H3  1  0.12018330  0.08042089  0.68734873  1  0.419145  -5e-05  0.873962  -0.001  0.392187  0.000396  0.938982  0.0  0.402744  0.000208  0.923793  0.0  0.298881  0.384746  0.000555  0.949616  0.0
H  H4  1  0.87982451  0.91957935  0.31265507  1  0.419196  -5e-05  0.873946  -0.001  0.392218  0.000396  0.938937  0.0  0.402777  0.000209  0.923751  0.0  0.298891  0.384779  0.000555  0.94957  0.0
H  H5  1  0.92719675  0.37871455  0.43484702  1  0.405671  -0.000187  0.907196  0.0  0.374408  -0.000264  0.978072  0.0  0.386386  -9.5e-05  0.961106  0.0  0.289909  0.365954  -0.000412  0.989954  0.0
H  H6  1  0.07280050  0.62129366  0.56515135  1  0.40557  -0.000187  0.907325  0.0  0.374381  -0.000264  0.978122  0.0  0.38636  -9.5e-05  0.961155  0.0  0.289913  0.365922  -0.000412  0.99001  0.0
H  H7  1  0.75087365  0.34245372  0.54841576  1  0.435368  5e-06  0.844467  0.0  0.412381  -0.000514  0.902636  0.0  0.423565  -0.000325  0.886642  0.0  0.306026  0.40425  -0.000664  0.914195  0.0
H  H8  1  0.24912952  0.65755926  0.45158349  1  0.435348  5e-06  0.844498  0.0  0.412299  -0.000515  0.90274  0.0  0.423493  -0.000325  0.886736  0.0  0.30602  0.404173  -0.000664  0.91429  0.0
H  H9  1  0.57683896  0.88559057  0.84333305  1  0.143758  -3.9e-05  0.946756  0.0  0.146899  3.1e-05  1.015298  0.0  0.152361  2.5e-05  1.010056  0.0  0.114911  0.142923  4e-05  1.019196  0.0
H  H10  1  0.42316523  0.11439841  0.15666810  1  0.143817  -3.7e-05  0.946629  0.0  0.146915  3.1e-05  1.015232  0.0  0.15238  2.5e-05  1.009984  0.0  0.114868  0.142936  4e-05  1.019135  0.0
H  H11  1  0.66356170  0.65242806  0.28199031  1  0.123043  0.000538  0.95037  0.0  0.130634  0.000492  1.015728  0.0  0.135579  0.000354  1.011092  0.0  0.116803  0.1267  0.000639  1.019552  0.0
H  H12  1  0.33642332  0.34758019  0.71800603  1  0.123075  0.000536  0.95036  0.0  0.130707  0.000492  1.015622  0.0  0.135629  0.000353  1.011034  0.0  0.116811  0.126762  0.000639  1.019471  0.0
C  C13  1  0.90329167  0.47742436  0.04629910  1  -0.03575  0.000128  3.854948  0.0  -0.039036  -1.2e-05  4.094472  0.0  -0.039697  -7e-06  4.11851  0.0  -0.010138  -0.038512  -6e-06  4.078295  0.0
C  C14  1  0.09671049  0.52256464  0.95370212  1  -0.036047  0.000164  3.854922  0.0  -0.039085  -1.1e-05  4.09424  0.0  -0.039744  -1.1e-05  4.118277  0.0  -0.010205  -0.038558  -6e-06  4.078061  0.0
C  C15  1  0.44877388  0.74907165  0.85211231  1  -0.142045  0.00051  3.643997  0.001  -0.182355  6.2e-05  3.907782  0.0  -0.181525  4.9e-05  3.92149  0.0  -0.077988  -0.183058  0.000115  3.899299  0.0
C  C16  1  0.55123018  0.25092055  0.14788928  1  -0.14203  0.000458  3.644122  0.0  -0.182359  6e-05  3.907854  0.0  -0.181531  4.5e-05  3.921563  0.0  -0.07797  -0.183065  0.000115  3.899379  0.0
C  C17  1  0.68567834  0.55686632  0.21802438  1  -0.038266  -0.000234  3.640851  0.0  -0.084365  0.000157  3.899975  0.0  -0.080351  0.000141  3.915016  0.0  -0.066203  -0.087068  0.000107  3.890688  0.0
C  C18  1  0.31430864  0.44314347  0.78197009  1  -0.038322  -0.000182  3.640908  0.0  -0.084347  0.000159  3.90002  0.0  -0.080336  0.000144  3.915057  0.0  -0.066186  -0.08705  0.000107  3.890722  0.0
C  C19  1  0.32355234  0.32458724  0.32660686  1  0.669625  0.001459  3.866129  0.003  0.616107  -0.000545  4.169243  0.0  0.65208  -0.000325  4.161398  0.0  0.224205  0.591187  -0.000794  4.173573  0.0
C  C20  1  0.67644511  0.67541615  0.67339125  1  0.669461  0.001462  3.866338  0.003  0.615996  -0.000544  4.169459  0.0  0.65196  -0.000322  4.161632  0.0  0.22412  0.591077  -0.000794  4.173785  0.0
C  C21  1  0.05580774  0.78426332  0.11512618  1  0.59887  -0.000137  3.744449  0.0  0.539919  -1.2e-05  4.054001  0.0  0.574418  -4e-06  4.044226  0.0  0.242047  0.516632  -5e-05  4.06021  0.0
C  C22  1  0.94419675  0.21571751  0.88486939  1  0.599058  -0.00013  3.744828  0.0  0.54013  -1.2e-05  4.054365  0.0  0.574631  -1e-06  4.044574  0.0  0.242021  0.516833  -5e-05  4.060588  0.0
C  C23  1  0.87739241  0.60504284  0.12757954  1  -0.094866  -0.000461  3.779138  0.0  -0.081488  -7.3e-05  4.027443  0.0  -0.090272  -6e-05  4.048869  0.0  -0.012636  -0.076049  -0.000104  4.013301  0.0
C  C24  1  0.12258698  0.39495423  0.87241665  1  -0.094799  -0.000504  3.778944  0.0  -0.081489  -7.5e-05  4.027198  0.0  -0.090271  -6.2e-05  4.048613  0.0  -0.012467  -0.076045  -0.000104  4.013059  0.0
C  C25  1  0.26301200  0.69608638  0.94322889  1  0.253568  -0.000174  3.753909  0.0  0.236605  -1.3e-05  4.025108  0.0  0.244159  1e-06  4.041706  0.0  0.093019  0.231231  -9e-06  4.013936  0.0
C  C26  1  0.73698815  0.30390272  0.05677563  1  0.253512  -0.000127  3.754135  0.0  0.236573  -1.1e-05  4.025425  0.0  0.244126  1e-06  4.042025  0.0  0.09302  0.231193  -9e-06  4.014258  0.0
C  C27  1  0.52707219  0.37900545  0.22838108  1  -0.037256  -0.006515  3.71191  -0.006  -0.014303  -0.000593  3.955312  0.0  -0.021499  -0.000452  3.975569  0.0  -0.005649  -0.010334  -0.000751  3.942868  -0.001
C  C28  1  0.47292743  0.62099469  0.77161570  1  -0.037097  -0.006566  3.711779  -0.006  -0.01432  -0.000596  3.955383  0.0  -0.021511  -0.000458  3.975638  0.0  -0.005696  -0.010348  -0.000751  3.942936  -0.001
O  O29  1  0.05768812  0.90982987  0.17789514  1  -0.503874  0.000241  2.01955  0.0  -0.456278  0.000329  2.245775  0.0  -0.476364  0.000202  2.237062  0.0  -0.250689  -0.442856  0.000483  2.25149  0.001
O  O30  1  0.94232191  0.09016728  0.82211382  1  -0.503799  0.000234  2.020203  0.0  -0.456314  0.00033  2.246535  0.0  -0.476404  0.000203  2.237816  0.0  -0.250672  -0.442913  0.000483  2.252315  0.001
O  O31  1  0.22239286  0.09811628  0.61394223  1  -0.794656  0.057208  1.949403  0.061  -0.763638  0.043146  2.152777  0.045  -0.793164  0.035461  2.118575  0.038  -0.566508  -0.740146  0.049738  2.17721  0.052
O  O32  1  0.77761060  0.90189036  0.38605936  1  -0.794729  0.057218  1.949412  0.061  -0.763694  0.043151  2.152757  0.045  -0.793239  0.035465  2.118555  0.038  -0.566529  -0.740212  0.049744  2.177207  0.052
O  O33  1  0.78172569  0.28599478  0.47940397  1  -0.780798  0.008786  1.930616  0.01  -0.757462  -0.037846  2.143861  -0.039  -0.790338  -0.03033  2.111046  -0.032  -0.566978  -0.731359  -0.042913  2.167069  -0.043
O  O34  1  0.21826932  0.71401824  0.52059393  1  -0.780685  0.008784  1.930762  0.01  -0.757333  -0.037847  2.144023  -0.039  -0.790235  -0.030332  2.111209  -0.032  -0.566966  -0.731226  -0.042915  2.167238  -0.043
O  O35  1  0.19250634  0.47813394  0.35986556  1  -0.61901  0.0007  2.028071  0.001  -0.559579  8.1e-05  2.247334  0.0  -0.5859  0.000131  2.238591  0.0  -0.299124  -0.541366  6e-05  2.253147  0.0
O  O36  1  0.80748705  0.52186950  0.64013349  1  -0.618907  0.000698  2.028135  0.001  -0.559556  8.1e-05  2.247398  0.0  -0.585868  0.00013  2.238654  0.0  -0.299076  -0.541333  6e-05  2.253213  0.0
O  O37  1  0.29174092  0.12553369  0.36599769  1  -0.614598  -0.066383  2.060051  -0.07  -0.574961  -0.010327  2.311489  -0.011  -0.610637  -0.008317  2.300914  -0.009  -0.297415  -0.54746  -0.012841  2.318227  -0.014
O  O38  1  0.70826694  0.87446487  0.63400305  1  -0.614588  -0.066373  2.060167  -0.07  -0.574906  -0.010325  2.311558  -0.011  -0.610576  -0.008315  2.300985  -0.009  -0.297396  -0.547405  -0.01284  2.318293  -0.014
O  O39  1  0.24232248  0.81951267  0.02328119  1  -0.304088  -5e-05  2.31594  0.0  -0.236325  1.2e-05  2.550626  0.0  -0.25678  1e-06  2.550478  0.0  -0.12445  -0.222242  2.2e-05  2.550259  0.0
O  O40  1  0.75767735  0.18048269  0.97671694  1  -0.304234  -5.1e-05  2.315987  0.0  -0.236424  1.2e-05  2.550617  0.0  -0.256881  -0.0  2.550478  0.0  -0.124442  -0.222332  2.2e-05  2.550255  0.0
