# generated using pymatgen
data_ZnH4C12NO4F
_symmetry_space_group_name_H-M   'P 1'
_cell_length_a   8.93328258
_cell_length_b   14.83858305
_cell_length_c   16.26011585
_cell_angle_alpha   90.06427472
_cell_angle_beta   89.68506281
_cell_angle_gamma   79.16156878
_symmetry_Int_Tables_number   1
_chemical_formula_structural   ZnH4C12NO4F
_chemical_formula_sum   'Zn2 H8 C24 N2 O8 F2'
_cell_volume   2116.90987829
_cell_formula_units_Z   2
loop_
 _symmetry_equiv_pos_site_id
 _symmetry_equiv_pos_as_xyz
  1  'x, y, z'
loop_
 _atom_site_type_symbol
 _atom_site_label
 _atom_site_symmetry_multiplicity
 _atom_site_fract_x
 _atom_site_fract_y
 _atom_site_fract_z
 _atom_site_occupancy
 _atom_site_pbe_bader_charge
 _atom_site_pbe_bader_spin_density
 _atom_site_pbe_cm5_charge
 _atom_site_pbe_ddec_charge
 _atom_site_pbe_ddec_spin_density
 _atom_site_pbe_ddec_sum_bond_order
 _atom_site_pbe_magmom
Zn  Zn0  1  0.51407654  0.40460781  0.49997527  1  1.316393  0  0.678382  0.884355  0  2.424759  0
Zn  Zn1  1  0.48591547  0.59539289  0.50002593  1  1.318288  0  0.678349  0.884253  0  2.424898  0
H  H2  1  0.97001866  0.60577427  0.49999305  1  0.113912  0  0.107416  0.127223  0  0.989838  0
H  H3  1  0.02996833  0.39422442  0.50000877  1  0.113481  0  0.107445  0.127191  0  0.989808  0
H  H4  1  0.25791746  0.49764653  0.07608148  1  0.123031  0  0.123108  0.1544  0  0.961932  0
H  H5  1  0.74211489  0.50234629  0.92391966  1  0.123113  0  0.123137  0.154422  0  0.96204  0
H  H6  1  0.25381045  0.94379627  0.50006717  1  0.112307  0  0.130146  0.133023  0  0.959976  0
H  H7  1  0.74617314  0.05620655  0.49992789  1  0.112349  0  0.130094  0.133008  0  0.959903  0
H  H8  1  0.25357250  0.11241838  0.50008731  1  0.121304  0  0.132387  0.136712  0  0.955958  0
H  H9  1  0.74640924  0.88758309  0.49990960  1  0.12148  0  0.132392  0.136806  0  0.955814  0
C  C10  1  0.50122565  0.49971569  0.33871889  1  1.658329  0  0.221466  0.671358  0  4.237234  0
C  C11  1  0.49877475  0.50028699  0.66128230  1  1.658493  0  0.221464  0.671398  0  4.237345  0
C  C12  1  0.50018389  0.09340534  0.49999963  1  0.051214  0  0.031423  0.068304  0  4.075291  0
C  C13  1  0.49979766  0.90659681  0.49999482  1  0.051655  0  0.031337  0.068167  0  4.075804  0
C  C14  1  0.63957274  0.03068092  0.49995696  1  0.029904  0  -0.052577  -0.088377  0  3.921477  0
C  C15  1  0.36041462  0.96932049  0.50003749  1  0.03062  0  -0.052658  -0.088428  0  3.921744  0
C  C16  1  0.50289615  0.18889814  0.49997001  1  0.891966  0  0.244966  0.285623  0  3.90946  0
C  C17  1  0.49708843  0.81111289  0.50002505  1  0.891074  0  0.244929  0.285582  0  3.909021  0
C  C18  1  0.20435645  0.52544401  0.50003701  1  1.553886  0  0.21151  0.636956  0  4.165782  0
C  C19  1  0.79563126  0.47455605  0.49996604  1  1.553444  0  0.211614  0.636853  0  4.165846  0
C  C20  1  0.03555949  0.53594677  0.50001198  1  0.017963  0  -0.078068  -0.163837  0  3.876005  0
C  C21  1  0.96443159  0.46405325  0.49999045  1  -0.102028  0  -0.07809  -0.163605  0  3.875736  0
C  C22  1  0.36695462  0.49901693  0.95853230  1  0.390485  0  0.099853  0.233686  0  4.059385  0
C  C23  1  0.63308091  0.50097655  0.04146699  1  0.391253  0  0.099977  0.233432  0  4.059668  0
C  C24  1  0.50037665  0.50035235  0.91228582  1  0.115604  0  -0.004109  0.048216  0  4.139282  0
C  C25  1  0.49965717  0.49964319  0.08771408  1  0.115051  0  -0.004256  0.048163  0  4.139102  0
C  C26  1  0.63560379  0.50135693  0.95648504  1  0.119838  0  -0.088959  -0.236132  0  3.96095  0
C  C27  1  0.36442593  0.49863728  0.04351548  1  0.120174  0  -0.088834  -0.236198  0  3.96052  0
C  C28  1  0.49878687  0.50047552  0.82537474  1  -0.374334  0  -0.032415  -0.034698  0  4.108542  0
C  C29  1  0.50123228  0.49952426  0.17462703  1  -0.374328  0  -0.032347  -0.034535  0  4.108679  0
C  C30  1  0.50125430  0.49958370  0.24953578  1  0.149282  0  -0.035739  -0.162404  0  3.929214  0
C  C31  1  0.49873857  0.50042178  0.75046542  1  0.149354  0  -0.035722  -0.162339  0  3.929018  0
C  C32  1  0.36033785  0.06286858  0.50004235  1  0.021834  0  -0.051759  -0.08789  0  3.916471  0
C  C33  1  0.63964726  0.93713286  0.49995210  1  0.021511  0  -0.051726  -0.087975  0  3.916355  0
N  N34  1  0.49097092  0.73370992  0.50006962  1  -1.137077  0  -0.252148  -0.252658  0  3.083165  0
N  N35  1  0.50900811  0.26628542  0.49992791  1  -1.137905  0  -0.252231  -0.252717  0  3.083964  0
O  O36  1  0.51499774  0.42170886  0.37326870  1  -1.136182  0  -0.315916  -0.546477  0  2.241134  0
O  O37  1  0.48500102  0.57829177  0.62672941  1  -1.135855  0  -0.315836  -0.546393  0  2.241266  0
O  O38  1  0.48730374  0.57782984  0.37331367  1  -1.139612  0  -0.315387  -0.546286  0  2.242574  0
O  O39  1  0.51270510  0.42217072  0.62668935  1  -1.140085  0  -0.315425  -0.546353  0  2.242603  0
O  O40  1  0.28310878  0.44438575  0.50000860  1  -1.167348  0  -0.320415  -0.561623  0  2.320538  0
O  O41  1  0.71688269  0.55561290  0.49999629  1  -1.167417  0  -0.32047  -0.561535  0  2.320529  0
O  O42  1  0.25664197  0.59992861  0.50005445  1  -1.144282  0  -0.325838  -0.55435  0  2.261752  0
O  O43  1  0.74334647  0.40007281  0.49994860  1  -1.14409  0  -0.325927  -0.554442  0  2.262101  0
F  F44  1  0.23479964  0.49811054  0.91769852  1  -0.628873  0  -0.10728  -0.144997  0  1.318856  0
F  F45  1  0.76523106  0.50188024  0.08230262  1  -0.629178  0  -0.107266  -0.144879  0  1.31911  0
