# generated using pymatgen
data_MnH12C14S(NO2)2
_symmetry_space_group_name_H-M   'P 1'
_cell_length_a   7.94568717
_cell_length_b   9.01642762
_cell_length_c   10.42552134
_cell_angle_alpha   73.82573542
_cell_angle_beta   72.86877780
_cell_angle_gamma   80.02922383
_symmetry_Int_Tables_number   1
_chemical_formula_structural   MnH12C14S(NO2)2
_chemical_formula_sum   'Mn2 H24 C28 S2 N4 O8'
_cell_volume   682.12782385
_cell_formula_units_Z   2
loop_
 _symmetry_equiv_pos_site_id
 _symmetry_equiv_pos_as_xyz
  1  'x, y, z'
loop_
 _atom_site_type_symbol
 _atom_site_label
 _atom_site_symmetry_multiplicity
 _atom_site_fract_x
 _atom_site_fract_y
 _atom_site_fract_z
 _atom_site_occupancy
 _atom_site_hle17_ddec_charge
 _atom_site_hle17_ddec_spin_density
 _atom_site_hle17_ddec_sum_bond_order
 _atom_site_hle17_magmom
 _atom_site_hse06_10hf_ddec_charge
 _atom_site_hse06_10hf_ddec_spin_density
 _atom_site_hse06_10hf_ddec_sum_bond_order
 _atom_site_hse06_10hf_magmom
 _atom_site_hse06_ddec_charge
 _atom_site_hse06_ddec_spin_density
 _atom_site_hse06_ddec_sum_bond_order
 _atom_site_hse06_magmom
 _atom_site_pbe_cm5_charge
 _atom_site_pbe_ddec_charge
 _atom_site_pbe_ddec_spin_density
 _atom_site_pbe_ddec_sum_bond_order
 _atom_site_pbe_magmom
Mn  Mn0  1  0.40526473  0.49221828  0.17836229  1  1.137605  4.797664  1.776297  4.663  0.964582  4.720228  2.288963  4.507  1.029771  4.768266  2.209992  4.58  0.599858  0.913096  4.668767  2.348611  4.434
Mn  Mn1  1  0.59474065  0.50778024  0.82163594  1  1.13763  4.797637  1.776454  4.663  0.964557  4.720204  2.289173  4.507  1.029744  4.768236  2.210199  4.58  0.599919  0.913072  4.668749  2.348822  4.434
H  H2  1  0.14840588  0.21710862  0.91456344  1  0.107794  4.5e-05  0.959401  0.0  0.122147  0.00031  1.022986  0.0  0.123606  0.000185  1.023309  0.0  0.098121  0.121322  0.000475  1.022765  0.0
H  H3  1  0.85159489  0.78290848  0.08542367  1  0.10782  5.6e-05  0.959332  0.0  0.122168  0.000309  1.022915  0.0  0.123627  0.000186  1.023237  0.0  0.098092  0.121342  0.000475  1.022699  0.0
H  H4  1  0.98220496  0.36790973  0.95451615  1  0.134795  -0.00053  0.946011  0.0  0.149515  -0.000315  1.002119  0.0  0.15172  -0.000427  1.002136  0.0  0.109488  0.147834  -0.000188  1.002496  0.001
H  H5  1  0.01779704  0.63209576  0.04547157  1  0.134749  -0.00052  0.945994  0.0  0.149502  -0.000315  1.002062  0.0  0.151708  -0.000426  1.002078  0.0  0.10948  0.147822  -0.000188  1.002439  0.001
H  H6  1  0.86699963  0.04617769  0.01833259  1  0.103523  -7e-06  0.987276  0.0  0.112085  0.000176  1.058599  0.0  0.114309  8.2e-05  1.057528  0.0  0.090781  0.110609  0.000319  1.059314  0.0
H  H7  1  0.13299336  0.95383829  0.98166230  1  0.103399  -3e-06  0.987361  0.0  0.111985  0.000176  1.058675  0.0  0.114207  8.3e-05  1.057598  0.0  0.090721  0.1105  0.000319  1.0594  0.0
H  H8  1  0.75623709  0.00421614  0.19947738  1  0.110254  0.000224  0.958938  0.0  0.124189  0.000574  1.022942  0.0  0.126019  0.000399  1.022709  0.0  0.097252  0.123189  0.000606  1.023076  0.001
H  H9  1  0.24378031  0.99576839  0.80051768  1  0.110159  0.000224  0.958972  0.0  0.124054  0.000574  1.023055  0.0  0.125887  0.000399  1.022807  0.0  0.097195  0.123051  0.000606  1.023194  0.001
H  H10  1  0.20853091  0.19221957  0.33775421  1  0.081302  -0.000171  0.956909  0.0  0.084925  0.00015  1.028873  0.001  0.087867  -4e-06  1.025928  0.0  0.114504  0.082983  0.000374  1.030092  0.001
H  H11  1  0.79146813  0.80777666  0.66225174  1  0.081319  -0.000167  0.956905  0.0  0.084944  0.00015  1.028873  0.001  0.087887  -4e-06  1.025926  0.0  0.114511  0.083002  0.000374  1.03009  0.001
H  H12  1  0.02606328  0.07005496  0.57515125  1  0.097216  0.000242  0.965022  0.0  0.107634  0.000265  1.026707  0.0  0.110179  0.000198  1.027022  0.0  0.101238  0.105656  0.000334  1.027082  0.0
H  H13  1  0.97393621  0.92994939  0.42485265  1  0.097243  0.000244  0.964905  0.0  0.107665  0.000265  1.026593  0.0  0.110208  0.000198  1.026912  0.0  0.101242  0.105684  0.000334  1.026969  0.0
H  H14  1  0.97003106  0.20854742  0.76403727  1  0.100369  -0.000342  0.953516  0.0  0.1067  -8.3e-05  1.023157  0.0  0.109947  -0.000176  1.020197  0.0  0.106909  0.104424  -2.6e-05  1.025101  0.0
H  H15  1  0.02996078  0.79145466  0.23596506  1  0.100399  -0.00034  0.953542  0.0  0.10669  -8.3e-05  1.02323  0.0  0.109936  -0.000176  1.020269  0.0  0.10693  0.104413  -2.6e-05  1.025176  0.0
H  H16  1  0.10823071  0.45458884  0.71226428  1  0.121188  5.6e-05  0.9484  0.0  0.130569  0.00011  1.009391  0.0  0.134074  6e-06  1.007577  0.0  0.113765  0.127789  0.000201  1.011586  0.0
H  H17  1  0.89176377  0.54541322  0.28773938  1  0.121221  5.3e-05  0.948446  0.0  0.130601  0.000109  1.009413  0.0  0.134125  6e-06  1.007574  0.0  0.113793  0.127821  0.000201  1.011608  0.0
H  H18  1  0.27356931  0.63129713  0.66309855  1  0.118124  0.000165  0.968158  0.0  0.120864  0.000424  1.042278  0.0  0.125129  0.000267  1.039288  0.0  0.109088  0.117523  0.000699  1.04429  0.001
H  H19  1  0.72643595  0.36870255  0.33690518  1  0.118114  0.000165  0.96817  0.0  0.120817  0.000424  1.042313  0.0  0.125081  0.000267  1.039325  0.0  0.109094  0.117479  0.000699  1.044328  0.001
H  H20  1  0.37998325  0.89067073  0.57536617  1  0.093179  -0.000268  0.955835  0.0  0.104131  -9.6e-05  1.01851  0.0  0.106727  -0.000166  1.016656  0.0  0.104365  0.102013  -9.2e-05  1.019758  0.0
H  H21  1  0.62001818  0.10932781  0.42463581  1  0.0931  -0.000276  0.955875  0.0  0.104089  -9.6e-05  1.018515  0.0  0.106685  -0.000166  1.016662  0.0  0.104333  0.10197  -9.2e-05  1.019767  0.0
H  H22  1  0.46962227  0.00585703  0.31599723  1  0.105692  6.9e-05  0.983799  0.0  0.113078  0.000136  1.048964  0.0  0.116374  3.2e-05  1.047936  0.0  0.103934  0.110766  0.00012  1.049997  0.0
H  H23  1  0.53037426  0.99413806  0.68400957  1  0.105734  7.4e-05  0.983858  0.0  0.113191  0.000136  1.048921  0.0  0.116483  3.2e-05  1.047884  0.0  0.10401  0.110846  0.00012  1.049987  0.0
H  H24  1  0.47012218  0.83765612  0.15984633  1  0.084077  -0.00015  0.922696  0.0  0.095056  0.000291  0.978136  0.001  0.097292  7.5e-05  0.976447  0.0  0.12015  0.093148  0.000469  0.979908  0.001
H  H25  1  0.52987530  0.16234244  0.84015750  1  0.084077  -0.000152  0.922659  0.0  0.095033  0.000292  0.978125  0.001  0.097268  7.5e-05  0.976436  0.0  0.120143  0.093108  0.000469  0.97992  0.001
C  C26  1  0.22406165  0.37440837  0.00383126  1  0.72044  0.006202  3.851567  0.006  0.673527  0.011847  4.145151  0.011  0.708596  0.008945  4.138678  0.009  0.218184  0.64915  0.015041  4.148361  0.013
C  C27  1  0.77594380  0.62560174  0.99614497  1  0.720196  0.006212  3.85164  0.006  0.673279  0.01185  4.145228  0.011  0.708348  0.008948  4.13876  0.009  0.218084  0.648903  0.015046  4.148436  0.013
C  C28  1  0.08578067  0.28441711  0.99224401  1  -0.312354  0.002359  3.640599  0.002  -0.345778  0.002725  3.891782  0.002  -0.35076  0.001828  3.897186  0.002  -0.158684  -0.342739  0.003596  3.888508  0.003
C  C29  1  0.91421738  0.71558840  0.00774938  1  -0.312258  0.002319  3.640421  0.002  -0.345782  0.002727  3.891795  0.002  -0.350762  0.001828  3.897196  0.002  -0.158647  -0.342752  0.003597  3.888538  0.003
C  C30  1  0.81236139  0.09508146  0.10930955  1  -0.316491  0.002314  3.654881  0.002  -0.350477  0.002738  3.907893  0.003  -0.355059  0.001884  3.911809  0.002  -0.160519  -0.347579  0.003877  3.904739  0.003
C  C31  1  0.18763790  0.90491245  0.89068924  1  -0.316157  0.002313  3.654714  0.002  -0.350162  0.002736  3.90775  0.003  -0.354724  0.001885  3.911657  0.002  -0.160408  -0.34725  0.003877  3.904574  0.003
C  C32  1  0.67279895  0.22975576  0.08089847  1  0.712726  0.005925  3.85707  0.006  0.668369  0.01137  4.145051  0.011  0.703587  0.008599  4.138219  0.009  0.212703  0.644291  0.014253  4.147736  0.013
C  C33  1  0.32720667  0.77024043  0.91909354  1  0.71271  0.005923  3.857401  0.006  0.66836  0.01137  4.145379  0.011  0.703572  0.008597  4.138548  0.009  0.212615  0.644279  0.014251  4.148057  0.013
C  C34  1  0.18553478  0.24374041  0.42505614  1  0.142915  0.003617  3.694833  0.003  0.112946  0.006153  3.948849  0.005  0.12024  0.005004  3.966371  0.004  0.054819  0.110078  0.007497  3.933352  0.006
C  C35  1  0.81446390  0.75625931  0.57494906  1  0.143008  0.003587  3.694696  0.003  0.113026  0.006155  3.948781  0.005  0.120316  0.005003  3.966316  0.004  0.054878  0.110159  0.007498  3.933277  0.006
C  C36  1  0.08416763  0.17750940  0.55631983  1  -0.130335  -0.002326  3.740516  -0.001  -0.142045  -0.001501  3.990544  -0.001  -0.14946  -0.002296  4.013502  -0.001  -0.087222  -0.139394  -0.000908  3.975955  0.0
C  C37  1  0.91583092  0.82249148  0.44368608  1  -0.130506  -0.002293  3.740647  -0.001  -0.142211  -0.001503  3.990683  -0.001  -0.149629  -0.002297  4.013638  -0.001  -0.087293  -0.139557  -0.000908  3.976098  0.0
C  C38  1  0.05508116  0.25362041  0.66169657  1  -0.008394  0.0034  3.720816  0.003  -0.029766  0.005746  3.978127  0.004  -0.026552  0.004693  3.996272  0.004  -0.070413  -0.031886  0.007346  3.967952  0.005
C  C39  1  0.94492015  0.74637929  0.33830901  1  -0.008406  0.003366  3.721055  0.003  -0.029765  0.005747  3.978342  0.004  -0.026547  0.004694  3.996481  0.004  -0.070466  -0.031887  0.007347  3.968171  0.005
C  C40  1  0.13114740  0.39116321  0.63294725  1  -0.124229  -0.00271  3.658413  -0.002  -0.14272  -0.00167  3.906666  -0.001  -0.148701  -0.002496  3.926376  -0.002  -0.073585  -0.141445  -0.000949  3.896508  -0.001
C  C41  1  0.86885679  0.60883415  0.36705632  1  -0.124316  -0.002655  3.658538  -0.002  -0.142779  -0.001671  3.90671  -0.001  -0.148773  -0.002495  3.92641  -0.002  -0.073618  -0.141504  -0.000949  3.896556  -0.001
C  C42  1  0.23258594  0.44977709  0.49871327  1  0.174736  0.003005  3.769755  0.003  0.170914  0.005765  4.008607  0.005  0.177131  0.004615  4.030316  0.004  0.123815  0.167495  0.007307  3.993041  0.006
C  C43  1  0.76741681  0.55022145  0.50129034  1  0.174867  0.00298  3.769772  0.003  0.171068  0.005767  4.008523  0.005  0.177284  0.004614  4.030238  0.004  0.123918  0.167647  0.007308  3.992956  0.006
C  C44  1  0.30974721  0.59922350  0.45707775  1  0.167326  0.00263  3.774814  0.003  0.165678  0.00525  4.013367  0.004  0.171756  0.004135  4.034869  0.004  0.121981  0.16151  0.007484  3.997552  0.006
C  C45  1  0.69025352  0.40076925  0.54292963  1  0.167252  0.002661  3.775112  0.003  0.165696  0.005251  4.013472  0.004  0.171774  0.004134  4.034977  0.004  0.121993  0.16153  0.007483  3.997656  0.006
C  C46  1  0.31525025  0.68038086  0.55207767  1  -0.141607  -0.00225  3.689797  -0.002  -0.165112  -0.001121  3.948872  -0.001  -0.171798  -0.001906  3.96845  -0.001  -0.077498  -0.156321  -0.000523  3.931344  -0.001
C  C47  1  0.68474867  0.31961653  0.44792612  1  -0.141623  -0.002294  3.689764  -0.002  -0.165138  -0.001122  3.948866  -0.001  -0.171823  -0.001905  3.968443  -0.001  -0.077517  -0.156353  -0.000523  3.931347  -0.001
C  C48  1  0.37542249  0.82694071  0.50205778  1  0.00397  0.003142  3.725034  0.003  -0.017231  0.005265  3.978843  0.004  -0.01348  0.00424  3.997879  0.004  -0.068375  -0.018173  0.007143  3.962674  0.006
C  C49  1  0.62457499  0.17305785  0.49794510  1  0.004094  0.003188  3.72502  0.003  -0.01714  0.005264  3.978844  0.004  -0.01339  0.004241  3.997877  0.004  -0.068312  -0.018082  0.007142  3.962668  0.006
C  C50  1  0.42823038  0.88896608  0.35957074  1  -0.140703  -0.002163  3.732  -0.001  -0.15152  -0.001297  3.98381  -0.001  -0.159228  -0.002048  4.005801  -0.001  -0.089263  -0.149468  -0.000826  3.97121  -0.001
C  C51  1  0.57176063  0.11103136  0.64043386  1  -0.140774  -0.002231  3.732105  -0.001  -0.151635  -0.001296  3.983889  -0.001  -0.159336  -0.002049  4.005883  -0.001  -0.089388  -0.149566  -0.000826  3.971328  -0.001
C  C52  1  0.42665451  0.79739777  0.27208362  1  0.147307  0.003431  3.702351  0.003  0.115808  0.006197  3.957295  0.005  0.123399  0.004898  3.974672  0.004  0.053864  0.109945  0.007335  3.948821  0.006
C  C53  1  0.57333770  0.20260082  0.72792043  1  0.147276  0.00347  3.70233  0.003  0.115781  0.006197  3.957289  0.005  0.123369  0.004896  3.974665  0.004  0.053858  0.109931  0.007334  3.948807  0.006
S  S54  1  0.98673976  0.15810110  0.15637309  1  0.016405  0.001414  2.34338  0.001  0.022542  0.002945  2.692461  0.003  0.021565  0.001783  2.68932  0.002  -0.018151  0.023903  0.004142  2.695347  0.003
S  S55  1  0.01326874  0.84189276  0.84362077  1  0.016287  0.00142  2.343347  0.001  0.02244  0.002945  2.69249  0.003  0.021451  0.001783  2.689349  0.002  -0.018191  0.023799  0.004142  2.695371  0.003
N  N56  1  0.25766060  0.37681032  0.39658750  1  -0.351084  0.026243  3.2215  0.015  -0.286921  0.03088  3.490178  0.016  -0.306332  0.026536  3.505215  0.012  -0.307718  -0.270565  0.035395  3.476618  0.019
N  N57  1  0.74234240  0.62318589  0.60341757  1  -0.351079  0.026268  3.221353  0.015  -0.286979  0.030881  3.49009  0.016  -0.306391  0.026541  3.505127  0.012  -0.307768  -0.270625  0.035398  3.476538  0.019
N  N58  1  0.36978792  0.65583668  0.31925381  1  -0.347282  0.025022  3.226377  0.015  -0.283414  0.02972  3.493254  0.016  -0.302115  0.025447  3.5079  0.012  -0.308422  -0.272608  0.033811  3.485612  0.019
N  N59  1  0.63021124  0.34415840  0.68075048  1  -0.347218  0.024988  3.226605  0.015  -0.283356  0.02972  3.493427  0.016  -0.302057  0.025451  3.50808  0.012  -0.308394  -0.272545  0.033812  3.485774  0.019
O  O60  1  0.21889770  0.38799404  0.12286454  1  -0.643981  0.031597  2.067715  0.022  -0.576485  0.038483  2.334129  0.025  -0.607881  0.033751  2.321579  0.021  -0.304538  -0.553663  0.043055  2.342414  0.03
O  O61  1  0.78108392  0.61201736  0.87713112  1  -0.64384  0.0316  2.068402  0.022  -0.576231  0.038485  2.334706  0.025  -0.607622  0.033751  2.32216  0.021  -0.304391  -0.55341  0.043055  2.342989  0.03
O  O62  1  0.33155822  0.43105522  0.89031370  1  -0.656412  0.030005  2.055561  0.018  -0.594805  0.038888  2.332598  0.024  -0.626638  0.034238  2.319892  0.02  -0.309955  -0.570799  0.043786  2.339877  0.028
O  O63  1  0.66845160  0.56893863  0.10968177  1  -0.656301  0.030002  2.055021  0.018  -0.594759  0.03889  2.332112  0.024  -0.626597  0.034239  2.319411  0.02  -0.30999  -0.570747  0.04379  2.339389  0.028
O  O64  1  0.68888214  0.29895799  0.95425151  1  -0.659058  0.032468  2.055704  0.021  -0.593991  0.042646  2.328559  0.028  -0.62531  0.037401  2.314408  0.023  -0.309954  -0.570178  0.048261  2.336671  0.033
O  O65  1  0.31111687  0.70105101  0.04575042  1  -0.65915  0.032472  2.055787  0.021  -0.594029  0.042645  2.328553  0.028  -0.625355  0.037402  2.314409  0.023  -0.309881  -0.570209  0.04826  2.336656  0.033
O  O66  1  0.55596059  0.26392017  0.18427898  1  -0.64901  0.029691  2.039343  0.02  -0.584971  0.036802  2.304771  0.024  -0.615951  0.032016  2.292759  0.02  -0.310545  -0.561873  0.041818  2.312139  0.029
O  O67  1  0.44404171  0.73607025  0.81572765  1  -0.649029  0.029691  2.039804  0.02  -0.585004  0.036808  2.305265  0.024  -0.615979  0.032018  2.293252  0.02  -0.310526  -0.561903  0.041823  2.312621  0.029
