# generated using pymatgen
data_CuH5C7IN2O
_symmetry_space_group_name_H-M   'P 1'
_cell_length_a   4.14710269
_cell_length_b   7.91089596
_cell_length_c   12.72701349
_cell_angle_alpha   74.55676090
_cell_angle_beta   83.87956560
_cell_angle_gamma   80.02356343
_symmetry_Int_Tables_number   1
_chemical_formula_structural   CuH5C7IN2O
_chemical_formula_sum   'Cu2 H10 C14 I2 N4 O2'
_cell_volume   395.57253502
_cell_formula_units_Z   2
loop_
 _symmetry_equiv_pos_site_id
 _symmetry_equiv_pos_as_xyz
  1  'x, y, z'
loop_
 _atom_site_type_symbol
 _atom_site_label
 _atom_site_symmetry_multiplicity
 _atom_site_fract_x
 _atom_site_fract_y
 _atom_site_fract_z
 _atom_site_occupancy
 _atom_site_hle17_bader_spin_density
 _atom_site_hle17_ddec_charge
 _atom_site_hle17_ddec_spin_density
 _atom_site_hle17_ddec_sum_bond_order
 _atom_site_hle17_magmom
 _atom_site_hse06_10hf_bader_spin_density
 _atom_site_hse06_10hf_ddec_charge
 _atom_site_hse06_10hf_ddec_spin_density
 _atom_site_hse06_10hf_ddec_sum_bond_order
 _atom_site_hse06_10hf_magmom
 _atom_site_hse06_bader_spin_density
 _atom_site_hse06_ddec_charge
 _atom_site_hse06_ddec_spin_density
 _atom_site_hse06_ddec_sum_bond_order
 _atom_site_hse06_magmom
 _atom_site_pbe_bader_spin_density
 _atom_site_pbe_cm5_charge
 _atom_site_pbe_ddec_charge
 _atom_site_pbe_ddec_spin_density
 _atom_site_pbe_ddec_sum_bond_order
 _atom_site_pbe_magmom
Cu  Cu0  1  0.28192012  0.88944665  0.02726358  1  0  0.211106  0  2.24116  0  0  0.13997  0  2.718627  0  0  0.150873  0  2.663201  0  0  0.236047  0.134814  0  2.755302  0
Cu  Cu1  1  0.71810570  0.11055342  0.97273607  1  0  0.21104  0  2.241207  0  0  0.139902  0  2.718666  0  0  0.150914  0  2.663215  0  0  0.236054  0.134766  0  2.755359  0
H  H2  1  0.61476067  0.51469868  0.12949514  1  0  0.112201  0  0.947268  0  0  0.114544  0  1.019489  0  0  0.11895  0  1.01632  0  0  0.104807  0.111109  0  1.022278  0
H  H3  1  0.38524932  0.48529741  0.87051045  1  0  0.112223  0  0.947304  0  0  0.114554  0  1.019509  0  0  0.118955  0  1.01634  0  0  0.104818  0.111118  0  1.022301  0
H  H4  1  0.80978247  0.65011687  0.41507750  1  0  0.080997  0  0.971894  0  0  0.083981  0  1.044338  0  0  0.086889  0  1.042943  0  0  0.109948  0.081914  0  1.045382  0
H  H5  1  0.19019577  0.34988856  0.58491983  1  0  0.081086  0  0.971901  0  0  0.084032  0  1.044367  0  0  0.086943  0  1.042966  0  0  0.109983  0.081969  0  1.045407  0
H  H6  1  0.87961980  0.87630507  0.23369556  1  0  0.091147  0  0.960532  0  0  0.093471  0  1.036393  0  0  0.097927  0  1.032475  0  0  0.104937  0.09001  0  1.039634  0
H  H7  1  0.12037820  0.12369901  0.76629971  1  0  0.09114  0  0.960469  0  0  0.093487  0  1.036316  0  0  0.097941  0  1.0324  0  0  0.104936  0.090027  0  1.039554  0
H  H8  1  0.77440879  0.25592257  0.50080339  1  0  0.112513  0  0.968471  0  0  0.117205  0  1.039143  0  0  0.120179  0  1.037551  0  0  0.104986  0.115119  0  1.040299  0
H  H9  1  0.22558997  0.74407885  0.49919543  1  0  0.112539  0  0.968475  0  0  0.117218  0  1.039163  0  0  0.120191  0  1.037572  0  0  0.104998  0.115134  0  1.040319  0
H  H10  1  0.29040980  0.98733265  0.32641645  1  0  0.109699  0  0.967095  0  0  0.116526  0  1.035423  0  0  0.119366  0  1.034786  0  0  0.097836  0.114401  0  1.035991  0
H  H11  1  0.70959177  0.01266743  0.67358406  1  0  0.109707  0  0.967095  0  0  0.116531  0  1.035427  0  0  0.119371  0  1.03479  0  0  0.097833  0.114406  0  1.035996  0
C  C12  1  0.43228231  0.54581670  0.19276006  1  0  -0.020897  0  3.619405  0  0  -0.057222  0  3.877619  0  0  -0.055132  0  3.888873  0  0  0.036024  -0.059358  0  3.871426  0
C  C13  1  0.56770924  0.45418471  0.80724531  1  0  -0.020999  0  3.619257  0  0  -0.057272  0  3.877441  0  0  -0.055166  0  3.888688  0  0  0.035935  -0.059414  0  3.871259  0
C  C14  1  0.38593194  0.42189290  0.29349805  1  0  0.403096  0  3.798551  0  0  0.376252  0  4.074765  0  0  0.392987  0  4.081468  0  0  0.220005  0.364636  0  4.070638  0
C  C15  1  0.61406403  0.57810985  0.70650144  1  0  0.403114  0  3.798535  0  0  0.376296  0  4.074728  0  0  0.393021  0  4.081434  0  0  0.220041  0.364682  0  4.070605  0
C  C16  1  0.98740725  0.62006716  0.35034638  1  0  0.086373  0  3.729639  0  0  0.067214  0  3.984905  0  0  0.070095  0  4.001866  0  0  0.041604  0.065042  0  3.973965  0
C  C17  1  0.01259052  0.37992896  0.64965021  1  0  0.086305  0  3.729312  0  0  0.067171  0  3.984592  0  0  0.07005  0  4.001551  0  0  0.041551  0.064989  0  3.973667  0
C  C18  1  0.02629349  0.74480211  0.25202300  1  0  0.023835  0  3.69277  0  0  -0.007194  0  3.949558  0  0  -0.007143  0  3.967205  0  0  0.020339  -0.007626  0  3.9386  0
C  C19  1  0.97369726  0.25520197  0.74797567  1  0  0.023811  0  3.692777  0  0  -0.007239  0  3.949567  0  0  -0.007191  0  3.967229  0  0  0.020342  -0.007669  0  3.938607  0
C  C20  1  0.64992025  0.14495338  0.50215216  1  0  -0.152259  0  3.763061  0  0  -0.172793  0  4.017057  0  0  -0.176431  0  4.037306  0  0  -0.094769  -0.170168  0  4.003227  0
C  C21  1  0.35008410  0.85504539  0.49784691  1  0  -0.152321  0  3.763073  0  0  -0.172859  0  4.017088  0  0  -0.176498  0  4.037337  0  0  -0.094798  -0.170236  0  4.003264  0
C  C22  1  0.53172085  0.13277932  0.40649189  1  0  0.264122  0  3.761721  0  0  0.250831  0  4.026448  0  0  0.259782  0  4.042052  0  0  0.078245  0.244666  0  4.01594  0
C  C23  1  0.46828387  0.86721812  0.59350817  1  0  0.264115  0  3.761648  0  0  0.250875  0  4.026354  0  0  0.259822  0  4.041958  0  0  0.078281  0.244709  0  4.015852  0
C  C24  1  0.38300240  0.98979225  0.40290887  1  0  -0.144976  0  3.733359  0  0  -0.163488  0  3.981093  0  0  -0.167327  0  4.001801  0  0  -0.094791  -0.1608  0  3.967149  0
C  C25  1  0.61700158  0.01020784  0.59708999  1  0  -0.145013  0  3.733387  0  0  -0.163525  0  3.981107  0  0  -0.167366  0  4.001818  0  0  -0.094785  -0.160835  0  3.967163  0
I  I26  1  0.83822130  0.80271206  0.92113187  1  0  -0.312494  0  1.75711  0  0  -0.269426  0  2.220277  0  0  -0.28483  0  2.178076  0  0  -0.164291  -0.257894  0  2.249607  0
I  I27  1  0.16178456  0.19728138  0.07887273  1  0  -0.312457  0  1.757103  0  0  -0.269379  0  2.220268  0  0  -0.28481  0  2.178079  0  0  -0.164269  -0.25785  0  2.249612  0
N  N28  1  0.25211882  0.70697574  0.17321610  1  0  -0.194325  0  3.396279  0  0  -0.122451  0  3.670614  0  0  -0.129635  0  3.681064  0  0  -0.343585  -0.118391  0  3.664152  0
N  N29  1  0.74788590  0.29302169  0.82678395  1  0  -0.194282  0  3.396254  0  0  -0.122427  0  3.670588  0  0  -0.129636  0  3.681072  0  0  -0.343581  -0.118373  0  3.664144  0
N  N30  1  0.16804724  0.45742929  0.37198316  1  0  -0.36318  0  3.063048  0  0  -0.330274  0  3.329397  0  0  -0.339661  0  3.340758  0  0  -0.312759  -0.323827  0  3.321766  0
N  N31  1  0.83193141  0.54257479  0.62801909  1  0  -0.363186  0  3.062945  0  0  -0.330263  0  3.329253  0  0  -0.339647  0  3.340613  0  0  -0.312727  -0.323816  0  3.321629  0
O  O32  1  0.57762353  0.26097488  0.30819827  1  0  -0.306947  0  2.358741  0  0  -0.23713  0  2.586413  0  0  -0.256904  0  2.590021  0  0  -0.144598  -0.223634  0  2.584044  0
O  O33  1  0.42237319  0.73902521  0.69180320  1  0  -0.306837  0  2.358604  0  0  -0.237117  0  2.586336  0  0  -0.256878  0  2.589938  0  0  -0.144597  -0.223619  0  2.583967  0
