# generated using pymatgen
data_CuH24C26Br2N2O5
_symmetry_space_group_name_H-M   'P 1'
_cell_length_a   9.65027177
_cell_length_b   10.74561233
_cell_length_c   13.28695071
_cell_angle_alpha   99.40938956
_cell_angle_beta   101.90169717
_cell_angle_gamma   90.59302488
_symmetry_Int_Tables_number   1
_chemical_formula_structural   CuH24C26Br2N2O5
_chemical_formula_sum   'Cu2 H48 C52 Br4 N4 O10'
_cell_volume   1328.68564323
_cell_formula_units_Z   2
loop_
 _symmetry_equiv_pos_site_id
 _symmetry_equiv_pos_as_xyz
  1  'x, y, z'
loop_
 _atom_site_type_symbol
 _atom_site_label
 _atom_site_symmetry_multiplicity
 _atom_site_fract_x
 _atom_site_fract_y
 _atom_site_fract_z
 _atom_site_occupancy
 _atom_site_hle17_ddec_charge
 _atom_site_hle17_ddec_spin_density
 _atom_site_hle17_ddec_sum_bond_order
 _atom_site_hle17_magmom
 _atom_site_hse06_10hf_ddec_charge
 _atom_site_hse06_10hf_ddec_spin_density
 _atom_site_hse06_10hf_ddec_sum_bond_order
 _atom_site_hse06_10hf_magmom
 _atom_site_hse06_ddec_charge
 _atom_site_hse06_ddec_spin_density
 _atom_site_hse06_ddec_sum_bond_order
 _atom_site_hse06_magmom
 _atom_site_pbe_cm5_charge
 _atom_site_pbe_ddec_charge
 _atom_site_pbe_ddec_spin_density
 _atom_site_pbe_ddec_sum_bond_order
 _atom_site_pbe_magmom
Cu  Cu0  1  0.00000109  0.00000095  0.00000180  1  0.863038  -0.749686  1.829567  -0.523  0.848725  -0.819361  2.200036  -0.635  0.934885  -0.893481  2.136461  -0.719  0.745877  0.795074  -0.765265  2.245411  -0.579
Cu  Cu1  1  0.49999780  0.00000136  0.99999906  1  0.866684  0.749908  1.805354  0.524  0.853147  0.822334  2.174901  0.64  0.941348  0.897163  2.111007  0.725  0.736202  0.79824  0.767659  2.220042  0.583
H  H2  1  0.82914133  0.19603642  0.08239738  1  0.102983  -0.001018  0.944075  -0.002  0.108129  -0.000786  1.011858  -0.002  0.110994  -0.000587  1.008208  -0.001  0.12178  0.105796  -0.000939  1.014646  -0.002
H  H3  1  0.17086195  0.80396734  0.91760544  1  0.102953  -0.001022  0.944052  -0.002  0.108105  -0.000786  1.011859  -0.002  0.110969  -0.000587  1.008205  -0.001  0.121771  0.10578  -0.00094  1.014634  -0.002
H  H4  1  0.84150500  0.34378065  0.24983879  1  0.097459  -0.000472  1.004184  0.0  0.105061  -0.000425  1.069517  0.0  0.10645  -0.000307  1.072458  0.0  0.097391  0.104128  -0.00052  1.067488  -0.001
H  H5  1  0.15849726  0.65622405  0.75016476  1  0.097503  -0.000475  1.004187  0.0  0.105075  -0.000425  1.069542  0.0  0.106464  -0.000307  1.072485  0.0  0.097389  0.104143  -0.00052  1.067512  -0.001
H  H6  1  0.24105802  0.18831904  0.36811891  1  0.096409  -0.000505  0.971837  0.0  0.107306  -0.000467  1.034465  0.0  0.109895  -0.000337  1.034442  0.0  0.09968  0.105405  -0.000583  1.034737  -0.001
H  H7  1  0.75894286  0.81167905  0.63188430  1  0.096402  -0.0005  0.971917  0.0  0.107316  -0.000467  1.034511  0.0  0.109904  -0.000337  1.034487  0.0  0.099671  0.105414  -0.000583  1.034783  -0.001
H  H8  1  0.21366224  0.04854666  0.19568467  1  0.086807  -0.001053  0.94153  -0.002  0.094185  -0.000839  1.005574  -0.001  0.095532  -0.000628  1.004485  -0.001  0.119831  0.093111  -0.001018  1.00636  -0.001
H  H9  1  0.78633546  0.95145142  0.80431806  1  0.086783  -0.001045  0.941489  -0.002  0.094169  -0.000838  1.005538  -0.001  0.095515  -0.000628  1.00445  -0.001  0.119828  0.093093  -0.001019  1.006323  -0.001
H  H10  1  0.15484188  0.40474880  0.45936572  1  0.105112  0.000183  0.957698  0.0  0.127468  5.9e-05  1.019646  0.0  0.128799  6.4e-05  1.019015  0.0  0.090013  0.126315  5.4e-05  1.020453  0.0
H  H11  1  0.84515923  0.59525401  0.54063664  1  0.105001  0.000181  0.957746  0.0  0.127355  5.9e-05  1.019719  0.0  0.128698  6.4e-05  1.019078  0.0  0.089977  0.126198  5.4e-05  1.02054  0.0
H  H12  1  0.02325506  0.30515001  0.48533527  1  0.105533  0.000346  0.977313  0.0  0.121222  0.000131  1.050685  0.0  0.123031  0.000135  1.049893  0.0  0.082241  0.119922  0.000136  1.051266  0.0
H  H13  1  0.97674812  0.69485186  0.51466880  1  0.10553  0.000347  0.977335  0.0  0.121228  0.000131  1.050693  0.0  0.123036  0.000135  1.049907  0.0  0.082275  0.119931  0.000136  1.051273  0.0
H  H14  1  0.97239104  0.43496795  0.42041715  1  0.115271  2e-05  0.952561  0.0  0.13859  -1e-05  1.009751  0.0  0.139671  -4e-06  1.010481  0.0  0.093066  0.13775  -1.3e-05  1.009362  0.0
H  H15  1  0.02760797  0.56503485  0.57958338  1  0.115214  1.7e-05  0.952675  0.0  0.138547  -1e-05  1.009849  0.0  0.139626  -4e-06  1.010582  0.0  0.093063  0.137706  -1.3e-05  1.00946  0.0
H  H16  1  0.21839860  0.63826514  0.43444317  1  0.08803  -0.000112  0.98958  0.0  0.091949  -7.8e-05  1.065216  0.0  0.095494  -4.8e-05  1.063085  0.0  0.087911  0.089361  -0.000114  1.066927  0.0
H  H17  1  0.78160660  0.36173390  0.56555556  1  0.088062  -0.000108  0.989498  0.0  0.091941  -7.8e-05  1.065179  0.0  0.095487  -4.8e-05  1.063051  0.0  0.087909  0.089351  -0.000114  1.066887  0.0
H  H18  1  0.29451766  0.45317438  0.32242934  1  0.079862  3.4e-05  0.984177  0.0  0.085434  -4e-06  1.056726  0.0  0.088355  -3e-06  1.05519  0.0  0.088703  0.083335  -3e-06  1.057707  0.0
H  H19  1  0.70548660  0.54682655  0.67756574  1  0.079976  4e-05  0.984031  0.0  0.085493  -4e-06  1.056643  0.0  0.088445  -3e-06  1.055078  0.0  0.088697  0.083391  -3e-06  1.057623  0.0
H  H20  1  0.23625209  0.43376202  0.13077075  1  0.108683  -3.2e-05  0.954439  0.0  0.116237  -5e-06  1.01622  0.0  0.119967  -2e-06  1.01388  0.0  0.102396  0.113404  -7e-06  1.018236  0.0
H  H21  1  0.76375000  0.56623795  0.86922386  1  0.108612  -3.1e-05  0.95451  0.0  0.116215  -5e-06  1.01624  0.0  0.119944  -2e-06  1.0139  0.0  0.102394  0.113381  -7e-06  1.018254  0.0
H  H22  1  0.10406594  0.60517341  0.04845079  1  0.098355  -5e-06  0.940732  0.0  0.110352  -6.2e-05  0.997622  0.0  0.113184  -3.2e-05  0.996634  0.0  0.105726  0.108265  -7.9e-05  0.998592  0.0
H  H23  1  0.89593415  0.39482939  0.95154690  1  0.098393  -5e-06  0.940714  0.0  0.110392  -6.2e-05  0.997594  0.0  0.113223  -3.2e-05  0.996607  0.0  0.105758  0.108308  -7.9e-05  0.998567  0.0
H  H24  1  0.70575832  0.06781160  0.20087688  1  0.083544  0.00096  0.950196  0.002  0.090893  0.000769  1.01514  0.001  0.09216  0.000564  1.014252  0.001  0.118425  0.089871  0.000931  1.015773  0.001
H  H25  1  0.29424707  0.93219121  0.79912087  1  0.083552  0.000961  0.950192  0.002  0.090885  0.000769  1.015167  0.001  0.092151  0.000564  1.01428  0.001  0.118404  0.089862  0.000931  1.0158  0.001
H  H26  1  0.74213395  0.01137248  0.37867915  1  0.096738  0.000509  0.966534  0.0  0.103006  0.000483  1.034967  0.0  0.106492  0.000343  1.033773  0.0  0.095724  0.100411  0.000592  1.035988  0.001
H  H27  1  0.25786626  0.98863316  0.62132119  1  0.096749  0.000508  0.96654  0.0  0.103003  0.000483  1.035004  0.0  0.106488  0.000343  1.033809  0.0  0.095714  0.100413  0.000592  1.036024  0.001
H  H28  1  0.36049613  0.77220761  0.27009991  1  0.098299  0.00047  1.005679  0.0  0.105977  0.000415  1.071347  0.0  0.107067  0.000299  1.074951  0.0  0.097305  0.105252  0.000514  1.068796  0.001
H  H29  1  0.63950108  0.22780085  0.72989432  1  0.098396  0.00047  1.005561  0.0  0.106134  0.000415  1.071162  0.0  0.107225  0.000299  1.074761  0.0  0.097382  0.105407  0.000513  1.068611  0.001
H  H30  1  0.33572555  0.84360158  0.09817704  1  0.102354  0.000985  0.942209  0.002  0.107214  0.00075  1.010109  0.002  0.110021  0.000554  1.006503  0.001  0.121555  0.104954  0.000905  1.0128  0.002
H  H31  1  0.66427263  0.15640499  0.90181784  1  0.102225  0.000985  0.942324  0.002  0.107167  0.000751  1.010113  0.002  0.109976  0.000554  1.006502  0.001  0.121523  0.104905  0.000906  1.012803  0.002
H  H32  1  0.58224568  0.92543922  0.50787701  1  0.113765  -0.000273  0.951686  0.0  0.135689  -0.000101  1.012407  0.0  0.136987  -0.000105  1.012476  0.0  0.093866  0.134659  -9.6e-05  1.012604  0.0
H  H33  1  0.41775329  0.07456264  0.49212264  1  0.113722  -0.000279  0.951728  0.0  0.135682  -0.000101  1.012411  0.0  0.13698  -0.000105  1.012481  0.0  0.093851  0.134649  -9.6e-05  1.012615  0.0
H  H34  1  0.67457201  0.79603695  0.45959727  1  0.110267  -0.000323  0.950341  0.0  0.134239  -0.000143  1.009544  0.0  0.135321  -0.000134  1.009354  0.0  0.093737  0.133281  -0.000151  1.010005  0.0
H  H35  1  0.32542809  0.20396586  0.54039967  1  0.110308  -0.000325  0.950308  0.0  0.134285  -0.000142  1.009512  0.0  0.135368  -0.000134  1.009318  0.0  0.093751  0.133329  -0.000151  1.00997  0.0
H  H36  1  0.48770295  0.77945237  0.44764812  1  0.113062  1e-05  0.950076  0.0  0.134365  2.5e-05  1.011087  0.0  0.135936  1.8e-05  1.010666  0.0  0.088225  0.13316  3.1e-05  1.011501  0.0
H  H37  1  0.51229291  0.22055042  0.55234892  1  0.113103  7e-06  0.950031  0.0  0.1344  2.6e-05  1.011053  0.0  0.135977  1.8e-05  1.010625  0.0  0.088214  0.133175  3.1e-05  1.011483  0.0
H  H38  1  0.70467373  0.59312358  0.38430441  1  0.088036  0.000116  0.981907  0.0  0.098162  7.5e-05  1.046557  0.0  0.101028  4.7e-05  1.045218  0.0  0.09487  0.096102  0.000108  1.047581  0.0
H  H39  1  0.29531648  0.40687259  0.61569541  1  0.088098  0.000112  0.981805  0.0  0.098201  7.5e-05  1.046493  0.0  0.101067  4.7e-05  1.045151  0.0  0.094859  0.096139  0.000108  1.047521  0.0
H  H40  1  0.78352319  0.71333496  0.25738240  1  0.09972  -5.1e-05  0.971613  0.0  0.103113  3e-06  1.043866  0.0  0.106621  1e-06  1.041903  0.0  0.096597  0.100558  1.1e-05  1.045237  0.0
H  H41  1  0.21647340  0.28666218  0.74262078  1  0.09974  -4.5e-05  0.971664  0.0  0.1031  3e-06  1.04393  0.0  0.106603  2e-06  1.041981  0.0  0.096644  0.100534  1.1e-05  1.04531  0.0
H  H42  1  0.73706476  0.62139802  0.07037409  1  0.099849  3e-05  0.943049  0.0  0.11171  -5e-06  0.998604  0.0  0.11442  -6e-06  0.997847  0.0  0.103424  0.109635  -0.0  0.999365  0.0
H  H43  1  0.26293589  0.37859534  0.92962847  1  0.099859  2.5e-05  0.943041  0.0  0.111706  -6e-06  0.998622  0.0  0.114424  -6e-06  0.997845  0.0  0.103391  0.109631  -0.0  0.999388  0.0
H  H44  1  0.61020913  0.40963290  0.00762226  1  0.099019  -1.3e-05  0.944882  0.0  0.110066  4.5e-05  1.003991  0.0  0.112669  2.1e-05  1.003515  0.0  0.105571  0.108071  6.2e-05  1.004664  0.0
H  H45  1  0.38978843  0.59036234  0.99238007  1  0.099025  -1.1e-05  0.944813  0.0  0.110074  4.5e-05  1.003927  0.0  0.112677  2.1e-05  1.003451  0.0  0.105561  0.108078  6.2e-05  1.004603  0.0
H  H46  1  0.20828513  0.08275905  0.93465677  1  0.400186  0.000113  0.920021  0.0  0.371308  8.2e-05  0.984054  0.0  0.383102  9.5e-05  0.96696  0.0  0.275873  0.36319  6.1e-05  0.995882  0.0
H  H47  1  0.79171265  0.91723997  0.06534083  1  0.400131  0.000114  0.920066  0.0  0.37125  8.2e-05  0.984111  0.0  0.383044  9.5e-05  0.967016  0.0  0.27584  0.36313  6.1e-05  0.995941  0.0
H  H48  1  0.28996575  0.12085169  0.05156004  1  0.398136  -0.000101  0.923238  0.0  0.369802  -7.9e-05  0.986237  0.0  0.381653  -9.1e-05  0.969084  0.0  0.274669  0.361634  -5.7e-05  0.998139  0.0
H  H49  1  0.71002903  0.87915110  0.94843909  1  0.398168  -0.000101  0.923196  0.0  0.369777  -7.9e-05  0.986302  0.0  0.381629  -9.1e-05  0.969149  0.0  0.27464  0.361609  -5.7e-05  0.998203  0.0
C  C50  1  0.91869866  0.19836339  0.14778184  1  0.141863  0.007457  3.671783  0.008  0.113681  0.000933  3.923856  0.002  0.124242  0.001945  3.940055  0.003  0.048334  0.106495  0.000146  3.913845  0.001
C  C51  1  0.08130254  0.80164131  0.85222229  1  0.141823  0.007484  3.671694  0.008  0.11357  0.000932  3.923823  0.002  0.124135  0.00195  3.940022  0.003  0.048244  0.10638  0.000146  3.9138  0.001
C  C52  1  0.92595695  0.27902428  0.24181714  1  -0.182531  -0.010176  3.703862  -0.011  -0.195332  -0.003749  3.938871  -0.004  -0.204851  -0.003436  3.961031  -0.004  -0.090032  -0.189399  -0.003985  3.924257  -0.005
C  C53  1  0.07404415  0.72097852  0.75818748  1  -0.182491  -0.010191  3.703787  -0.011  -0.195266  -0.003747  3.938793  -0.004  -0.204788  -0.003442  3.960953  -0.004  -0.089974  -0.189335  -0.003986  3.924179  -0.005
C  C54  1  0.04103573  0.27689530  0.32493112  1  0.198986  0.008918  3.747947  0.009  0.222257  0.002708  3.976952  0.003  0.228766  0.002895  3.99868  0.003  0.01024  0.21802  0.002576  3.962096  0.003
C  C55  1  0.95896529  0.72310562  0.67507174  1  0.198871  0.008936  3.748085  0.009  0.222197  0.002706  3.977007  0.003  0.228713  0.002901  3.998721  0.003  0.010234  0.217954  0.002576  3.962154  0.003
C  C56  1  0.14702933  0.19305026  0.30766569  1  -0.185134  -0.010051  3.720725  -0.01  -0.203384  -0.003649  3.966364  -0.004  -0.21247  -0.003418  3.986483  -0.004  -0.090479  -0.197573  -0.003829  3.952744  -0.004
C  C57  1  0.85297168  0.80695066  0.69233867  1  -0.185173  -0.010075  3.720939  -0.01  -0.203454  -0.003646  3.966594  -0.004  -0.212526  -0.003425  3.986683  -0.004  -0.090488  -0.197649  -0.003829  3.952989  -0.004
C  C58  1  0.13357015  0.11510024  0.21178748  1  0.150574  0.0073  3.695163  0.008  0.120111  0.000757  3.952834  0.002  0.131423  0.001775  3.969453  0.003  0.049977  0.112507  -9e-06  3.942176  0.001
C  C59  1  0.86643083  0.88489973  0.78821449  1  0.150761  0.007295  3.695135  0.008  0.120248  0.000753  3.952805  0.002  0.131561  0.001782  3.969428  0.003  0.050032  0.112643  -9e-06  3.94214  0.001
C  C60  1  0.04834021  0.36030929  0.42791720  1  -0.345562  -0.000566  3.723947  -0.001  -0.424782  -9.5e-05  3.955128  0.0  -0.427572  -4.5e-05  3.96305  0.0  -0.240379  -0.422626  -0.000119  3.949831  0.0
C  C61  1  0.95166302  0.63969352  0.57208550  1  -0.345317  -0.00056  3.724039  -0.001  -0.42458  -9.5e-05  3.95519  0.0  -0.427383  -4.5e-05  3.963106  0.0  -0.240353  -0.422424  -0.000119  3.949893  0.0
C  C62  1  0.00381016  0.81403557  0.14035695  1  0.643821  0.003545  3.908492  0.007  0.597725  -0.000243  4.213285  0.002  0.634974  0.000234  4.204887  0.002  0.206608  0.572415  -0.000657  4.218083  0.002
C  C63  1  0.99618990  0.18596723  0.85964526  1  0.643697  0.003542  3.908564  0.007  0.597712  -0.000243  4.213206  0.002  0.63496  0.000234  4.204811  0.002  0.206608  0.572407  -0.000657  4.217999  0.002
C  C64  1  0.08177415  0.71420025  0.19431332  1  -0.090982  -0.008951  3.735723  -0.009  -0.076761  -0.004975  3.972503  -0.006  -0.082413  -0.003401  3.992129  -0.004  -0.018163  -0.072697  -0.006388  3.95899  -0.007
C  C65  1  0.91821948  0.28580065  0.80568538  1  -0.090989  -0.008923  3.735956  -0.009  -0.07681  -0.004976  3.972748  -0.006  -0.082462  -0.003395  3.992372  -0.004  -0.018179  -0.07275  -0.006388  3.959238  -0.007
C  C66  1  0.11449400  0.72128030  0.30282886  1  0.075764  -0.001663  3.690231  -0.002  0.084887  -0.001314  3.953773  -0.001  0.088324  -0.000839  3.975452  -0.001  -0.013015  0.082286  -0.001725  3.939102  -0.002
C  C67  1  0.88550362  0.27871589  0.69717285  1  0.075854  -0.001692  3.690314  -0.002  0.084955  -0.001313  3.953893  -0.001  0.088393  -0.000845  3.975568  -0.001  -0.012948  0.082356  -0.001725  3.939218  -0.002
C  C68  1  0.19094646  0.62875446  0.34966728  1  -0.144945  -8.6e-05  3.796409  0.0  -0.162539  -0.000137  4.046183  0.0  -0.166169  -3.4e-05  4.067636  0.0  -0.107938  -0.159952  -0.000271  4.031605  0.0
C  C69  1  0.80905322  0.37124080  0.65033613  1  -0.145069  -6.8e-05  3.79664  0.0  -0.162616  -0.000139  4.046427  0.0  -0.166252  -2.9e-05  4.067899  0.0  -0.10797  -0.160029  -0.000271  4.03184  0.0
C  C70  1  0.23376763  0.52550881  0.28673242  1  -0.043264  -0.001594  3.755364  -0.001  -0.057305  -0.00069  4.004993  -0.001  -0.058488  -0.000409  4.026611  0.0  -0.090192  -0.056355  -0.000942  3.989962  -0.001
C  C71  1  0.76623451  0.47449211  0.71326308  1  -0.043397  -0.001629  3.755388  -0.001  -0.057389  -0.000689  4.005017  -0.001  -0.058601  -0.000413  4.02662  0.0  -0.090275  -0.056439  -0.000942  3.989976  -0.001
C  C72  1  0.20138400  0.51518192  0.17816795  1  -0.067747  0.000835  3.742093  0.001  -0.083442  0.000188  3.994526  0.0  -0.084905  0.000188  4.014132  0.0  -0.090953  -0.082225  0.00012  3.981262  0.0
C  C73  1  0.79861698  0.48481710  0.82182713  1  -0.067709  0.000852  3.74198  0.001  -0.08345  0.000188  3.994418  0.0  -0.084912  0.000192  4.014031  0.0  -0.090915  -0.082232  0.00012  3.98115  0.0
C  C74  1  0.12732696  0.60966624  0.13294682  1  -0.070784  -0.000911  3.728107  -0.001  -0.089647  -0.000443  3.972264  0.0  -0.09025  -0.000247  3.99148  0.0  -0.081891  -0.089392  -0.000692  3.959384  0.0
C  C75  1  0.87267194  0.39033372  0.86704882  1  -0.070729  -0.000928  3.727986  -0.001  -0.089588  -0.000443  3.972164  0.0  -0.090192  -0.000252  3.991377  0.0  -0.081903  -0.089338  -0.000692  3.959293  0.0
C  C76  1  0.63122133  0.00361256  0.22024751  1  0.150485  -0.007116  3.69166  -0.007  0.121041  -0.000686  3.947612  -0.001  0.132052  -0.001713  3.964832  -0.003  0.049095  0.113809  8.7e-05  3.936345  -0.001
C  C77  1  0.36877870  0.99638930  0.77975155  1  0.150527  -0.007143  3.69176  -0.007  0.121063  -0.000684  3.947723  -0.001  0.132074  -0.001718  3.96494  -0.003  0.049101  0.113829  8.7e-05  3.936456  -0.001
C  C78  1  0.65042752  0.97127106  0.31898604  1  -0.181791  0.010129  3.714298  0.01  -0.198937  0.003687  3.958588  0.004  -0.208173  0.003424  3.978856  0.004  -0.089617  -0.192885  0.003868  3.9446  0.004
C  C79  1  0.34957261  0.02873268  0.68101329  1  -0.181758  0.010159  3.714254  0.01  -0.198927  0.003685  3.958513  0.004  -0.20814  0.003431  3.978799  0.004  -0.089613  -0.192881  0.003868  3.944527  0.004
C  C80  1  0.55368909  0.88597258  0.33995085  1  0.190475  -0.008877  3.744683  -0.009  0.215348  -0.002722  3.973504  -0.003  0.221381  -0.002885  3.995764  -0.003  0.008824  0.2114  -0.002581  3.958309  -0.003
C  C81  1  0.44631332  0.11403495  0.66005007  1  0.190359  -0.008911  3.744593  -0.009  0.215349  -0.002719  3.973325  -0.003  0.221314  -0.002892  3.995677  -0.003  0.008829  0.211394  -0.002581  3.958134  -0.003
C  C82  1  0.43901658  0.83911873  0.25886175  1  -0.184637  0.010128  3.706875  0.01  -0.19916  0.003752  3.943785  0.004  -0.208742  0.003411  3.966651  0.004  -0.090459  -0.193121  0.004  3.928485  0.005
C  C83  1  0.56098668  0.16088408  0.74113719  1  -0.184755  0.010164  3.706888  0.011  -0.199394  0.003749  3.943799  0.004  -0.208956  0.003418  3.966685  0.004  -0.090577  -0.193349  0.004  3.928489  0.005
C  C84  1  0.42508388  0.87678980  0.16216485  1  0.142527  -0.007357  3.669618  -0.008  0.11521  -0.000897  3.92273  -0.002  0.125701  -0.001921  3.939414  -0.003  0.049994  0.108215  -0.000135  3.91222  -0.001
C  C85  1  0.57491196  0.12321299  0.83783370  1  0.142774  -0.007388  3.66967  -0.008  0.115372  -0.000896  3.922748  -0.002  0.125863  -0.001927  3.939423  -0.003  0.050095  0.108376  -0.000135  3.912236  -0.001
C  C86  1  0.57443163  0.84445886  0.44432378  1  -0.343851  0.000556  3.71053  0.001  -0.424758  6.2e-05  3.940743  0.0  -0.427056  2e-05  3.948249  0.0  -0.237948  -0.423009  9.4e-05  3.935884  0.0
C  C87  1  0.42556328  0.15554582  0.55567110  1  -0.343863  0.000575  3.71034  0.001  -0.424805  6.2e-05  3.940412  0.0  -0.427085  2e-05  3.947927  0.0  -0.237926  -0.423037  9.4e-05  3.935574  0.0
C  C88  1  0.49940167  0.26076300  0.11513633  1  0.649613  -0.003404  3.914611  -0.006  0.602024  0.000379  4.222423  -0.002  0.639589  -0.0001  4.21363  -0.002  0.207263  0.576517  0.000791  4.22748  -0.002
C  C89  1  0.50059064  0.73923223  0.88485992  1  0.649785  -0.003411  3.914468  -0.006  0.602099  0.000378  4.222422  -0.002  0.639665  -0.0001  4.213626  -0.002  0.207261  0.57659  0.00079  4.227473  -0.002
C  C90  1  0.58003987  0.38541272  0.15887029  1  -0.094021  0.009103  3.742744  0.01  -0.07836  0.004936  3.977184  0.006  -0.084335  0.003319  3.996638  0.004  -0.018052  -0.074153  0.006408  3.963965  0.007
C  C91  1  0.41995988  0.61458347  0.84113024  1  -0.094124  0.009124  3.742687  0.01  -0.078442  0.004935  3.977176  0.006  -0.084416  0.003321  3.996625  0.004  -0.018069  -0.074234  0.006406  3.963952  0.007
C  C92  1  0.60892142  0.43872322  0.26478613  1  0.072535  0.002103  3.701254  0.002  0.081118  0.001379  3.965651  0.001  0.084838  0.000908  3.987125  0.001  -0.014779  0.078262  0.001701  3.951291  0.002
C  C93  1  0.39108007  0.56126543  0.73521518  1  0.072572  0.002082  3.701126  0.002  0.081151  0.001381  3.965532  0.001  0.084871  0.000903  3.987003  0.001  -0.014778  0.078298  0.001701  3.951166  0.002
C  C94  1  0.68223646  0.55529000  0.30120652  1  -0.137393  -0.00021  3.79294  0.0  -0.156984  8.2e-05  4.043849  0.0  -0.160733  -1.5e-05  4.065662  0.0  -0.105502  -0.154288  0.000229  4.028841  0.0
C  C95  1  0.31775779  0.44470241  0.69879568  1  -0.137674  -0.000182  3.793095  0.0  -0.157259  8.2e-05  4.044024  0.0  -0.16101  -1e-05  4.065838  0.0  -0.105623  -0.154565  0.000229  4.029014  0.0
C  C96  1  0.72718902  0.62156037  0.23081525  1  -0.040886  0.002165  3.740024  0.002  -0.056976  0.000795  3.994205  0.001  -0.057529  0.000498  4.014885  0.001  -0.088051  -0.056599  0.001084  3.980111  0.001
C  C97  1  0.27280748  0.37843487  0.76918692  1  -0.04059  0.002138  3.74011  0.002  -0.056618  0.000796  3.994227  0.001  -0.057169  0.000494  4.014903  0.0  -0.087947  -0.056236  0.001084  3.980139  0.001
C  C98  1  0.70115329  0.56953229  0.12490732  1  -0.062649  -0.001101  3.744638  -0.001  -0.08015  -0.00028  3.998907  0.0  -0.081804  -0.000266  4.01902  0.0  -0.08907  -0.078801  -0.000187  3.985161  0.0
C  C99  1  0.29884960  0.43046391  0.87509746  1  -0.062818  -0.001082  3.744701  -0.001  -0.080325  -0.000281  3.998959  0.0  -0.081979  -0.000261  4.019078  0.0  -0.089099  -0.078979  -0.000187  3.985214  0.0
C  C100  1  0.62974257  0.45216309  0.08988763  1  -0.074111  0.001019  3.737764  0.001  -0.093188  0.000429  3.983612  0.0  -0.093799  0.000252  4.003378  0.0  -0.083159  -0.092594  0.000752  3.97025  0.001
C  C101  1  0.37026021  0.54783028  0.91011375  1  -0.073983  0.001002  3.737631  0.001  -0.093061  0.00043  3.983492  0.0  -0.093676  0.000248  4.003261  0.0  -0.083094  -0.09247  0.000752  3.970131  0.001
Br  Br102  1  0.56304825  0.34648265  0.36660219  1  -0.080385  0.000238  1.265181  0.0  -0.0704  0.000274  1.514184  0.0  -0.07419  0.000135  1.506467  0.0  0.043073  -0.067306  0.000387  1.519311  0.0
Br  Br103  1  0.43697303  0.65349850  0.63339666  1  -0.080412  0.000235  1.265162  0.0  -0.070414  0.000274  1.514168  0.0  -0.074208  0.000135  1.506456  0.0  0.043084  -0.067324  0.000387  1.519297  0.0
Br  Br104  1  0.06822967  0.86627456  0.39314280  1  -0.081653  -0.000161  1.24364  0.0  -0.06884  -0.000212  1.481048  0.0  -0.072414  -9.9e-05  1.473939  0.0  0.034676  -0.06564  -0.000333  1.485961  0.0
Br  Br105  1  0.93177342  0.13372447  0.60685486  1  -0.081628  -0.000159  1.243573  0.0  -0.068806  -0.000212  1.480991  0.0  -0.07238  -0.0001  1.473878  0.0  0.0347  -0.065614  -0.000333  1.4859  0.0
N  N106  1  0.02079882  0.11712232  0.13356342  1  -0.295753  -0.079412  3.346764  -0.097  -0.245843  -0.052309  3.630768  -0.068  -0.277095  -0.043591  3.65221  -0.06  -0.357193  -0.227121  -0.056878  3.619106  -0.072
N  N107  1  0.97920216  0.88287765  0.86643930  1  -0.295801  -0.079424  3.346698  -0.097  -0.245797  -0.052307  3.630638  -0.068  -0.277051  -0.043594  3.652086  -0.06  -0.357173  -0.227075  -0.05688  3.618971  -0.072
N  N108  1  0.52058456  0.95707166  0.14299778  1  -0.294914  0.079411  3.318654  0.097  -0.246432  0.05254  3.602658  0.069  -0.278168  0.04347  3.624758  0.06  -0.350535  -0.227403  0.057303  3.590405  0.072
N  N109  1  0.47941550  0.04293019  0.85699827  1  -0.295084  0.079429  3.318914  0.097  -0.246513  0.052538  3.602865  0.069  -0.278249  0.043473  3.624966  0.06  -0.350557  -0.227485  0.057304  3.590609  0.072
O  O110  1  0.06867921  0.85565211  0.07643281  1  -0.6004  -0.088371  2.078553  -0.115  -0.575685  -0.055517  2.358788  -0.08  -0.618224  -0.042774  2.353138  -0.065  -0.315577  -0.546278  -0.06463  2.36212  -0.089
O  O111  1  0.93132300  0.14435164  0.92357135  1  -0.600319  -0.088376  2.078605  -0.115  -0.575698  -0.055517  2.358845  -0.08  -0.618239  -0.042771  2.353196  -0.065  -0.315598  -0.54629  -0.064631  2.362169  -0.089
O  O112  1  0.56667407  0.18104033  0.06234562  1  -0.601217  0.087426  2.086379  0.114  -0.57541  0.053962  2.368771  0.078  -0.61833  0.041216  2.362757  0.063  -0.315187  -0.546004  0.063088  2.372434  0.087
O  O113  1  0.43331616  0.81895584  0.93765194  1  -0.601373  0.087423  2.086148  0.114  -0.575466  0.053962  2.36855  0.078  -0.618384  0.041212  2.36253  0.063  -0.315195  -0.546065  0.063092  2.372217  0.087
O  O114  1  0.88600077  0.84622178  0.15966326  1  -0.599923  0.000494  1.989686  0.0  -0.551695  6.8e-05  2.212628  0.0  -0.578464  0.000636  2.206075  0.0  -0.307061  -0.53278  -0.000454  2.216188  -0.001
O  O115  1  0.11399581  0.15377441  0.84033528  1  -0.599941  0.000497  1.989566  0.0  -0.551741  6.7e-05  2.212468  0.0  -0.578508  0.000637  2.205912  0.0  -0.307079  -0.532815  -0.000454  2.215995  -0.001
O  O116  1  0.37673263  0.24650219  0.13100451  1  -0.599482  -0.000395  1.972337  0.0  -0.552891  -2.4e-05  2.1929  0.001  -0.579358  -0.000594  2.185095  0.0  -0.308932  -0.534141  0.000472  2.197488  0.001
O  O117  1  0.62326089  0.75349682  0.86899619  1  -0.599527  -0.000398  1.972268  0.0  -0.552885  -2.5e-05  2.192873  0.001  -0.579353  -0.000592  2.185068  0.0  -0.308932  -0.534136  0.000472  2.197457  0.001
O  O118  1  0.25090006  0.04541631  0.99763474  1  -0.864923  -0.000342  1.925441  0.0  -0.836905  -0.000306  2.13742  0.0  -0.858715  -0.000243  2.098786  0.0  -0.60353  -0.821776  -0.000311  2.165398  0.0
O  O119  1  0.74909993  0.95458460  0.00236344  1  -0.864913  -0.000342  1.925362  0.0  -0.836862  -0.000307  2.137343  0.0  -0.858672  -0.000242  2.09871  0.0  -0.603477  -0.821728  -0.000311  2.165321  0.0
