# generated using pymatgen
data_SmB2H24(C4O)2
_symmetry_space_group_name_H-M   'P 1'
_cell_length_a   3.96502426
_cell_length_b   7.91509332
_cell_length_c   18.66468918
_cell_angle_alpha   90.00180459
_cell_angle_beta   87.90387574
_cell_angle_gamma   89.99816408
_symmetry_Int_Tables_number   1
_chemical_formula_structural   SmB2H24(C4O)2
_chemical_formula_sum   'Sm2 B4 H48 C16 O4'
_cell_volume   585.37201165
_cell_formula_units_Z   2
loop_
 _symmetry_equiv_pos_site_id
 _symmetry_equiv_pos_as_xyz
  1  'x, y, z'
loop_
 _atom_site_type_symbol
 _atom_site_label
 _atom_site_symmetry_multiplicity
 _atom_site_fract_x
 _atom_site_fract_y
 _atom_site_fract_z
 _atom_site_occupancy
 _atom_site_pbe_bader_spin_density
 _atom_site_pbe_cm5_charge
 _atom_site_pbe_ddec_charge
 _atom_site_pbe_ddec_spin_density
 _atom_site_pbe_ddec_sum_bond_order
 _atom_site_pbe_magmom
Sm  Sm0  1  0.00000329  0.99999579  0.00000049  1  0  0.987598  1.369115  0  2.442378  0
Sm  Sm1  1  0.49999492  0.50000476  0.50000354  1  0  0.986992  1.369335  0  2.440501  0
B  B2  1  0.48050256  0.19602821  0.07032481  1  0  -0.682788  -0.399663  0  4.037188  0
B  B3  1  0.01947878  0.69611343  0.42964935  1  0  -0.682763  -0.399805  0  4.037431  0
B  B4  1  0.51950314  0.80396741  0.92967363  1  0  -0.682816  -0.399756  0  4.037211  0
B  B5  1  0.98050903  0.30388598  0.57035184  1  0  -0.682731  -0.399818  0  4.037445  0
H  H6  1  0.13290866  0.43265360  0.94152312  1  0  0.113022  0.082819  0  0.990252  0
H  H7  1  0.36704371  0.93272800  0.55847402  1  0  0.112978  0.082811  0  0.98973  0
H  H8  1  0.86711510  0.56735592  0.05847042  1  0  0.113011  0.08275  0  0.990202  0
H  H9  1  0.63294139  0.06727773  0.44152932  1  0  0.112915  0.082808  0  0.98975  0
H  H10  1  0.69995470  0.41009164  0.92014385  1  0  0.106384  0.079848  0  0.991625  0
H  H11  1  0.79999756  0.91012565  0.57987689  1  0  0.106337  0.07964  0  0.991988  0
H  H12  1  0.30006883  0.58990778  0.07985237  1  0  0.10638  0.079824  0  0.991615  0
H  H13  1  0.19999250  0.08989019  0.42012750  1  0  0.106354  0.079761  0  0.991943  0
H  H14  1  0.89556766  0.56415151  0.81605068  1  0  0.100693  0.107929  0  1.004949  0
H  H15  1  0.60422149  0.06417753  0.68394394  1  0  0.10066  0.108027  0  1.004968  0
H  H16  1  0.10444642  0.43582895  0.18393807  1  0  0.100782  0.108267  0  1.004709  0
H  H17  1  0.39573852  0.93583957  0.31605789  1  0  0.100609  0.107983  0  1.00491  0
H  H18  1  0.30575272  0.47696694  0.81860835  1  0  0.09261  0.088701  0  1.028563  0
H  H19  1  0.19420916  0.97703017  0.68138936  1  0  0.092664  0.08877  0  1.028741  0
H  H20  1  0.69426613  0.52301984  0.18138360  1  0  0.0926  0.088658  0  1.028579  0
H  H21  1  0.80575594  0.02297936  0.31861192  1  0  0.092634  0.088722  0  1.028798  0
H  H22  1  0.87610421  0.03506003  0.81734676  1  0  0.108424  0.078346  0  1.004326  0
H  H23  1  0.62381305  0.53511557  0.68267804  1  0  0.108456  0.078124  0  1.004459  0
H  H24  1  0.12393865  0.96492422  0.18265957  1  0  0.108382  0.078269  0  1.004515  0
H  H25  1  0.37615916  0.46491796  0.31732857  1  0  0.108425  0.078093  0  1.004288  0
H  H26  1  0.30079292  0.10928568  0.81237370  1  0  0.101101  0.068246  0  1.011387  0
H  H27  1  0.19910739  0.60937455  0.68763791  1  0  0.101069  0.068061  0  1.011326  0
H  H28  1  0.69923751  0.89070236  0.18763053  1  0  0.101055  0.068191  0  1.011171  0
H  H29  1  0.80086757  0.39063497  0.31236601  1  0  0.10112  0.068141  0  1.011394  0
H  H30  1  0.66323028  0.29859191  0.77135864  1  0  0.0926  0.087522  0  1.028765  0
H  H31  1  0.83659855  0.79865011  0.72866159  1  0  0.092519  0.0874  0  1.028923  0
H  H32  1  0.33680326  0.70137844  0.22863861  1  0  0.092529  0.087386  0  1.028823  0
H  H33  1  0.16338926  0.20136825  0.27133960  1  0  0.092568  0.087355  0  1.028959  0
H  H34  1  0.06171836  0.29894854  0.72550489  1  0  0.101521  0.113848  0  1.004579  0
H  H35  1  0.43818833  0.79900349  0.77448521  1  0  0.101661  0.114009  0  1.005025  0
H  H36  1  0.93830752  0.70102055  0.27449346  1  0  0.101507  0.113786  0  1.004766  0
H  H37  1  0.56179938  0.20101487  0.22551705  1  0  0.101587  0.113835  0  1.004849  0
H  H38  1  0.57690527  0.21762063  0.00707679  1  0  0.035261  -0.129094  0  1.237746  0
H  H39  1  0.92294700  0.71773595  0.49288834  1  0  0.035221  -0.12925  0  1.238026  0
H  H40  1  0.42310294  0.78237500  0.99292163  1  0  0.035276  -0.129071  0  1.237738  0
H  H41  1  0.07704085  0.28226599  0.50711231  1  0  0.035244  -0.129209  0  1.237988  0
H  H42  1  0.57648655  0.30893593  0.10817591  1  0  0.039852  -0.027281  0  1.087748  0
H  H43  1  0.92354915  0.80897945  0.39178279  1  0  0.040029  -0.027129  0  1.087948  0
H  H44  1  0.42351158  0.69106095  0.89182255  1  0  0.039864  -0.027258  0  1.087695  0
H  H45  1  0.07643631  0.19101491  0.60821626  1  0  0.039992  -0.02715  0  1.087983  0
H  H46  1  0.58509892  0.05751308  0.09131615  1  0  0.031565  -0.131398  0  1.237692  0
H  H47  1  0.91494731  0.55757437  0.40866368  1  0  0.031485  -0.131409  0  1.237429  0
H  H48  1  0.41490411  0.94248381  0.90868391  1  0  0.031575  -0.131388  0  1.237689  0
H  H49  1  0.08504536  0.44242251  0.59133963  1  0  0.031481  -0.131416  0  1.237459  0
H  H50  1  0.16856343  0.20005725  0.07590287  1  0  0.022929  -0.100808  0  1.20124  0
H  H51  1  0.33141262  0.70012978  0.42410083  1  0  0.023039  -0.10073  0  1.201301  0
H  H52  1  0.83143983  0.79993964  0.92409450  1  0  0.022914  -0.100803  0  1.201207  0
H  H53  1  0.66857523  0.29986837  0.57589982  1  0  0.023034  -0.100753  0  1.201338  0
C  C54  1  0.96104156  0.38362942  0.90174561  1  0  -0.058357  0.051315  0  3.789946  0
C  C55  1  0.53890332  0.88370536  0.59826461  1  0  -0.058393  0.051501  0  3.789579  0
C  C56  1  0.03897175  0.61638515  0.09825226  1  0  -0.058408  0.051344  0  3.790007  0
C  C57  1  0.46105434  0.11629406  0.40173509  1  0  -0.058307  0.05138  0  3.789719  0
C  C58  1  0.03620345  0.44783251  0.82609876  1  0  -0.166882  -0.190501  0  3.928262  0
C  C59  1  0.46368649  0.94786838  0.67390848  1  0  -0.167095  -0.190849  0  3.929557  0
C  C60  1  0.96383045  0.55214290  0.17389420  1  0  -0.167003  -0.19074  0  3.928112  0
C  C61  1  0.53628627  0.05215883  0.32609170  1  0  -0.166963  -0.190624  0  3.929724  0
C  C62  1  0.03687651  0.14669509  0.82337667  1  0  -0.065455  0.03824  0  3.833838  0
C  C63  1  0.46306232  0.64673748  0.67665621  1  0  -0.065051  0.039483  0  3.833509  0
C  C64  1  0.96317447  0.85329169  0.17662319  1  0  -0.065286  0.038475  0  3.833626  0
C  C65  1  0.53694319  0.35326067  0.32334437  1  0  -0.065098  0.039289  0  3.833916  0
C  C66  1  0.93658224  0.29860403  0.77899030  1  0  -0.170446  -0.20685  0  3.9419  0
C  C67  1  0.56325776  0.79870623  0.72101702  1  0  -0.170573  -0.207045  0  3.94327  0
C  C68  1  0.06342805  0.70137517  0.22101347  1  0  -0.170434  -0.206799  0  3.941893  0
C  C69  1  0.43671162  0.20131214  0.27899335  1  0  -0.170497  -0.206781  0  3.943391  0
O  O70  1  0.00425816  0.19995074  0.89808145  1  0  -0.295787  -0.295749  0  2.544075  0
O  O71  1  0.49566855  0.70003647  0.60196186  1  0  -0.295782  -0.296253  0  2.544153  0
O  O72  1  0.99576767  0.80005752  0.10191745  1  0  -0.29574  -0.295732  0  2.544422  0
O  O73  1  0.50432196  0.29996673  0.39803717  1  0  -0.295851  -0.296291  0  2.544229  0
