# generated using pymatgen
data_CdH12C16N4O5
_symmetry_space_group_name_H-M   'P 1'
_cell_length_a   9.01459869
_cell_length_b   9.94228509
_cell_length_c   11.19624388
_cell_angle_alpha   91.44229369
_cell_angle_beta   98.38138367
_cell_angle_gamma   107.72868652
_symmetry_Int_Tables_number   1
_chemical_formula_structural   CdH12C16N4O5
_chemical_formula_sum   'Cd2 H24 C32 N8 O10'
_cell_volume   943.02776862
_cell_formula_units_Z   2
loop_
 _symmetry_equiv_pos_site_id
 _symmetry_equiv_pos_as_xyz
  1  'x, y, z'
loop_
 _atom_site_type_symbol
 _atom_site_label
 _atom_site_symmetry_multiplicity
 _atom_site_fract_x
 _atom_site_fract_y
 _atom_site_fract_z
 _atom_site_occupancy
 _atom_site_hle17_bader_spin_density
 _atom_site_hle17_ddec_charge
 _atom_site_hle17_ddec_spin_density
 _atom_site_hle17_ddec_sum_bond_order
 _atom_site_hle17_magmom
 _atom_site_hse06_10hf_bader_spin_density
 _atom_site_hse06_10hf_ddec_charge
 _atom_site_hse06_10hf_ddec_spin_density
 _atom_site_hse06_10hf_ddec_sum_bond_order
 _atom_site_hse06_10hf_magmom
 _atom_site_hse06_bader_spin_density
 _atom_site_hse06_ddec_charge
 _atom_site_hse06_ddec_spin_density
 _atom_site_hse06_ddec_sum_bond_order
 _atom_site_hse06_magmom
 _atom_site_pbe_bader_spin_density
 _atom_site_pbe_cm5_charge
 _atom_site_pbe_ddec_charge
 _atom_site_pbe_ddec_spin_density
 _atom_site_pbe_ddec_sum_bond_order
 _atom_site_pbe_magmom
Cd  Cd0  1  0.50920831  0.58461749  0.71739435  1  0  1.124411  0  1.694593  0  0  0.93636  0  2.145941  0  0  0.991687  0  2.09536  0  0  0.769944  0.897776  0  2.180451  0
Cd  Cd1  1  0.49079572  0.41538292  0.28260852  1  0  1.124459  0  1.694546  0  0  0.936417  0  2.145893  0  0  0.991745  0  2.095307  0  0  0.769968  0.897834  0  2.180405  0
H  H2  1  0.72473215  0.23415558  0.53470360  1  0  0.128164  0  0.945294  0  0  0.136903  0  1.007263  0  0  0.140888  0  1.003948  0  0  0.113654  0.134452  0  1.009003  0
H  H3  1  0.27526734  0.76584442  0.46529244  1  0  0.128139  0  0.945308  0  0  0.136904  0  1.007245  0  0  0.140884  0  1.003936  0  0  0.113642  0.134453  0  1.008986  0
H  H4  1  0.48912791  0.86264323  0.81271793  1  0  0.117729  0  0.972192  0  0  0.126977  0  1.03089  0  0  0.130234  0  1.029407  0  0  0.106748  0.125003  0  1.031601  0
H  H5  1  0.51086267  0.13735712  0.18727612  1  0  0.117689  0  0.972286  0  0  0.126955  0  1.030961  0  0  0.130213  0  1.029479  0  0  0.106732  0.124981  0  1.031671  0
H  H6  1  0.90561132  0.64786102  0.73336991  1  0  0.121272  0  0.950377  0  0  0.127135  0  1.018116  0  0  0.131132  0  1.014371  0  0  0.105192  0.124125  0  1.021012  0
H  H7  1  0.09440224  0.35213700  0.26663232  1  0  0.121278  0  0.950432  0  0  0.127123  0  1.018202  0  0  0.13112  0  1.014456  0  0  0.10518  0.124121  0  1.02109  0
H  H8  1  0.52863885  0.65332263  0.02015537  1  0  0.098907  0  0.948828  0  0  0.105149  0  1.01792  0  0  0.108265  0  1.01324  0  0  0.136953  0.102795  0  1.021335  0
H  H9  1  0.47136570  0.34668399  0.97984407  1  0  0.09892  0  0.948894  0  0  0.105138  0  1.018003  0  0  0.108244  0  1.013339  0  0  0.136931  0.102793  0  1.021396  0
H  H10  1  0.74429750  0.72998217  0.48051310  1  0  0.107223  0  0.942335  0  0  0.117232  0  1.002118  0  0  0.120561  0  0.997253  0  0  0.138831  0.114545  0  1.0059  0
H  H11  1  0.25568948  0.27000452  0.51948658  1  0  0.107246  0  0.942328  0  0  0.117236  0  1.002131  0  0  0.120563  0  0.997271  0  0  0.13884  0.114586  0  1.005867  0
H  H12  1  0.46407555  0.10671519  0.82954483  1  0  0.101883  0  0.945167  0  0  0.112905  0  1.003568  0  0  0.116484  0  1.001238  0  0  0.103069  0.110306  0  1.005352  0
H  H13  1  0.53591534  0.89328616  0.17044481  1  0  0.101889  0  0.945122  0  0  0.112877  0  1.003566  0  0  0.116429  0  1.00127  0  0  0.103042  0.110294  0  1.005334  0
H  H14  1  0.10052225  0.70660433  0.18368106  1  0  0.108345  0  0.955205  0  0  0.118062  0  1.014025  0  0  0.12078  0  1.013733  0  0  0.101222  0.116094  0  1.014388  0
H  H15  1  0.89947779  0.29339371  0.81632128  1  0  0.108344  0  0.955241  0  0  0.11802  0  1.014107  0  0  0.120739  0  1.013816  0  0  0.101209  0.116054  0  1.014464  0
H  H16  1  0.27706624  0.69299649  0.03488322  1  0  0.093843  0  0.957755  0  0  0.103438  0  1.023054  0  0  0.106199  0  1.021412  0  0  0.097619  0.101406  0  1.024334  0
H  H17  1  0.72294600  0.30700980  0.96512788  1  0  0.093919  0  0.9578  0  0  0.103535  0  1.023053  0  0  0.106301  0  1.021401  0  0  0.097668  0.101492  0  1.024368  0
H  H18  1  0.79350210  0.98940435  0.43180381  1  0  0.319633  0  0.841942  0  0  0.313897  0  0.880965  0  0  0.320125  0  0.877518  0  0  0.348654  0.309515  0  0.883449  0
H  H19  1  0.20648238  0.01058102  0.56818661  1  0  0.319683  0  0.841845  0  0  0.314002  0  0.8808  0  0  0.320231  0  0.877347  0  0  0.348653  0.309618  0  0.883288  0
H  H20  1  0.75941690  0.68387821  0.18145091  1  0  0.326029  0  0.86079  0  0  0.314179  0  0.908549  0  0  0.321423  0  0.902992  0  0  0.334122  0.308924  0  0.912823  0
H  H21  1  0.24058760  0.31613253  0.81854768  1  0  0.326058  0  0.860762  0  0  0.314166  0  0.908567  0  0  0.321408  0  0.903016  0  0  0.334123  0.308906  0  0.912838  0
H  H22  1  0.30755808  0.53436944  0.48857854  1  0  0.422338  0  0.886399  0  0  0.390323  0  0.952219  0  0  0.401504  0  0.936096  0  0  0.281775  0.382333  0  0.963752  0
H  H23  1  0.69244470  0.46563914  0.51142338  1  0  0.422378  0  0.886331  0  0  0.390328  0  0.9522  0  0  0.40151  0  0.936075  0  0  0.281758  0.382337  0  0.963733  0
H  H24  1  0.22738064  0.56349831  0.60218710  1  0  0.410427  0  0.906965  0  0  0.378066  0  0.972761  0  0  0.390365  0  0.95512  0  0  0.272827  0.369375  0  0.98518  0
H  H25  1  0.77262497  0.43651258  0.39781699  1  0  0.410512  0  0.906856  0  0  0.378154  0  0.972645  0  0  0.390452  0  0.955003  0  0  0.272892  0.369464  0  0.985061  0
C  C26  1  0.59162312  0.18226512  0.68385865  1  0  -0.071862  0  3.785713  0  0  -0.052782  0  4.032974  0  0  -0.061192  0  4.057428  0  0  -0.025814  -0.046981  0  4.015942  0
C  C27  1  0.40837525  0.81773475  0.31613279  1  0  -0.072086  0  3.785604  0  0  -0.05295  0  4.03283  0  0  -0.061358  0  4.057274  0  0  -0.025855  -0.047151  0  4.015807  0
C  C28  1  0.67504519  0.15423220  0.59504798  1  0  -0.148658  0  3.700122  0  0  -0.179924  0  3.954418  0  0  -0.179645  0  3.971511  0  0  -0.083586  -0.179665  0  3.941749  0
C  C29  1  0.32495374  0.84576570  0.40494886  1  0  -0.148507  0  3.700008  0  0  -0.179796  0  3.954259  0  0  -0.179508  0  3.971343  0  0  -0.083536  -0.179539  0  3.94159  0
C  C30  1  0.56265475  0.32181586  0.69598015  1  0  0.635884  0  3.932774  0  0  0.585374  0  4.225863  0  0  0.619102  0  4.221011  0  0  0.196562  0.562307  0  4.228643  0
C  C31  1  0.43734219  0.67818289  0.30401288  1  0  0.636085  0  3.932397  0  0  0.585555  0  4.225494  0  0  0.619281  0  4.220636  0  0  0.196594  0.562488  0  4.228282  0
C  C32  1  0.68492186  0.01718545  0.58497038  1  0  0.148155  0  3.797547  0  0  0.142107  0  4.047511  0  0  0.144721  0  4.070181  0  0  0.092806  0.14013  0  4.032278  0
C  C33  1  0.31507104  0.98281098  0.41502838  1  0  0.148097  0  3.797559  0  0  0.142071  0  4.047563  0  0  0.144685  0  4.070233  0  0  0.092764  0.140096  0  4.032326  0
C  C34  1  0.53978108  0.94299534  0.75307505  1  0  -0.137849  0  3.744216  0  0  -0.155292  0  3.994086  0  0  -0.158846  0  4.014062  0  0  -0.091389  -0.152753  0  3.980059  0
C  C35  1  0.46021173  0.05700932  0.24692112  1  0  -0.137911  0  3.744413  0  0  -0.155338  0  3.99431  0  0  -0.158889  0  4.014276  0  0  -0.091408  -0.152798  0  3.980286  0
C  C36  1  0.94625225  0.66334742  0.83059674  1  0  -0.133529  0  3.717375  0  0  -0.166977  0  3.969667  0  0  -0.166188  0  3.987919  0  0  -0.087306  -0.167199  0  3.957336  0
C  C37  1  0.05375523  0.33663155  0.16940716  1  0  -0.133386  0  3.717347  0  0  -0.166834  0  3.969569  0  0  -0.166049  0  3.987834  0  0  -0.087239  -0.167061  0  3.95723  0
C  C38  1  0.90162829  0.68452260  0.03979498  1  0  0.167014  0  3.776019  0  0  0.157985  0  4.019683  0  0  0.163619  0  4.040877  0  0  0.098255  0.154213  0  4.00553  0
C  C39  1  0.09837556  0.31546852  0.96020953  1  0  0.16708  0  3.775966  0  0  0.158033  0  4.019569  0  0  0.163669  0  4.04076  0  0  0.098193  0.154241  0  4.00543  0
C  C40  1  0.84593231  0.66722975  0.91328511  1  0  0.140942  0  3.826607  0  0  0.142394  0  4.069044  0  0  0.144057  0  4.093715  0  0  0.083096  0.140964  0  4.052531  0
C  C41  1  0.15407663  0.33276795  0.08671923  1  0  0.140748  0  3.826809  0  0  0.142288  0  4.069162  0  0  0.143949  0  4.093828  0  0  0.083116  0.140859  0  4.052658  0
C  C42  1  0.20762353  0.65760054  0.78883436  1  0  0.64574  0  3.921433  0  0  0.597307  0  4.214293  0  0  0.632054  0  4.207068  0  0  0.198048  0.573896  0  4.218187  0
C  C43  1  0.79238698  0.34240765  0.21117298  1  0  0.645931  0  3.921469  0  0  0.597482  0  4.214349  0  0  0.632231  0  4.207121  0  0  0.198119  0.574071  0  4.218244  0
C  C44  1  0.61702339  0.91201087  0.66125270  1  0  0.147519  0  3.828867  0  0  0.145667  0  4.070792  0  0  0.149853  0  4.094964  0  0  0.088337  0.142409  0  4.054735  0
C  C45  1  0.38297058  0.08798982  0.33874981  1  0  0.147552  0  3.828769  0  0  0.145578  0  4.070866  0  0  0.149763  0  4.095039  0  0  0.088307  0.142321  0  4.054804  0
C  C46  1  0.64622879  0.66212461  0.00281965  1  0  0.272146  0  3.666242  0  0  0.206792  0  3.948131  0  0  0.225193  0  3.956449  0  0  0.160755  0.194807  0  3.941973  0
C  C47  1  0.35377700  0.33787386  0.99718163  1  0  0.272173  0  3.666379  0  0  0.206837  0  3.948267  0  0  0.225238  0  3.956584  0  0  0.160773  0.194841  0  3.942109  0
C  C48  1  0.71368080  0.80989104  0.53151606  1  0  0.277437  0  3.637858  0  0  0.213327  0  3.919335  0  0  0.23169  0  3.927663  0  0  0.167566  0.201993  0  3.912985  0
C  C49  1  0.28630353  0.19010266  0.46848070  1  0  0.277474  0  3.637715  0  0  0.213378  0  3.919213  0  0  0.23174  0  3.927537  0  0  0.16762  0.202016  0  3.912845  0
C  C50  1  0.52666340  0.07794741  0.76185210  1  0  -0.080455  0  3.762232  0  0  -0.109851  0  4.020886  0  0  -0.110248  0  4.041847  0  0  -0.093799  -0.109443  0  4.006566  0
C  C51  1  0.47332571  0.92205592  0.23814091  1  0  -0.080324  0  3.762228  0  0  -0.109705  0  4.020864  0  0  -0.11008  0  4.041833  0  0  -0.093691  -0.109311  0  4.006538  0
C  C52  1  0.10195797  0.67329168  0.87671531  1  0  -0.082538  0  3.783425  0  0  -0.061609  0  4.024034  0  0  -0.07156  0  4.049713  0  0  -0.031541  -0.055199  0  4.006618  0
C  C53  1  0.89805346  0.32671143  0.12329476  1  0  -0.082435  0  3.783267  0  0  -0.061521  0  4.023905  0  0  -0.071479  0  4.049591  0  0  -0.031522  -0.055112  0  4.006493  0
C  C54  1  0.05762516  0.69564762  0.08666428  1  0  -0.15486  0  3.763181  0  0  -0.170664  0  4.016185  0  0  -0.175511  0  4.037543  0  0  -0.096286  -0.167608  0  4.00205  0
C  C55  1  0.94237235  0.30434509  0.91334036  1  0  -0.154778  0  3.763047  0  0  -0.170555  0  4.016064  0  0  -0.175403  0  4.037421  0  0  -0.096248  -0.167495  0  4.00193  0
C  C56  1  0.15553879  0.68862377  0.00312870  1  0  -0.064375  0  3.749146  0  0  -0.094104  0  4.008118  0  0  -0.093616  0  4.030716  0  0  -0.092397  -0.094124  0  3.992845  0
C  C57  1  0.84446891  0.31137804  0.99688179  1  0  -0.064622  0  3.749223  0  0  -0.094363  0  4.008193  0  0  -0.093871  0  4.030791  0  0  -0.092486  -0.094387  0  3.992916  0
N  N58  1  0.68562411  0.65294427  0.89412139  1  0  -0.447281  0  3.187134  0  0  -0.377223  0  3.466944  0  0  -0.400477  0  3.483016  0  0  -0.358313  -0.361305  0  3.455351  0
N  N59  1  0.31438343  0.34705227  0.10588097  1  0  -0.447244  0  3.187262  0  0  -0.377232  0  3.467085  0  0  -0.400482  0  3.483151  0  0  -0.358318  -0.361316  0  3.455498  0
N  N60  1  0.63659201  0.78471889  0.62502668  1  0  -0.438695  0  3.158551  0  0  -0.371045  0  3.4437  0  0  -0.393724  0  3.457739  0  0  -0.34815  -0.356016  0  3.43374  0
N  N61  1  0.36340029  0.21527957  0.37497202  1  0  -0.438606  0  3.158315  0  0  -0.37092  0  3.443488  0  0  -0.393604  0  3.457539  0  0  -0.348116  -0.355895  0  3.433546  0
N  N62  1  0.74734964  0.94834971  0.50525465  1  0  -0.342474  0  3.377895  0  0  -0.288944  0  3.619036  0  0  -0.305117  0  3.62951  0  0  -0.373615  -0.277893  0  3.611366  0
N  N63  1  0.25264644  0.05164592  0.49474360  1  0  -0.342617  0  3.377928  0  0  -0.289131  0  3.619043  0  0  -0.305301  0  3.629512  0  0  -0.373654  -0.278082  0  3.611385  0
N  N64  1  0.77154696  0.68261457  0.09257824  1  0  -0.33503  0  3.383607  0  0  -0.275439  0  3.619587  0  0  -0.291855  0  3.628843  0  0  -0.377375  -0.264435  0  3.613179  0
N  N65  1  0.22845851  0.31738697  0.90742303  1  0  -0.335196  0  3.383671  0  0  -0.275552  0  3.619666  0  0  -0.291968  0  3.628915  0  0  -0.377384  -0.264517  0  3.613237  0
O  O66  1  0.45671091  0.33137986  0.75652307  1  0  -0.656426  0  1.978491  0  0  -0.60379  0  2.22775  0  0  -0.631132  0  2.218588  0  0  -0.331448  -0.585028  0  2.2339  0
O  O67  1  0.54328577  0.66861780  0.24346724  1  0  -0.656573  0  1.978321  0  0  -0.603941  0  2.227606  0  0  -0.631284  0  2.218439  0  0  -0.331525  -0.585176  0  2.233758  0
O  O68  1  0.28661259  0.50162541  0.56975137  1  0  -0.852635  0  1.84286  0  0  -0.786641  0  2.029105  0  0  -0.810912  0  1.99391  0  0  -0.597182  -0.769733  0  2.054087  0
O  O69  1  0.71339075  0.49838527  0.43024886  1  0  -0.852742  0  1.842695  0  0  -0.786713  0  2.028971  0  0  -0.810986  0  1.993772  0  0  -0.597225  -0.769799  0  2.05395  0
O  O70  1  0.16187778  0.66411482  0.67691317  1  0  -0.641083  0  1.929182  0  0  -0.589519  0  2.136487  0  0  -0.612914  0  2.124486  0  0  -0.342956  -0.573211  0  2.144214  0
O  O71  1  0.83813706  0.33589266  0.32309381  1  0  -0.641217  0  1.929064  0  0  -0.589656  0  2.136382  0  0  -0.61305  0  2.124379  0  0  -0.343051  -0.573349  0  2.144112  0
O  O72  1  0.64328801  0.42793090  0.64561602  1  0  -0.65373  0  2.020479  0  0  -0.580417  0  2.254383  0  0  -0.609707  0  2.244488  0  0  -0.323032  -0.560353  0  2.260735  0
O  O73  1  0.35670914  0.57207303  0.35437711  1  0  -0.65378  0  2.020383  0  0  -0.580506  0  2.254352  0  0  -0.609792  0  2.244452  0  0  -0.32304  -0.560444  0  2.260709  0
O  O74  1  0.33711848  0.63526516  0.83339632  1  0  -0.673542  0  2.016868  0  0  -0.607325  0  2.273535  0  0  -0.637256  0  2.263342  0  0  -0.341828  -0.586393  0  2.279694  0
O  O75  1  0.66288816  0.36473238  0.16660951  1  0  -0.673646  0  2.017055  0  0  -0.607396  0  2.273662  0  0  -0.637325  0  2.263465  0  0  -0.341841  -0.586463  0  2.279822  0
