# generated using pymatgen
data_NaH6C2(SO2)2
_symmetry_space_group_name_H-M   'P 1'
_cell_length_a   5.54806309
_cell_length_b   11.03311970
_cell_length_c   11.41255248
_cell_angle_alpha   90.00154721
_cell_angle_beta   103.44806891
_cell_angle_gamma   89.99670614
_symmetry_Int_Tables_number   1
_chemical_formula_structural   NaH6C2(SO2)2
_chemical_formula_sum   'Na4 H24 C8 S8 O16'
_cell_volume   679.43566024
_cell_formula_units_Z   4
loop_
 _symmetry_equiv_pos_site_id
 _symmetry_equiv_pos_as_xyz
  1  'x, y, z'
loop_
 _atom_site_type_symbol
 _atom_site_label
 _atom_site_symmetry_multiplicity
 _atom_site_fract_x
 _atom_site_fract_y
 _atom_site_fract_z
 _atom_site_occupancy
 _atom_site_hle17_bader_spin_density
 _atom_site_hle17_ddec_charge
 _atom_site_hle17_ddec_spin_density
 _atom_site_hle17_ddec_sum_bond_order
 _atom_site_hle17_magmom
 _atom_site_hse06_10hf_bader_spin_density
 _atom_site_hse06_10hf_ddec_charge
 _atom_site_hse06_10hf_ddec_spin_density
 _atom_site_hse06_10hf_ddec_sum_bond_order
 _atom_site_hse06_10hf_magmom
 _atom_site_hse06_bader_spin_density
 _atom_site_hse06_ddec_charge
 _atom_site_hse06_ddec_spin_density
 _atom_site_hse06_ddec_sum_bond_order
 _atom_site_hse06_magmom
 _atom_site_pbe_bader_spin_density
 _atom_site_pbe_cm5_charge
 _atom_site_pbe_ddec_charge
 _atom_site_pbe_ddec_spin_density
 _atom_site_pbe_ddec_sum_bond_order
 _atom_site_pbe_magmom
Na  Na0  1  0.22718174  0.09205443  0.24222387  1  0  0.909747  0  0.385179  0  0  0.877453  0  0.528869  0  0  0.885249  0  0.509464  0  0  0.697516  0.871575  0  0.542921  0
Na  Na1  1  0.72717793  0.90794755  0.24220919  1  0  0.909733  0  0.3852  0  0  0.877483  0  0.528798  0  0  0.885268  0  0.509408  0  0  0.697469  0.8716  0  0.542854  0
Na  Na2  1  0.97887720  0.40048208  0.24287725  1  0  0.91242  0  0.379904  0  0  0.879254  0  0.523811  0  0  0.887429  0  0.503803  0  0  0.697715  0.872993  0  0.538401  0
Na  Na3  1  0.47887285  0.59952039  0.24287938  1  0  0.912468  0  0.379891  0  0  0.879305  0  0.523793  0  0  0.887475  0  0.503791  0  0  0.697785  0.873048  0  0.538376  0
H  H4  1  0.17658158  0.47961815  0.95871848  1  0  0.128268  0  0.948599  0  0  0.142109  0  1.007837  0  0  0.144045  0  1.007981  0  0  0.110685  0.140598  0  1.008072  0
H  H5  1  0.67660180  0.52038509  0.95870320  1  0  0.128366  0  0.948545  0  0  0.142206  0  1.007787  0  0  0.144143  0  1.007935  0  0  0.110754  0.140692  0  1.00802  0
H  H6  1  0.35155390  0.39156724  0.87508081  1  0  0.110892  0  0.947816  0  0  0.122141  0  1.010731  0  0  0.124571  0  1.009871  0  0  0.099481  0.120249  0  1.011663  0
H  H7  1  0.85155898  0.60843215  0.87507020  1  0  0.110955  0  0.947718  0  0  0.122159  0  1.010688  0  0  0.12459  0  1.009827  0  0  0.099477  0.120265  0  1.011617  0
H  H8  1  0.89320443  0.36451247  0.79802708  1  0  0.09088  0  0.914817  0  0  0.111298  0  0.965618  0  0  0.112414  0  0.96555  0  0  0.095345  0.110431  0  0.965858  0
H  H9  1  0.39319200  0.63548147  0.79802058  1  0  0.09093  0  0.914715  0  0  0.111353  0  0.965522  0  0  0.112472  0  0.965456  0  0  0.095384  0.110506  0  0.965743  0
H  H10  1  0.86750673  0.30953546  0.94140139  1  0  0.113886  0  0.942292  0  0  0.127739  0  1.006334  0  0  0.129733  0  1.005594  0  0  0.105411  0.12626  0  1.007115  0
H  H11  1  0.36748989  0.69046249  0.94139977  1  0  0.113913  0  0.942357  0  0  0.127742  0  1.006435  0  0  0.129739  0  1.005693  0  0  0.10545  0.126266  0  1.007223  0
H  H12  1  0.15174818  0.29590648  0.60776641  1  0  0.09298  0  0.930586  0  0  0.108769  0  0.987493  0  0  0.110643  0  0.986283  0  0  0.096502  0.107351  0  0.988542  0
H  H13  1  0.65176537  0.70409805  0.60777279  1  0  0.092963  0  0.930435  0  0  0.10877  0  0.987354  0  0  0.110643  0  0.986139  0  0  0.096499  0.107348  0  0.988412  0
H  H14  1  0.37118310  0.19620317  0.56927457  1  0  0.111377  0  0.92015  0  0  0.130127  0  0.973839  0  0  0.131442  0  0.973725  0  0  0.106842  0.129146  0  0.974069  0
H  H15  1  0.87117668  0.80378350  0.56926086  1  0  0.111441  0  0.92009  0  0  0.130176  0  0.973831  0  0  0.131491  0  0.97371  0  0  0.106886  0.129194  0  0.974061  0
H  H16  1  0.87662968  0.10103028  0.60986375  1  0  0.10853  0  0.973673  0  0  0.114975  0  1.048036  0  0  0.117615  0  1.047219  0  0  0.094869  0.113034  0  1.048798  0
H  H17  1  0.37660282  0.89897082  0.60985540  1  0  0.108438  0  0.97368  0  0  0.114846  0  1.048036  0  0  0.117494  0  1.047215  0  0  0.094835  0.112906  0  1.048798  0
H  H18  1  0.06837611  0.03169227  0.52167439  1  0  0.132725  0  0.951965  0  0  0.145933  0  1.00994  0  0  0.148501  0  1.009517  0  0  0.109566  0.144033  0  1.010472  0
H  H19  1  0.56834863  0.96830012  0.52167112  1  0  0.132661  0  0.9521  0  0  0.145835  0  1.010039  0  0  0.148401  0  1.009619  0  0  0.109609  0.14394  0  1.010559  0
H  H20  1  0.75238836  0.11431957  0.08155539  1  0  0.445381  0  0.853506  0  0  0.418053  0  0.910888  0  0  0.42765  0  0.896752  0  0  0.301399  0.411282  0  0.920857  0
H  H21  1  0.25238026  0.88569101  0.08155150  1  0  0.445055  0  0.853927  0  0  0.417865  0  0.911138  0  0  0.427455  0  0.897007  0  0  0.301325  0.411094  0  0.921106  0
H  H22  1  0.93378002  0.02454106  0.03688376  1  0  0.415236  0  0.868235  0  0  0.386521  0  0.940621  0  0  0.394892  0  0.928038  0  0  0.298636  0.380484  0  0.949715  0
H  H23  1  0.43374016  0.97546462  0.03688321  1  0  0.415359  0  0.868026  0  0  0.386642  0  0.940449  0  0  0.395012  0  0.927866  0  0  0.298707  0.380606  0  0.949542  0
H  H24  1  0.43853016  0.39205667  0.42800371  1  0  0.438875  0  0.854674  0  0  0.412606  0  0.910336  0  0  0.421818  0  0.896764  0  0  0.2997  0.406075  0  0.919973  0
H  H25  1  0.93851230  0.60794180  0.42799991  1  0  0.438957  0  0.854551  0  0  0.41267  0  0.910242  0  0  0.421884  0  0.896666  0  0  0.29974  0.406139  0  0.91988  0
H  H26  1  0.35554797  0.52563413  0.44880953  1  0  0.417434  0  0.868223  0  0  0.391961  0  0.927639  0  0  0.401073  0  0.913812  0  0  0.300172  0.385424  0  0.937578  0
H  H27  1  0.85555133  0.47437361  0.44880907  1  0  0.41731  0  0.868425  0  0  0.391867  0  0.927759  0  0  0.400976  0  0.913938  0  0  0.300168  0.385333  0  0.937694  0
C  C28  1  0.22545309  0.38751585  0.93634086  1  0  -0.308228  0  3.650139  0  0  -0.342619  0  3.902484  0  0  -0.348655  0  3.911993  0  0  -0.160406  -0.338456  0  3.896299  0
C  C29  1  0.72545084  0.61248636  0.93632982  1  0  -0.308412  0  3.650478  0  0  -0.342699  0  3.90276  0  0  -0.348745  0  3.912286  0  0  -0.160399  -0.338523  0  3.89657  0
C  C30  1  0.99268949  0.31696398  0.87979591  1  0  -0.118007  0  3.664484  0  0  -0.158629  0  3.938275  0  0  -0.157706  0  3.949505  0  0  -0.15504  -0.15917  0  3.930343  0
C  C31  1  0.49267221  0.68303302  0.87979126  1  0  -0.118156  0  3.664704  0  0  -0.158783  0  3.938565  0  0  -0.157862  0  3.949797  0  0  -0.155155  -0.159316  0  3.930551  0
C  C32  1  0.21208118  0.20095795  0.61135348  1  0  -0.116429  0  3.665121  0  0  -0.153203  0  3.931802  0  0  -0.151977  0  3.942616  0  0  -0.154569  -0.153893  0  3.924148  0
C  C33  1  0.71208112  0.79904414  0.61134711  1  0  -0.116417  0  3.664792  0  0  -0.153312  0  3.931514  0  0  -0.152112  0  3.942399  0  0  -0.154568  -0.154005  0  3.923867  0
C  C34  1  0.00235279  0.11809586  0.54996062  1  0  -0.318204  0  3.668067  0  0  -0.352247  0  3.918838  0  0  -0.358961  0  3.928202  0  0  -0.164753  -0.347631  0  3.912608  0
C  C35  1  0.50233294  0.88189945  0.54995125  1  0  -0.318157  0  3.668163  0  0  -0.351968  0  3.918725  0  0  -0.358669  0  3.928028  0  0  -0.164833  -0.347358  0  3.912501  0
S  S36  1  0.40807782  0.32668521  0.07549602  1  0  1.381838  0  5.593065  0  0  1.293705  0  6.116891  0  0  1.339275  0  6.091877  0  0  0.513317  1.262218  0  6.133332  0
S  S37  1  0.90807406  0.67331940  0.07548335  1  0  1.381849  0  5.593176  0  0  1.293779  0  6.116939  0  0  1.339353  0  6.091933  0  0  0.513306  1.26228  0  6.133396  0
S  S38  1  0.03628476  0.15870615  0.84091110  1  0  -0.039501  0  2.452097  0  0  -0.033975  0  2.841828  0  0  -0.035468  0  2.837994  0  0  0.001779  -0.032797  0  2.844731  0
S  S39  1  0.53624160  0.84128975  0.84090836  1  0  -0.039459  0  2.452002  0  0  -0.033949  0  2.841799  0  0  -0.035446  0  2.837971  0  0  0.001783  -0.032778  0  2.844712  0
S  S40  1  0.33889941  0.15888334  0.76870927  1  0  -0.011822  0  2.410505  0  0  -0.008509  0  2.792882  0  0  -0.011046  0  2.790597  0  0  -0.001747  -0.006529  0  2.794693  0
S  S41  1  0.83886649  0.84110711  0.76871528  1  0  -0.011847  0  2.410457  0  0  -0.008454  0  2.792777  0  0  -0.010992  0  2.790494  0  0  -0.001761  -0.006481  0  2.794594  0
S  S42  1  0.81423897  0.18440410  0.41671693  1  0  1.376726  0  5.595481  0  0  1.289569  0  6.121788  0  0  1.33478  0  6.097522  0  0  0.51184  1.258341  0  6.137707  0
S  S43  1  0.31422917  0.81559489  0.41670430  1  0  1.376679  0  5.59557  0  0  1.2894  0  6.121889  0  0  1.334608  0  6.09764  0  0  0.511743  1.258171  0  6.137806  0
O  O44  1  0.55935917  0.42920248  0.13547876  1  0  -0.788068  0  1.97354  0  0  -0.746986  0  2.249407  0  0  -0.764707  0  2.230218  0  0  -0.459591  -0.734375  0  2.262225  0
O  O45  1  0.05937417  0.57079919  0.13546186  1  0  -0.788153  0  1.97325  0  0  -0.747154  0  2.249255  0  0  -0.764856  0  2.23003  0  0  -0.459656  -0.734539  0  2.262079  0
O  O46  1  0.23222804  0.28199939  0.14398085  1  0  -0.748253  0  1.948144  0  0  -0.703389  0  2.214121  0  0  -0.721224  0  2.196434  0  0  -0.439334  -0.69078  0  2.226058  0
O  O47  1  0.73221395  0.71800812  0.14397031  1  0  -0.748359  0  1.948116  0  0  -0.703554  0  2.214172  0  0  -0.721376  0  2.196452  0  0  -0.439382  -0.690946  0  2.226115  0
O  O48  1  0.56386163  0.23188166  0.04136492  1  0  -0.698784  0  2.029178  0  0  -0.639458  0  2.276691  0  0  -0.66058  0  2.262306  0  0  -0.329705  -0.624697  0  2.286345  0
O  O49  1  0.06384113  0.76811834  0.04135791  1  0  -0.698483  0  2.029339  0  0  -0.639242  0  2.276854  0  0  -0.660368  0  2.262469  0  0  -0.329595  -0.624488  0  2.286516  0
O  O50  1  0.98048486  0.21197985  0.33684657  1  0  -0.76042  0  1.958252  0  0  -0.71501  0  2.226246  0  0  -0.733213  0  2.208753  0  0  -0.460125  -0.702159  0  2.23812  0
O  O51  1  0.48046876  0.78800854  0.33682946  1  0  -0.760377  0  1.95846  0  0  -0.714946  0  2.22652  0  0  -0.733123  0  2.208969  0  0  -0.460053  -0.702079  0  2.238358  0
O  O52  1  0.62769907  0.09157775  0.36552158  1  0  -0.757873  0  1.929881  0  0  -0.714181  0  2.194418  0  0  -0.732013  0  2.176509  0  0  -0.425748  -0.701544  0  2.206397  0
O  O53  1  0.12767813  0.90842409  0.36551593  1  0  -0.757883  0  1.929791  0  0  -0.714182  0  2.194361  0  0  -0.732012  0  2.176459  0  0  -0.425752  -0.701558  0  2.206367  0
O  O54  1  0.70631003  0.29492718  0.45659489  1  0  -0.707841  0  1.946564  0  0  -0.647109  0  2.182247  0  0  -0.668225  0  2.166351  0  0  -0.336333  -0.632232  0  2.19286  0
O  O55  1  0.20631417  0.70507622  0.45658433  1  0  -0.707858  0  1.946478  0  0  -0.647068  0  2.182184  0  0  -0.668187  0  2.166287  0  0  -0.336312  -0.632193  0  2.192799  0
O  O56  1  0.84967860  0.03867195  0.10174958  1  0  -0.914481  0  1.808107  0  0  -0.87662  0  1.992387  0  0  -0.891763  0  1.962002  0  0  -0.693994  -0.86585  0  2.01385  0
O  O57  1  0.34965367  0.96133696  0.10175225  1  0  -0.914284  0  1.80838  0  0  -0.876545  0  1.992431  0  0  -0.891681  0  1.962065  0  0  -0.693949  -0.865776  0  2.013888  0
O  O58  1  0.29692168  0.44853598  0.41063813  1  0  -0.899297  0  1.779073  0  0  -0.860297  0  1.944721  0  0  -0.875622  0  1.914143  0  0  -0.659462  -0.849404  0  1.966283  0
O  O59  1  0.79690387  0.55146485  0.41063867  1  0  -0.899218  0  1.779218  0  0  -0.860221  0  1.94487  0  0  -0.875549  0  1.914293  0  0  -0.659476  -0.849325  0  1.966419  0
