# generated using pymatgen
data_CdH11C12N6Cl
_symmetry_space_group_name_H-M   'P 1'
_cell_length_a   8.53779601
_cell_length_b   8.52667459
_cell_length_c   10.48105088
_cell_angle_alpha   88.04751380
_cell_angle_beta   78.81212001
_cell_angle_gamma   67.74556521
_symmetry_Int_Tables_number   1
_chemical_formula_structural   CdH11C12N6Cl
_chemical_formula_sum   'Cd2 H22 C24 N12 Cl2'
_cell_volume   692.10144232
_cell_formula_units_Z   2
loop_
 _symmetry_equiv_pos_site_id
 _symmetry_equiv_pos_as_xyz
  1  'x, y, z'
loop_
 _atom_site_type_symbol
 _atom_site_label
 _atom_site_symmetry_multiplicity
 _atom_site_fract_x
 _atom_site_fract_y
 _atom_site_fract_z
 _atom_site_occupancy
 _atom_site_hle17_bader_spin_density
 _atom_site_hle17_ddec_charge
 _atom_site_hle17_ddec_spin_density
 _atom_site_hle17_ddec_sum_bond_order
 _atom_site_hle17_magmom
 _atom_site_hse06_10hf_bader_spin_density
 _atom_site_hse06_10hf_ddec_charge
 _atom_site_hse06_10hf_ddec_spin_density
 _atom_site_hse06_10hf_ddec_sum_bond_order
 _atom_site_hse06_10hf_magmom
 _atom_site_hse06_bader_spin_density
 _atom_site_hse06_ddec_charge
 _atom_site_hse06_ddec_spin_density
 _atom_site_hse06_ddec_sum_bond_order
 _atom_site_hse06_magmom
 _atom_site_pbe_bader_spin_density
 _atom_site_pbe_cm5_charge
 _atom_site_pbe_ddec_charge
 _atom_site_pbe_ddec_spin_density
 _atom_site_pbe_ddec_sum_bond_order
 _atom_site_pbe_magmom
Cd  Cd0  1  0.61774746  0.86881484  0.83878174  1  0  1.055025  0  1.937824  0  0  0.87426  0  2.425097  0  0  0.921608  0  2.379579  0  0  0.722182  0.842325  0  2.454294  0
Cd  Cd1  1  0.38225033  0.13118480  0.16120928  1  0  1.055034  0  1.937886  0  0  0.874255  0  2.425191  0  0  0.921604  0  2.37967  0  0  0.722171  0.842319  0  2.454411  0
H  H2  1  0.58447074  0.35370560  0.71079097  1  0  0.12839  0  0.959958  0  0  0.147213  0  1.022964  0  0  0.148948  0  1.022731  0  0  0.088332  0.145942  0  1.023117  0
H  H3  1  0.41553048  0.64629409  0.28920909  1  0  0.128399  0  0.959977  0  0  0.147208  0  1.022988  0  0  0.148944  0  1.022754  0  0  0.088326  0.145938  0  1.023147  0
H  H4  1  0.58301528  0.47463069  0.56948915  1  0  0.108465  0  0.974224  0  0  0.125333  0  1.043989  0  0  0.126979  0  1.043414  0  0  0.089566  0.124113  0  1.04445  0
H  H5  1  0.41698882  0.52536776  0.43051051  1  0  0.108493  0  0.97419  0  0  0.125338  0  1.043971  0  0  0.126982  0  1.043394  0  0  0.089576  0.124124  0  1.044423  0
H  H6  1  0.49290277  0.57916650  0.72690065  1  0  0.120423  0  0.968235  0  0  0.139817  0  1.030235  0  0  0.141104  0  1.030868  0  0  0.092506  0.138915  0  1.029676  0
H  H7  1  0.50709726  0.42083316  0.27309958  1  0  0.12041  0  0.968283  0  0  0.13981  0  1.030269  0  0  0.141096  0  1.030904  0  0  0.092507  0.138909  0  1.029715  0
H  H8  1  0.26349754  0.42255714  0.84038074  1  0  0.11767  0  0.995924  0  0  0.126268  0  1.060701  0  0  0.129225  0  1.060181  0  0  0.101778  0.124017  0  1.06145  0
H  H9  1  0.73650146  0.57744506  0.15962054  1  0  0.117646  0  0.995897  0  0  0.126262  0  1.060665  0  0  0.129203  0  1.060163  0  0  0.101782  0.123994  0  1.061436  0
H  H10  1  0.81548133  0.95271232  0.04703480  1  0  0.076437  0  0.97825  0  0  0.079949  0  1.052914  0  0  0.082126  0  1.051169  0  0  0.105784  0.078171  0  1.054533  0
H  H11  1  0.18451880  0.04728989  0.95297013  1  0  0.076472  0  0.978181  0  0  0.079983  0  1.052834  0  0  0.082161  0  1.051088  0  0  0.105799  0.078202  0  1.054459  0
H  H12  1  0.10219261  0.84004675  0.11773119  1  0  0.111989  0  0.944513  0  0  0.121627  0  1.003263  0  0  0.124511  0  1.003214  0  0  0.105952  0.119597  0  1.003425  0
H  H13  1  0.89780518  0.15995542  0.88227218  1  0  0.111976  0  0.944448  0  0  0.121624  0  1.003182  0  0  0.124507  0  1.003137  0  0  0.105939  0.119591  0  1.003349  0
H  H14  1  0.30710803  0.24455963  0.69459887  1  0  0.12339  0  0.95563  0  0  0.140182  0  1.022828  0  0  0.14173  0  1.022688  0  0  0.094812  0.13931  0  1.022674  0
H  H15  1  0.69289119  0.75544513  0.30539946  1  0  0.123429  0  0.955648  0  0  0.140199  0  1.022862  0  0  0.141745  0  1.022724  0  0  0.094823  0.139332  0  1.022702  0
H  H16  1  0.29354383  0.43803817  0.61905315  1  0  0.121238  0  0.953547  0  0  0.143484  0  1.011107  0  0  0.145068  0  1.010928  0  0  0.098474  0.1425  0  1.011074  0
H  H17  1  0.70645372  0.56196784  0.38094349  1  0  0.121221  0  0.953534  0  0  0.143477  0  1.011074  0  0  0.145062  0  1.010897  0  0  0.098453  0.142491  0  1.011048  0
H  H18  1  0.27836566  0.27163640  0.53075120  1  0  0.127569  0  0.950553  0  0  0.148151  0  1.008193  0  0  0.148952  0  1.009497  0  0  0.098306  0.147666  0  1.007237  0
H  H19  1  0.72163513  0.72837350  0.46924296  1  0  0.127582  0  0.950556  0  0  0.148153  0  1.008209  0  0  0.148954  0  1.009513  0  0  0.0983  0.147668  0  1.007248  0
H  H20  1  0.33069089  0.57261913  0.00557446  1  0  0.098441  0  0.938806  0  0  0.10843  0  1.001937  0  0  0.110827  0  0.999858  0  0  0.103479  0.106649  0  1.003525  0
H  H21  1  0.66930659  0.42738688  0.99442697  1  0  0.098422  0  0.938818  0  0  0.108395  0  1.001966  0  0  0.110792  0  0.999888  0  0  0.103465  0.106617  0  1.00355  0
H  H22  1  0.96451061  0.26372901  0.54271794  1  0  0.14604  0  0.958163  0  0  0.153055  0  1.020785  0  0  0.156654  0  1.02003  0  0  0.107855  0.150545  0  1.021498  0
H  H23  1  0.03549013  0.73627195  0.45728025  1  0  0.146055  0  0.958124  0  0  0.153063  0  1.020753  0  0  0.156662  0  1.019998  0  0  0.107865  0.150553  0  1.021462  0
C  C24  1  0.59710361  0.47053344  0.67155353  1  0  -0.368338  0  3.70475  0  0  -0.446887  0  3.938316  0  0  -0.450594  0  3.945258  0  0  -0.242055  -0.444095  0  3.933633  0
C  C25  1  0.40289526  0.52946620  0.32844496  1  0  -0.368385  0  3.704851  0  0  -0.446913  0  3.938415  0  0  -0.450618  0  3.945357  0  0  -0.242094  -0.444119  0  3.933729  0
C  C26  1  0.16889525  0.54396038  0.88198246  1  0  -0.199204  0  3.694854  0  0  -0.217866  0  3.947505  0  0  -0.227442  0  3.968267  0  0  -0.091039  -0.212007  0  3.934057  0
C  C27  1  0.83109999  0.45603920  0.11802135  1  0  -0.199134  0  3.694877  0  0  -0.217855  0  3.947499  0  0  -0.227417  0  3.968274  0  0  -0.091073  -0.211982  0  3.934066  0
C  C28  1  0.92024041  0.83799309  0.00123988  1  0  0.139481  0  3.714712  0  0  0.111808  0  3.964098  0  0  0.11934  0  3.982586  0  0  0.045966  0.107115  0  3.951477  0
C  C29  1  0.07975482  0.16200649  0.99876488  1  0  0.139406  0  3.714545  0  0  0.111744  0  3.963923  0  0  0.119277  0  3.98241  0  0  0.045891  0.107057  0  3.951294  0
C  C30  1  0.07844209  0.77497196  0.04048814  1  0  -0.127857  0  3.726908  0  0  -0.143708  0  3.983635  0  0  -0.151777  0  4.005452  0  0  -0.088525  -0.138764  0  3.968957  0
C  C31  1  0.92155315  0.22502762  0.95951567  1  0  -0.127879  0  3.726964  0  0  -0.143734  0  3.983682  0  0  -0.151807  0  4.005498  0  0  -0.088514  -0.138795  0  3.969004  0
C  C32  1  0.32756405  0.89921634  0.65476690  1  0  0.520265  0  3.978039  0  0  0.484203  0  4.252614  0  0  0.510895  0  4.264103  0  0  0.315621  0.466282  0  4.244701  0
C  C33  1  0.67244567  0.10078603  0.34522992  1  0  0.52004  0  3.977932  0  0  0.483973  0  4.252524  0  0  0.510663  0  4.264019  0  0  0.315458  0.466052  0  4.244614  0
C  C34  1  0.24301408  0.33671680  0.62662724  1  0  -0.364986  0  3.717648  0  0  -0.441125  0  3.950876  0  0  -0.444177  0  3.958013  0  0  -0.234858  -0.438882  0  3.944976  0
C  C35  1  0.75698565  0.66328669  0.37337009  1  0  -0.365015  0  3.717715  0  0  -0.441148  0  3.950919  0  0  -0.444202  0  3.95806  0  0  -0.234834  -0.438905  0  3.945014  0
C  C36  1  0.76826547  0.47009215  0.68218690  1  0  0.306353  0  3.759662  0  0  0.306227  0  4.023173  0  0  0.317635  0  4.04039  0  0  0.111764  0.298367  0  4.011657  0
C  C37  1  0.23173339  0.52990750  0.31781255  1  0  0.306257  0  3.759765  0  0  0.306172  0  4.023205  0  0  0.317581  0  4.040421  0  0  0.111759  0.298307  0  4.011696  0
C  C38  1  0.20505324  0.62665102  0.97788586  1  0  0.030703  0  3.70859  0  0  0.006197  0  3.968887  0  0  0.012139  0  3.985503  0  0  -0.065171  0.002645  0  3.957595  0
C  C39  1  0.79494269  0.37334985  0.02211687  1  0  0.030726  0  3.708688  0  0  0.006243  0  3.968973  0  0  0.012187  0  3.985584  0  0  -0.065126  0.002696  0  3.957677  0
C  C40  1  0.93403700  0.36090388  0.61791577  1  0  -0.319117  0  3.675504  0  0  -0.345031  0  3.930994  0  0  -0.356655  0  3.949924  0  0  -0.11515  -0.33791  0  3.917733  0
C  C41  1  0.06596236  0.63909449  0.38208364  1  0  -0.319131  0  3.675561  0  0  -0.345071  0  3.931017  0  0  -0.356696  0  3.949947  0  0  -0.115192  -0.337942  0  3.917749  0
C  C42  1  0.25968496  0.97495040  0.45453917  1  0  0.502359  0  3.989111  0  0  0.46959  0  4.268542  0  0  0.494456  0  4.280587  0  0  0.307032  0.452683  0  4.260515  0
C  C43  1  0.74031460  0.02504161  0.54545845  1  0  0.502302  0  3.989114  0  0  0.469535  0  4.268533  0  0  0.4944  0  4.280577  0  0  0.307067  0.452628  0  4.260503  0
C  C44  1  0.05165326  0.40588640  0.66639516  1  0  0.248746  0  3.701341  0  0  0.236563  0  3.970932  0  0  0.248002  0  3.988679  0  0  0.105735  0.230595  0  3.956831  0
C  C45  1  0.94834694  0.59411582  0.33360499  1  0  0.248837  0  3.701519  0  0  0.23671  0  3.971006  0  0  0.24815  0  3.988752  0  0  0.105807  0.230735  0  3.95691  0
C  C46  1  0.00684086  0.61714885  0.84806839  1  0  0.34406  0  3.757544  0  0  0.315442  0  4.012972  0  0  0.330439  0  4.030001  0  0  0.228768  0.30574  0  4.001258  0
C  C47  1  0.99315557  0.38285075  0.15193524  1  0  0.343986  0  3.757669  0  0  0.315467  0  4.012976  0  0  0.330464  0  4.030002  0  0  0.228772  0.305761  0  4.001268  0
N  N48  1  0.95513144  0.53801657  0.75648588  1  0  -0.05691  0  3.525082  0  0  0.020999  0  3.741508  0  0  0.006948  0  3.767347  0  0  -0.12886  0.030047  0  3.72362  0
N  N49  1  0.04486619  0.46198305  0.24351662  1  0  -0.056942  0  3.525225  0  0  0.020908  0  3.741622  0  0  0.006855  0  3.767462  0  0  -0.128901  0.02996  0  3.723736  0
N  N50  1  0.88669896  0.76261808  0.90527797  1  0  -0.397202  0  3.261857  0  0  -0.326034  0  3.521904  0  0  -0.346421  0  3.538925  0  0  -0.331718  -0.312222  0  3.509863  0
N  N51  1  0.11329627  0.23738150  0.09472680  1  0  -0.39714  0  3.261824  0  0  -0.325993  0  3.521823  0  0  -0.346381  0  3.538839  0  0  -0.331656  -0.312179  0  3.509778  0
N  N52  1  0.38153075  0.90175297  0.74999328  1  0  -0.619549  0  2.840546  0  0  -0.565028  0  3.117984  0  0  -0.588897  0  3.122421  0  0  -0.3946  -0.548888  0  3.114572  0
N  N53  1  0.61847206  0.09824291  0.25000185  1  0  -0.619448  0  2.840245  0  0  -0.564918  0  3.117668  0  0  -0.588787  0  3.122103  0  0  -0.394513  -0.548784  0  3.114273  0
N  N54  1  0.26391265  0.88357078  0.55612656  1  0  -0.455535  0  3.256334  0  0  -0.398881  0  3.504768  0  0  -0.422944  0  3.509353  0  0  -0.306814  -0.382752  0  3.501433  0
N  N55  1  0.73610342  0.11641894  0.44386389  1  0  -0.455458  0  3.25638  0  0  -0.398798  0  3.504809  0  0  -0.422861  0  3.509395  0  0  -0.306772  -0.382666  0  3.501475  0
N  N56  1  0.24738735  0.05301750  0.35934247  1  0  -0.596687  0  2.77953  0  0  -0.557159  0  3.053059  0  0  -0.577828  0  3.057614  0  0  -0.389246  -0.543422  0  3.049829  0
N  N57  1  0.75261645  0.94698478  0.64065428  1  0  -0.596558  0  2.77961  0  0  -0.557025  0  3.05313  0  0  -0.577691  0  3.057685  0  0  -0.389222  -0.54329  0  3.049894  0
N  N58  1  0.78175973  0.57805067  0.76497730  1  0  -0.345762  0  3.046125  0  0  -0.308673  0  3.323169  0  0  -0.323634  0  3.339754  0  0  -0.249016  -0.298593  0  3.311871  0
N  N59  1  0.21824132  0.42194646  0.23502284  1  0  -0.34568  0  3.046072  0  0  -0.308596  0  3.323092  0  0  -0.323555  0  3.339675  0  0  -0.248982  -0.298513  0  3.311798  0
Cl  Cl60  1  0.52913280  0.18223635  0.92512206  1  0  -0.575905  0  0.973323  0  0  -0.508441  0  1.260181  0  0  -0.527249  0  1.23845  0  0  -0.28688  -0.495727  0  1.274185  0
Cl  Cl61  1  0.47087422  0.81775448  0.07488593  1  0  -0.575919  0  0.97326  0  0  -0.508434  0  1.260073  0  0  -0.527241  0  1.238341  0  0  -0.286859  -0.495717  0  1.274069  0
