# generated using pymatgen
data_AgH10C6(NO2)2
_symmetry_space_group_name_H-M   'P 1'
_cell_length_a   5.83756889
_cell_length_b   8.32313721
_cell_length_c   17.97245767
_cell_angle_alpha   90.00014817
_cell_angle_beta   90.00009101
_cell_angle_gamma   91.29248704
_symmetry_Int_Tables_number   1
_chemical_formula_structural   AgH10C6(NO2)2
_chemical_formula_sum   'Ag4 H40 C24 N8 O16'
_cell_volume   873.00359745
_cell_formula_units_Z   4
loop_
 _symmetry_equiv_pos_site_id
 _symmetry_equiv_pos_as_xyz
  1  'x, y, z'
loop_
 _atom_site_type_symbol
 _atom_site_label
 _atom_site_symmetry_multiplicity
 _atom_site_fract_x
 _atom_site_fract_y
 _atom_site_fract_z
 _atom_site_occupancy
 _atom_site_hle17_bader_spin_density
 _atom_site_hle17_ddec_charge
 _atom_site_hle17_ddec_spin_density
 _atom_site_hle17_ddec_sum_bond_order
 _atom_site_hle17_magmom
 _atom_site_hse06_10hf_bader_spin_density
 _atom_site_hse06_10hf_ddec_charge
 _atom_site_hse06_10hf_ddec_spin_density
 _atom_site_hse06_10hf_ddec_sum_bond_order
 _atom_site_hse06_10hf_magmom
 _atom_site_hse06_bader_spin_density
 _atom_site_hse06_ddec_charge
 _atom_site_hse06_ddec_spin_density
 _atom_site_hse06_ddec_sum_bond_order
 _atom_site_hse06_magmom
 _atom_site_pbe_bader_spin_density
 _atom_site_pbe_cm5_charge
 _atom_site_pbe_ddec_charge
 _atom_site_pbe_ddec_spin_density
 _atom_site_pbe_ddec_sum_bond_order
 _atom_site_pbe_magmom
Ag  Ag0  1  0.63861077  0.66876487  0.69105829  1  0  0.607793  0  1.303123  0  0  0.494896  0  1.715005  0  0  0.519464  0  1.672158  0  0  0.442118  0.477119  0  1.745281  0
Ag  Ag1  1  0.36142864  0.83126161  0.19105044  1  0  0.607884  0  1.303246  0  0  0.494975  0  1.715166  0  0  0.519538  0  1.672303  0  0  0.442186  0.477214  0  1.745447  0
Ag  Ag2  1  0.36140318  0.33126537  0.30894472  1  0  0.607787  0  1.303125  0  0  0.494899  0  1.714992  0  0  0.519461  0  1.672144  0  0  0.442109  0.477129  0  1.74526  0
Ag  Ag3  1  0.63856513  0.16872414  0.80895591  1  0  0.607881  0  1.303262  0  0  0.494987  0  1.715208  0  0  0.519549  0  1.67235  0  0  0.442186  0.477224  0  1.745493  0
H  H4  1  0.25949736  0.34571937  0.69119938  1  0  0.144513  0  0.965045  0  0  0.159279  0  1.033192  0  0  0.162567  0  1.031188  0  0  0.095351  0.156822  0  1.034752  0
H  H5  1  0.74053421  0.15429056  0.19119646  1  0  0.14452  0  0.965283  0  0  0.159293  0  1.033388  0  0  0.162579  0  1.031394  0  0  0.095369  0.156836  0  1.034952  0
H  H6  1  0.74051692  0.65432169  0.30880419  1  0  0.144484  0  0.96501  0  0  0.15933  0  1.033069  0  0  0.162615  0  1.031069  0  0  0.095368  0.156872  0  1.034634  0
H  H7  1  0.25943610  0.84565552  0.80880878  1  0  0.144566  0  0.96503  0  0  0.159325  0  1.033175  0  0  0.162583  0  1.031207  0  0  0.09536  0.15689  0  1.034718  0
H  H8  1  0.95263994  0.32524415  0.69769438  1  0  0.122434  0  0.968401  0  0  0.138303  0  1.038768  0  0  0.141459  0  1.036025  0  0  0.086275  0.135902  0  1.040878  0
H  H9  1  0.04740408  0.17477027  0.19768410  1  0  0.122288  0  0.968197  0  0  0.138147  0  1.038619  0  0  0.141321  0  1.035858  0  0  0.086214  0.135748  0  1.040727  0
H  H10  1  0.04737354  0.67477047  0.30231086  1  0  0.122518  0  0.968689  0  0  0.138248  0  1.039166  0  0  0.141424  0  1.036409  0  0  0.086235  0.135849  0  1.041275  0
H  H11  1  0.95257916  0.82520706  0.80232002  1  0  0.122374  0  0.968484  0  0  0.138175  0  1.038919  0  0  0.141337  0  1.036177  0  0  0.08625  0.135777  0  1.041032  0
H  H12  1  0.11122834  0.44752741  0.76175110  1  0  0.140203  0  0.925669  0  0  0.160865  0  0.982685  0  0  0.163544  0  0.981542  0  0  0.097836  0.158797  0  0.983684  0
H  H13  1  0.88880321  0.05247897  0.26173841  1  0  0.140219  0  0.925967  0  0  0.160905  0  0.982917  0  0  0.16358  0  0.981781  0  0  0.097922  0.158843  0  0.983907  0
H  H14  1  0.88878554  0.55250043  0.23825358  1  0  0.140078  0  0.925744  0  0  0.160771  0  0.982756  0  0  0.163453  0  0.981612  0  0  0.097814  0.158704  0  0.983751  0
H  H15  1  0.11118744  0.94745992  0.73825236  1  0  0.140044  0  0.925616  0  0  0.16075  0  0.982635  0  0  0.163434  0  0.981484  0  0  0.097823  0.158684  0  0.983632  0
H  H16  1  0.77536683  0.46004477  0.59903803  1  0  0.14021  0  0.961708  0  0  0.150323  0  1.017287  0  0  0.153328  0  1.0189  0  0  0.100867  0.148005  0  1.0164  0
H  H17  1  0.22467459  0.03993255  0.09903633  1  0  0.140282  0  0.961866  0  0  0.150369  0  1.017445  0  0  0.153362  0  1.019076  0  0  0.100909  0.148062  0  1.016545  0
H  H18  1  0.22463959  0.53996263  0.40096609  1  0  0.140221  0  0.961919  0  0  0.150342  0  1.017456  0  0  0.153352  0  1.019063  0  0  0.100888  0.14802  0  1.01657  0
H  H19  1  0.77532721  0.96003519  0.90096334  1  0  0.140135  0  0.96193  0  0  0.150287  0  1.017466  0  0  0.153285  0  1.019087  0  0  0.10087  0.147972  0  1.016575  0
H  H20  1  0.69953980  0.76048568  0.44677332  1  0  0.13351  0  0.980313  0  0  0.145337  0  1.049183  0  0  0.148742  0  1.047001  0  0  0.09709  0.142866  0  1.050861  0
H  H21  1  0.30043240  0.73955911  0.94676630  1  0  0.133578  0  0.980583  0  0  0.145389  0  1.049389  0  0  0.148793  0  1.047213  0  0  0.097067  0.142921  0  1.051066  0
H  H22  1  0.30041113  0.23955651  0.55323303  1  0  0.133602  0  0.98047  0  0  0.145444  0  1.049282  0  0  0.148847  0  1.047106  0  0  0.097093  0.142977  0  1.050959  0
H  H23  1  0.69964284  0.26040149  0.05324506  1  0  0.133594  0  0.980637  0  0  0.145412  0  1.049461  0  0  0.148817  0  1.04728  0  0  0.097059  0.142943  0  1.051144  0
H  H24  1  0.52416964  0.69654199  0.52122329  1  0  0.135676  0  0.946067  0  0  0.153774  0  1.012169  0  0  0.157035  0  1.00965  0  0  0.102443  0.151657  0  1.013646  0
H  H25  1  0.47582033  0.80343170  0.02121569  1  0  0.135703  0  0.946231  0  0  0.15377  0  1.012342  0  0  0.15703  0  1.009828  0  0  0.102438  0.151653  0  1.013821  0
H  H26  1  0.47579522  0.30345095  0.47878584  1  0  0.135726  0  0.946184  0  0  0.153816  0  1.012295  0  0  0.157077  0  1.009777  0  0  0.102449  0.151704  0  1.013773  0
H  H27  1  0.52420412  0.19660577  0.97879733  1  0  0.135785  0  0.946108  0  0  0.15389  0  1.012183  0  0  0.15715  0  1.00967  0  0  0.10248  0.151782  0  1.013654  0
H  H28  1  0.67232089  0.55227604  0.46836503  1  0  0.130688  0  0.951289  0  0  0.153989  0  1.006595  0  0  0.155427  0  1.007645  0  0  0.099876  0.153083  0  1.0057  0
H  H29  1  0.32768972  0.94775689  0.96838014  1  0  0.130531  0  0.950871  0  0  0.153823  0  1.006232  0  0  0.15529  0  1.007249  0  0  0.099821  0.152918  0  1.005336  0
H  H30  1  0.32767775  0.44775779  0.53163131  1  0  0.13056  0  0.951088  0  0  0.153871  0  1.006427  0  0  0.155338  0  1.007442  0  0  0.099864  0.152968  0  1.005527  0
H  H31  1  0.67228514  0.05222644  0.03161285  1  0  0.13058  0  0.951053  0  0  0.153881  0  1.006421  0  0  0.155341  0  1.007447  0  0  0.099835  0.152973  0  1.005532  0
H  H32  1  0.98646203  0.88625222  0.43266752  1  0  0.074867  0  0.925705  0  0  0.093659  0  0.981251  0  0  0.093719  0  0.982058  0  0  0.111617  0.093487  0  0.980898  0
H  H33  1  0.01353564  0.61375125  0.93266783  1  0  0.074995  0  0.925685  0  0  0.09379  0  0.981177  0  0  0.09386  0  0.981974  0  0  0.111606  0.093614  0  0.98082  0
H  H34  1  0.01353293  0.11377319  0.56732715  1  0  0.074803  0  0.925405  0  0  0.09359  0  0.981073  0  0  0.093654  0  0.981859  0  0  0.11158  0.093413  0  0.98073  0
H  H35  1  0.98648908  0.38623815  0.06732461  1  0  0.074873  0  0.925724  0  0  0.093634  0  0.981349  0  0  0.093697  0  0.982133  0  0  0.111606  0.093459  0  0.980997  0
H  H36  1  0.24272372  0.95133534  0.47777966  1  0  0.08869  0  0.953653  0  0  0.10153  0  1.0182  0  0  0.102353  0  1.018225  0  0  0.113263  0.100867  0  1.018288  0
H  H37  1  0.75729829  0.54866228  0.97778374  1  0  0.088922  0  0.954126  0  0  0.101771  0  1.018554  0  0  0.102553  0  1.018641  0  0  0.113306  0.101103  0  1.018645  0
H  H38  1  0.75727639  0.04869008  0.52221500  1  0  0.088629  0  0.954051  0  0  0.101607  0  1.018421  0  0  0.102373  0  1.018515  0  0  0.113273  0.10097  0  1.018484  0
H  H39  1  0.24272428  0.45131269  0.02221092  1  0  0.088676  0  0.954114  0  0  0.101659  0  1.018463  0  0  0.102428  0  1.018555  0  0  0.113312  0.101005  0  1.018544  0
H  H40  1  0.16704758  0.78926969  0.58161095  1  0  0.291993  0  0.945017  0  0  0.269784  0  1.013189  0  0  0.279078  0  1.005783  0  0  0.302975  0.263423  0  1.018091  0
H  H41  1  0.83296316  0.71072502  0.08160673  1  0  0.292163  0  0.944855  0  0  0.269928  0  1.013089  0  0  0.279227  0  1.005657  0  0  0.303121  0.263571  0  1.017989  0
H  H42  1  0.83296080  0.21074613  0.41837982  1  0  0.292004  0  0.944901  0  0  0.269804  0  1.013099  0  0  0.279093  0  1.005698  0  0  0.303049  0.26345  0  1.017995  0
H  H43  1  0.16704560  0.28924633  0.91838682  1  0  0.292051  0  0.944877  0  0  0.26981  0  1.013103  0  0  0.279102  0  1.005693  0  0  0.303059  0.263453  0  1.018004  0
C  C44  1  0.10004051  0.40825875  0.70348560  1  0  -0.429846  0  3.677752  0  0  -0.509526  0  3.918574  0  0  -0.515824  0  3.921537  0  0  -0.258433  -0.504752  0  3.916654  0
C  C45  1  0.89995075  0.09175772  0.20348451  1  0  -0.429708  0  3.677618  0  0  -0.509415  0  3.91861  0  0  -0.515713  0  3.921541  0  0  -0.258492  -0.504656  0  3.916693  0
C  C46  1  0.89999104  0.59178713  0.29651908  1  0  -0.429742  0  3.67752  0  0  -0.509468  0  3.918492  0  0  -0.515781  0  3.921427  0  0  -0.25843  -0.504697  0  3.916568  0
C  C47  1  0.10001121  0.90819555  0.79652073  1  0  -0.429561  0  3.677015  0  0  -0.509388  0  3.918082  0  0  -0.515655  0  3.921019  0  0  -0.258458  -0.504643  0  3.91614  0
C  C48  1  0.08333375  0.55178501  0.65330202  1  0  0.514534  0  3.757662  0  0  0.500574  0  4.024833  0  0  0.526154  0  4.030428  0  0  0.118031  0.482843  0  4.021008  0
C  C49  1  0.91668913  0.94820971  0.15329783  1  0  0.514386  0  3.757838  0  0  0.500304  0  4.025159  0  0  0.525873  0  4.030777  0  0  0.117962  0.482582  0  4.02132  0
C  C50  1  0.91666920  0.44822119  0.34670099  1  0  0.514455  0  3.758286  0  0  0.500499  0  4.02545  0  0  0.526084  0  4.031039  0  0  0.118003  0.482779  0  4.021607  0
C  C51  1  0.08329736  0.05176162  0.84670296  1  0  0.514488  0  3.757835  0  0  0.500611  0  4.024838  0  0  0.526215  0  4.030397  0  0  0.118021  0.482889  0  4.021011  0
C  C52  1  0.88867626  0.56561887  0.60473666  1  0  -0.500203  0  3.803107  0  0  -0.498587  0  4.078891  0  0  -0.522933  0  4.097104  0  0  -0.184979  -0.482398  0  4.06657  0
C  C53  1  0.11135509  0.93439633  0.10473124  1  0  -0.499945  0  3.803017  0  0  -0.498282  0  4.078744  0  0  -0.522619  0  4.096977  0  0  -0.184885  -0.482106  0  4.066411  0
C  C54  1  0.11132413  0.43441617  0.39526302  1  0  -0.500118  0  3.802975  0  0  -0.498469  0  4.078763  0  0  -0.522826  0  4.096977  0  0  -0.184989  -0.482277  0  4.066435  0
C  C55  1  0.88866424  0.06558465  0.89526398  1  0  -0.50003  0  3.80335  0  0  -0.49849  0  4.079093  0  0  -0.522838  0  4.097304  0  0  -0.184955  -0.482307  0  4.066775  0
C  C56  1  0.87859265  0.68246174  0.54663578  1  0  0.414241  0  3.680117  0  0  0.397518  0  3.941176  0  0  0.419835  0  3.952961  0  0  0.146862  0.383248  0  3.93222  0
C  C57  1  0.12140387  0.81751668  0.04663933  1  0  0.413975  0  3.680194  0  0  0.397327  0  3.941144  0  0  0.419639  0  3.95294  0  0  0.146831  0.383063  0  3.932184  0
C  C58  1  0.12138982  0.31754684  0.45336278  1  0  0.414119  0  3.679878  0  0  0.397341  0  3.941085  0  0  0.419654  0  3.952882  0  0  0.146903  0.383074  0  3.932129  0
C  C59  1  0.87860813  0.18244866  0.95336368  1  0  0.414059  0  3.67994  0  0  0.397377  0  3.940994  0  0  0.419694  0  3.952781  0  0  0.146881  0.383106  0  3.932045  0
C  C60  1  0.68536523  0.67350714  0.49206540  1  0  -0.39336  0  3.65636  0  0  -0.470142  0  3.892128  0  0  -0.475573  0  3.895472  0  0  -0.241284  -0.466375  0  3.8894  0
C  C61  1  0.31463623  0.82646690  0.99206004  1  0  -0.393294  0  3.656306  0  0  -0.470059  0  3.892084  0  0  -0.475502  0  3.895385  0  0  -0.241233  -0.466299  0  3.889359  0
C  C62  1  0.31462023  0.32648702  0.50793928  1  0  -0.393357  0  3.656231  0  0  -0.470141  0  3.892113  0  0  -0.475593  0  3.895432  0  0  -0.241314  -0.466388  0  3.889392  0
C  C63  1  0.68538496  0.17351888  0.00794464  1  0  -0.393374  0  3.656459  0  0  -0.470193  0  3.892274  0  0  -0.475641  0  3.895597  0  0  -0.241265  -0.466438  0  3.889561  0
C  C64  1  0.05987568  0.92418259  0.48623837  1  0  0.016596  0  3.625413  0  0  -0.044877  0  3.88746  0  0  -0.041228  0  3.899893  0  0  -0.059077  -0.047198  0  3.878941  0
C  C65  1  0.94008871  0.57582175  0.98623703  1  0  0.016027  0  3.625411  0  0  -0.045344  0  3.887198  0  0  -0.041698  0  3.899664  0  0  -0.059102  -0.047651  0  3.878653  0
C  C66  1  0.94007956  0.07583197  0.51375129  1  0  0.017029  0  3.625018  0  0  -0.044601  0  3.887185  0  0  -0.040911  0  3.899631  0  0  -0.058985  -0.046945  0  3.878655  0
C  C67  1  0.05993532  0.42414481  0.01375986  1  0  0.016989  0  3.624894  0  0  -0.044629  0  3.886854  0  0  -0.040927  0  3.899284  0  0  -0.059013  -0.046955  0  3.878312  0
N  N68  1  0.04237714  0.79540153  0.54052005  1  0  -0.338563  0  3.313457  0  0  -0.268568  0  3.546124  0  0  -0.289783  0  3.558949  0  0  -0.394205  -0.254104  0  3.536502  0
N  N69  1  0.95760603  0.70459882  0.04052801  1  0  -0.338358  0  3.313356  0  0  -0.268501  0  3.546102  0  0  -0.289695  0  3.558898  0  0  -0.394296  -0.254054  0  3.536494  0
N  N70  1  0.95760408  0.20462267  0.45946961  1  0  -0.33854  0  3.313149  0  0  -0.268571  0  3.545974  0  0  -0.289779  0  3.55877  0  0  -0.394286  -0.254114  0  3.53637  0
N  N71  1  0.04239770  0.29537613  0.95947055  1  0  -0.338523  0  3.313081  0  0  -0.268563  0  3.545852  0  0  -0.289774  0  3.558657  0  0  -0.394336  -0.254103  0  3.536236  0
N  N72  1  0.55107084  0.04088755  0.65648806  1  0  0.683593  0  4.145644  0  0  0.71302  0  4.434954  0  0  0.74021  0  4.442583  0  0  0.092615  0.693507  0  4.429476  0
N  N73  1  0.44893062  0.45914693  0.15648154  1  0  0.684114  0  4.145326  0  0  0.713371  0  4.434734  0  0  0.740661  0  4.442285  0  0  0.092618  0.693822  0  4.4293  0
N  N74  1  0.44892587  0.95913907  0.34350716  1  0  0.683975  0  4.145546  0  0  0.713266  0  4.434946  0  0  0.74052  0  4.442556  0  0  0.092648  0.693837  0  4.429367  0
N  N75  1  0.55108054  0.54084726  0.84351423  1  0  0.683941  0  4.145468  0  0  0.713217  0  4.434864  0  0  0.740487  0  4.442477  0  0  0.092633  0.693794  0  4.429284  0
O  O76  1  0.24538542  0.65705493  0.65293237  1  0  -0.571488  0  2.056271  0  0  -0.506981  0  2.309571  0  0  -0.532691  0  2.301253  0  0  -0.307882  -0.489705  0  2.315484  0
O  O77  1  0.75461115  0.84297703  0.15292134  1  0  -0.571654  0  2.056755  0  0  -0.507029  0  2.310072  0  0  -0.53274  0  2.301756  0  0  -0.307993  -0.489759  0  2.315983  0
O  O78  1  0.75461872  0.34299093  0.34707064  1  0  -0.571446  0  2.057094  0  0  -0.506929  0  2.310398  0  0  -0.53263  0  2.30206  0  0  -0.30788  -0.489666  0  2.31632  0
O  O79  1  0.24536535  0.15700390  0.84706387  1  0  -0.571705  0  2.056581  0  0  -0.50713  0  2.309751  0  0  -0.532854  0  2.301419  0  0  -0.307987  -0.489864  0  2.315676  0
O  O80  1  0.62566417  0.95353223  0.71008989  1  0  -0.496618  0  1.911058  0  0  -0.460907  0  2.182271  0  0  -0.481675  0  2.171081  0  0  -0.203594  -0.445533  0  2.189512  0
O  O81  1  0.37429619  0.54651124  0.21006928  1  0  -0.496807  0  1.911297  0  0  -0.461041  0  2.182578  0  0  -0.48184  0  2.171376  0  0  -0.203595  -0.445659  0  2.189827  0
O  O82  1  0.37429132  0.04649074  0.28991924  1  0  -0.496819  0  1.911535  0  0  -0.460966  0  2.182687  0  0  -0.481763  0  2.171515  0  0  -0.203559  -0.445627  0  2.189904  0
O  O83  1  0.62575655  0.45349861  0.78993540  1  0  -0.496607  0  1.9116  0  0  -0.460925  0  2.182911  0  0  -0.481726  0  2.171746  0  0  -0.203569  -0.445592  0  2.190127  0
O  O84  1  0.47116479  0.97656686  0.59863149  1  0  -0.445537  0  1.785322  0  0  -0.433012  0  2.003984  0  0  -0.446543  0  1.998428  0  0  -0.172814  -0.423199  0  2.007749  0
O  O85  1  0.52890228  0.52344988  0.09862828  1  0  -0.445941  0  1.785211  0  0  -0.433322  0  2.003927  0  0  -0.446921  0  1.998373  0  0  -0.172972  -0.423491  0  2.007691  0
O  O86  1  0.52889513  0.02345382  0.40136596  1  0  -0.445769  0  1.784864  0  0  -0.433283  0  2.003648  0  0  -0.44686  0  1.9981  0  0  -0.172964  -0.423491  0  2.007383  0
O  O87  1  0.47109299  0.47652866  0.90137195  1  0  -0.446021  0  1.784935  0  0  -0.433432  0  2.003666  0  0  -0.446999  0  1.998101  0  0  -0.172993  -0.423641  0  2.007392  0
O  O88  1  0.56170486  0.19214670  0.66437222  1  0  -0.464075  0  1.786525  0  0  -0.440304  0  2.007881  0  0  -0.456706  0  2.000885  0  0  -0.184923  -0.428421  0  2.012748  0
O  O89  1  0.43827817  0.30788856  0.16437096  1  0  -0.464035  0  1.785996  0  0  -0.440319  0  2.007546  0  0  -0.45673  0  2.000472  0  0  -0.184805  -0.428409  0  2.01241  0
O  O90  1  0.43830031  0.80787632  0.33562745  1  0  -0.464097  0  1.786376  0  0  -0.440304  0  2.007802  0  0  -0.456719  0  2.000779  0  0  -0.184868  -0.428459  0  2.012655  0
O  O91  1  0.56167488  0.69211038  0.83563205  1  0  -0.464012  0  1.786048  0  0  -0.440158  0  2.007441  0  0  -0.456594  0  2.000438  0  0  -0.184825  -0.428298  0  2.012276  0
