# generated using pymatgen
data_CdH17C15SN3O5
_symmetry_space_group_name_H-M   'P 1'
_cell_length_a   9.46234319
_cell_length_b   12.76784640
_cell_length_c   16.66075640
_cell_angle_alpha   109.09351872
_cell_angle_beta   89.99980268
_cell_angle_gamma   90.00004052
_symmetry_Int_Tables_number   1
_chemical_formula_structural   CdH17C15SN3O5
_chemical_formula_sum   'Cd4 H68 C60 S4 N12 O20'
_cell_volume   1902.11336633
_cell_formula_units_Z   4
loop_
 _symmetry_equiv_pos_site_id
 _symmetry_equiv_pos_as_xyz
  1  'x, y, z'
loop_
 _atom_site_type_symbol
 _atom_site_label
 _atom_site_symmetry_multiplicity
 _atom_site_fract_x
 _atom_site_fract_y
 _atom_site_fract_z
 _atom_site_occupancy
 _atom_site_pbe_bader_charge
 _atom_site_pbe_bader_spin_density
 _atom_site_pbe_cm5_charge
 _atom_site_pbe_ddec_charge
 _atom_site_pbe_ddec_spin_density
 _atom_site_pbe_ddec_sum_bond_order
 _atom_site_pbe_magmom
Cd  Cd0  1  0.50000007  0.50000075  0.00000056  1  1.287663  0  0.770567  0.931067  0  2.225619  0
Cd  Cd1  1  0.00000213  0.99999915  0.49999988  1  1.287678  0  0.770551  0.931008  0  2.225634  0
Cd  Cd2  1  0.49999983  0.99999992  0.00000009  1  1.265634  0  0.79116  0.811172  0  2.306041  0
Cd  Cd3  1  0.99999944  0.49999980  0.50000061  1  1.265645  0  0.791186  0.811192  0  2.306086  0
H  H4  1  0.71569174  0.70523117  0.08028592  1  0.133688  0  0.114296  0.085499  0  1.010232  0
H  H5  1  0.21569303  0.79476700  0.41971427  1  0.133696  0  0.114302  0.085526  0  1.010218  0
H  H6  1  0.28430747  0.29477109  0.91971453  1  0.133704  0  0.114298  0.085517  0  1.010275  0
H  H7  1  0.78431252  0.20523029  0.58028674  1  0.133646  0  0.114262  0.085454  0  1.010258  0
H  H8  1  0.96444206  0.76610822  0.06069790  1  0.115499  0  0.106934  0.122811  0  1.017636  0
H  H9  1  0.46444106  0.73389153  0.43930339  1  0.115483  0  0.106908  0.122781  0  1.017657  0
H  H10  1  0.03555821  0.23389321  0.93930173  1  0.115519  0  0.106934  0.122834  0  1.017635  0
H  H11  1  0.53556661  0.26610992  0.56070105  1  0.11546  0  0.106908  0.122756  0  1.017665  0
H  H12  1  0.10936993  0.64712614  0.94215702  1  0.15095  0  0.106372  0.11029  0  1.042055  0
H  H13  1  0.60937103  0.85287199  0.55784190  1  0.150943  0  0.106369  0.110287  0  1.042087  0
H  H14  1  0.89063034  0.35287363  0.05784281  1  0.150949  0  0.106373  0.11029  0  1.042053  0
H  H15  1  0.39063241  0.14713359  0.44216177  1  0.150579  0  0.106347  0.110224  0  1.042175  0
H  H16  1  0.00473431  0.46506859  0.84709930  1  0.062895  0  0.107587  0.110663  0  0.987084  0
H  H17  1  0.50473453  0.03492957  0.65289930  1  0.062923  0  0.107585  0.110668  0  0.98707  0
H  H18  1  0.99526490  0.53493036  0.15290212  1  0.062895  0  0.107582  0.110665  0  0.987063  0
H  H19  1  0.49526468  0.96507270  0.34710354  1  0.062761  0  0.107568  0.110651  0  0.986974  0
H  H20  1  0.76206246  0.41188747  0.88109109  1  0.121382  0  0.118763  0.097906  0  1.003135  0
H  H21  1  0.26206538  0.08811226  0.61890800  1  0.121413  0  0.118718  0.097854  0  1.003274  0
H  H22  1  0.23793676  0.58811314  0.11891074  1  0.121381  0  0.118767  0.097886  0  1.003128  0
H  H23  1  0.73793594  0.91189000  0.38109304  1  0.121424  0  0.11873  0.097845  0  1.003301  0
H  H24  1  0.58601141  0.99954557  0.81563150  1  0.106254  0  0.114326  0.084565  0  1.020622  0
H  H25  1  0.08601279  0.50045340  0.68436827  1  0.106287  0  0.114319  0.084532  0  1.020631  0
H  H26  1  0.41398781  0.00045337  0.18436751  1  0.106289  0  0.114321  0.084554  0  1.020621  0
H  H27  1  0.91399065  0.49954554  0.31563015  1  0.106268  0  0.114317  0.084556  0  1.020624  0
H  H28  1  0.71865014  0.88398900  0.68488359  1  0.095403  0  0.106503  0.110095  0  1.044063  0
H  H29  1  0.21864979  0.61601075  0.81511611  1  0.095381  0  0.106489  0.110091  0  1.044036  0
H  H30  1  0.28135013  0.11601160  0.31511584  1  0.095012  0  0.1065  0.110109  0  1.04403  0
H  H31  1  0.78135154  0.38398736  0.18488270  1  0.095004  0  0.106507  0.110109  0  1.044057  0
H  H32  1  0.83293359  0.70995865  0.68574041  1  0.125263  0  0.108017  0.108432  0  1.01632  0
H  H33  1  0.33293340  0.79003858  0.81425785  1  0.125219  0  0.108024  0.108481  0  1.016309  0
H  H34  1  0.16706668  0.29004029  0.31425801  1  0.125205  0  0.10804  0.108471  0  1.016315  0
H  H35  1  0.66706686  0.20996037  0.18574117  1  0.125201  0  0.108039  0.108481  0  1.016272  0
H  H36  1  0.79507891  0.64596315  0.81297127  1  0.074731  0  0.100738  0.099846  0  1.037827  0
H  H37  1  0.29507850  0.85403492  0.68702787  1  0.074743  0  0.100732  0.099864  0  1.037875  0
H  H38  1  0.20492242  0.35403579  0.18702715  1  0.074725  0  0.100737  0.099872  0  1.037824  0
H  H39  1  0.70491859  0.14596568  0.31297216  1  0.074823  0  0.100735  0.099872  0  1.037867  0
H  H40  1  0.64488430  0.76374272  0.93308485  1  0.091727  0  0.113983  0.088045  0  1.024353  0
H  H41  1  0.14488452  0.73625540  0.56691460  1  0.091732  0  0.113965  0.088042  0  1.024321  0
H  H42  1  0.35511597  0.23625622  0.06691417  1  0.091707  0  0.113976  0.088048  0  1.024337  0
H  H43  1  0.85511470  0.26374437  0.43308463  1  0.091755  0  0.113959  0.088027  0  1.02428  0
H  H44  1  0.36478974  0.09056342  0.85841629  1  0.126402  0  0.112245  0.090465  0  1.033541  0
H  H45  1  0.86479249  0.40943710  0.64158100  1  0.126383  0  0.112261  0.090457  0  1.033543  0
H  H46  1  0.63520736  0.90943635  0.14158233  1  0.126366  0  0.112246  0.090449  0  1.033543  0
H  H47  1  0.13520883  0.59056350  0.35841663  1  0.126359  0  0.112246  0.090444  0  1.033558  0
H  H48  1  0.14564766  0.08513215  0.77066658  1  0.086014  0  0.109044  0.116469  0  0.992296  0
H  H49  1  0.64564989  0.41486348  0.72933353  1  0.086071  0  0.10907  0.116485  0  0.992219  0
H  H50  1  0.85434838  0.91487011  0.22933447  1  0.086103  0  0.109046  0.116475  0  0.992317  0
H  H51  1  0.35435355  0.58513381  0.27066568  1  0.086006  0  0.109044  0.116447  0  0.992275  0
H  H52  1  0.93285577  0.98526371  0.79772609  1  0.0979  0  0.103239  0.097897  0  1.028358  0
H  H53  1  0.43285706  0.51473184  0.70227575  1  0.098043  0  0.103202  0.097769  0  1.028447  0
H  H54  1  0.06714238  0.01473607  0.20227493  1  0.097906  0  0.103238  0.097848  0  1.028385  0
H  H55  1  0.56714426  0.48526545  0.29772526  1  0.097876  0  0.103237  0.097863  0  1.02841  0
H  H56  1  0.94902158  0.88928991  0.90728774  1  0.077285  0  0.103536  0.10666  0  1.018906  0
H  H57  1  0.44902046  0.61070564  0.59271468  1  0.077369  0  0.103531  0.106662  0  1.018827  0
H  H58  1  0.05097763  0.11070655  0.09271186  1  0.07732  0  0.103521  0.106677  0  1.018806  0
H  H59  1  0.55097664  0.38929331  0.40728734  1  0.077352  0  0.103526  0.106645  0  1.01885  0
H  H60  1  0.17545291  0.89936886  0.98668795  1  0.143407  0  0.113264  0.090857  0  1.030956  0
H  H61  1  0.67544664  0.60063091  0.51331125  1  0.143474  0  0.113257  0.09087  0  1.030962  0
H  H62  1  0.82454841  0.10063008  0.01331047  1  0.143319  0  0.113265  0.090885  0  1.030897  0
H  H63  1  0.32454728  0.39936969  0.48668818  1  0.143428  0  0.113252  0.090852  0  1.030984  0
H  H64  1  0.37301838  0.46343063  0.83808393  1  0.585801  0  0.317842  0.393135  0  0.881404  0
H  H65  1  0.87301538  0.03656989  0.66191635  1  0.585773  0  0.317848  0.393139  0  0.88136  0
H  H66  1  0.62698506  0.53656914  0.16191649  1  0.585771  0  0.317843  0.393125  0  0.881392  0
H  H67  1  0.12698489  0.96342988  0.33808228  1  0.585778  0  0.317856  0.393133  0  0.881375  0
H  H68  1  0.40117516  0.59182163  0.89084015  1  0.648275  0  0.278724  0.378494  0  0.977663  0
H  H69  1  0.90117811  0.90818055  0.60916041  1  0.6483  0  0.27877  0.378531  0  0.977622  0
H  H70  1  0.59882405  0.40818063  0.10915910  1  0.648284  0  0.278743  0.378495  0  0.977678  0
H  H71  1  0.09882321  0.09181839  0.39083921  1  0.648294  0  0.278776  0.378536  0  0.977612  0
C  C72  1  0.78553081  0.65417046  0.03063901  1  0.44085  0  0.040296  0.070336  0  3.97875  0
C  C73  1  0.28552973  0.84582852  0.46936124  1  0.441175  0  0.040234  0.070169  0  3.978779  0
C  C74  1  0.21446946  0.34582932  0.96936081  1  0.440845  0  0.040248  0.07024  0  3.978784  0
C  C75  1  0.71447476  0.15416795  0.53064016  1  0.440991  0  0.040303  0.070346  0  3.97867  0
C  C76  1  0.92106494  0.68860480  0.01853569  1  -0.035653  0  -0.081935  -0.123491  0  3.954694  0
C  C77  1  0.42106482  0.81139164  0.48146367  1  -0.036019  0  -0.081862  -0.123324  0  3.954526  0
C  C78  1  0.07893532  0.31139664  0.98146515  1  -0.035615  0  -0.081913  -0.12346  0  3.954746  0
C  C79  1  0.57893968  0.18860980  0.51854017  1  -0.035797  0  -0.081818  -0.123301  0  3.954416  0
C  C80  1  0.00256125  0.62106071  0.95166235  1  -0.044931  0  -0.065738  -0.024688  0  3.93529  0
C  C81  1  0.50256243  0.87893829  0.54833819  1  -0.044801  0  -0.065737  -0.024775  0  3.935383  0
C  C82  1  0.99743796  0.37893989  0.04833768  1  -0.04496  0  -0.06571  -0.024674  0  3.935353  0
C  C83  1  0.49744101  0.12106480  0.45166426  1  -0.042777  0  -0.065839  -0.024834  0  3.935685  0
C  C84  1  0.94529085  0.52105417  0.89992067  1  -0.042551  0  -0.086043  -0.13843  0  3.991396  0
C  C85  1  0.44529215  0.97894468  0.60007837  1  -0.042703  0  -0.08605  -0.13843  0  3.991419  0
C  C86  1  0.05470942  0.47894644  0.10007996  1  -0.042591  0  -0.086053  -0.138468  0  3.991426  0
C  C87  1  0.55470600  0.02105924  0.39992489  1  -0.044107  0  -0.08595  -0.138323  0  3.991435  0
C  C88  1  0.81000400  0.49095687  0.91734227  1  0.472907  0  0.04736  0.094427  0  3.936292  0
C  C89  1  0.31000601  0.00904201  0.58265712  1  0.472914  0  0.047405  0.094489  0  3.936404  0
C  C90  1  0.18999522  0.50904207  0.08265915  1  0.472893  0  0.047346  0.09447  0  3.936273  0
C  C91  1  0.68999426  0.99095694  0.41734370  1  0.472936  0  0.04739  0.094479  0  3.936399  0
C  C92  1  0.63020868  0.91865233  0.81033822  1  0.402928  0  0.043815  0.08426  0  3.955993  0
C  C93  1  0.13021011  0.58134662  0.68966146  1  0.402872  0  0.043823  0.084326  0  3.955943  0
C  C94  1  0.36979053  0.08134661  0.18966139  1  0.402873  0  0.043811  0.084284  0  3.955922  0
C  C95  1  0.86979016  0.41865232  0.31033756  1  0.402894  0  0.043818  0.084273  0  3.955972  0
C  C96  1  0.70653140  0.85631034  0.73959734  1  0.000738  0  -0.085485  -0.131445  0  3.973606  0
C  C97  1  0.20653246  0.64368776  0.76040198  1  0.000726  0  -0.085494  -0.131524  0  3.973632  0
C  C98  1  0.29346781  0.14368860  0.26040168  1  0.001129  0  -0.085488  -0.131516  0  3.973619  0
C  C99  1  0.79346887  0.35631036  0.23959743  1  0.001109  0  -0.085504  -0.131509  0  3.973708  0
C  C100  1  0.76943226  0.75760282  0.73982669  1  0.023352  0  -0.063081  -0.013512  0  3.92853  0
C  C101  1  0.26943130  0.74239442  0.76017169  1  0.023189  0  -0.063061  -0.013455  0  3.928534  0
C  C102  1  0.23056906  0.24239612  0.26017172  1  0.023472  0  -0.063086  -0.013474  0  3.928555  0
C  C103  1  0.73056896  0.25760452  0.23982793  1  0.023188  0  -0.06309  -0.013502  0  3.928557  0
C  C104  1  0.74886102  0.72262442  0.80997378  1  -0.054632  0  -0.084862  -0.129169  0  3.973634  0
C  C105  1  0.24886158  0.77737449  0.69002506  1  -0.054427  0  -0.084843  -0.12923  0  3.973628  0
C  C106  1  0.25114031  0.27737535  0.19002484  1  -0.054693  0  -0.084858  -0.129238  0  3.973619  0
C  C107  1  0.75113763  0.22262611  0.30997497  1  -0.054461  0  -0.084848  -0.129235  0  3.97371  0
C  C108  1  0.66675644  0.78769363  0.87725422  1  0.47092  0  0.04529  0.091351  0  3.930978  0
C  C109  1  0.16675735  0.71230448  0.62274458  1  0.470988  0  0.045258  0.091309  0  3.93093  0
C  C110  1  0.33324382  0.21230531  0.12274480  1  0.470983  0  0.045252  0.091308  0  3.930959  0
C  C111  1  0.83324292  0.28769446  0.37725383  1  0.470917  0  0.045289  0.091363  0  3.930857  0
C  C112  1  0.27011018  0.04566883  0.86556938  1  0.443406  0  0.035686  0.068166  0  3.96666  0
C  C113  1  0.77010986  0.45433006  0.63442829  1  0.442986  0  0.035651  0.068116  0  3.966688  0
C  C114  1  0.72988903  0.95433094  0.13442924  1  0.442747  0  0.035669  0.068134  0  3.966665  0
C  C115  1  0.22988935  0.54567136  0.36557074  1  0.442963  0  0.035663  0.068148  0  3.966636  0
C  C116  1  0.14813420  0.04382695  0.81849632  1  -0.048735  0  -0.084821  -0.132688  0  3.989427  0
C  C117  1  0.64813570  0.45616950  0.68150278  1  -0.048899  0  -0.084796  -0.132668  0  3.989469  0
C  C118  1  0.85186290  0.95617199  0.18150389  1  -0.048857  0  -0.084805  -0.132686  0  3.989403  0
C  C119  1  0.35186562  0.54383026  0.31849524  1  -0.04882  0  -0.084839  -0.132714  0  3.98934  0
C  C120  1  0.02976435  0.98764984  0.83329214  1  -0.027024  0  -0.063492  -0.011085  0  3.94757  0
C  C121  1  0.52976657  0.51234418  0.66670831  1  -0.027148  0  -0.063541  -0.011009  0  3.947623  0
C  C122  1  0.97023592  0.01234911  0.16670868  1  -0.027001  0  -0.063482  -0.010961  0  3.947449  0
C  C123  1  0.47023581  0.48765310  0.33329149  1  -0.026999  0  -0.063502  -0.011001  0  3.947469  0
C  C124  1  0.03859176  0.93466532  0.89408578  1  -0.011624  0  -0.08448  -0.126184  0  3.966323  0
C  C125  1  0.53858912  0.56533036  0.60591447  1  -0.01163  0  -0.084393  -0.126132  0  3.966041  0
C  C126  1  0.96140745  0.06533279  0.10591304  1  -0.011594  0  -0.084478  -0.126301  0  3.966265  0
C  C127  1  0.46140903  0.43466776  0.39408554  1  -0.011604  0  -0.084391  -0.126137  0  3.966112  0
C  C128  1  0.16468724  0.93995344  0.93855689  1  0.434683  0  0.045265  0.085652  0  3.945091  0
C  C129  1  0.66468381  0.56004384  0.56144171  1  0.434582  0  0.045217  0.085584  0  3.944947  0
C  C130  1  0.83531302  0.06004467  0.06144192  1  0.434737  0  0.045258  0.08565  0  3.945006  0
C  C131  1  0.33531328  0.43995593  0.43855691  1  0.434678  0  0.045217  0.085621  0  3.945057  0
S  S132  1  0.63795333  0.24027873  0.96296376  1  3.778716  0  0.538492  1.411205  0  6.440039  0
S  S133  1  0.13795480  0.25972187  0.53703519  1  3.778513  0  0.538461  1.411175  0  6.440082  0
S  S134  1  0.36204377  0.75972187  0.03703446  1  3.778532  0  0.538485  1.411242  0  6.439999  0
S  S135  1  0.86204758  0.74027790  0.46296464  1  3.778539  0  0.538388  1.411032  0  6.440273  0
N  N136  1  0.73120094  0.55674892  0.98136229  1  -1.264265  0  -0.332222  -0.256753  0  3.510317  0
N  N137  1  0.23120270  0.94325083  0.51863679  1  -1.264252  0  -0.332203  -0.256676  0  3.510316  0
N  N138  1  0.26879933  0.44325252  0.01863975  1  -1.264239  0  -0.332211  -0.25674  0  3.510294  0
N  N139  1  0.76879968  0.05674812  0.48136343  1  -1.264322  0  -0.332221  -0.256725  0  3.510376  0
N  N140  1  0.61045331  0.88465627  0.87785434  1  -1.230892  0  -0.331804  -0.23646  0  3.523487  0
N  N141  1  0.11045307  0.61534186  0.62214457  1  -1.230914  0  -0.331762  -0.2364  0  3.523396  0
N  N142  1  0.38954801  0.11534267  0.12214467  1  -1.230908  0  -0.331767  -0.236405  0  3.523408  0
N  N143  1  0.88954825  0.38465791  0.37785465  1  -1.230888  0  -0.331786  -0.236448  0  3.523365  0
N  N144  1  0.27878696  0.99464435  0.92467532  1  -1.229343  0  -0.328532  -0.24981  0  3.479669  0
N  N145  1  0.77878445  0.50535456  0.57532346  1  -1.228874  0  -0.328499  -0.249723  0  3.479529  0
N  N146  1  0.72121331  0.00535459  0.07532310  1  -1.228664  0  -0.328523  -0.249743  0  3.479566  0
N  N147  1  0.22121476  0.49464604  0.42467597  1  -1.228869  0  -0.328493  -0.24975  0  3.479591  0
O  O148  1  0.56992487  0.32216366  0.92719670  1  -1.334217  0  -0.398379  -0.701262  0  2.25789  0
O  O149  1  0.06992711  0.17783780  0.57280380  1  -1.334168  0  -0.398384  -0.701243  0  2.257824  0
O  O150  1  0.43006483  0.67783694  0.07280333  1  -1.334147  0  -0.398394  -0.701286  0  2.257983  0
O  O151  1  0.93007316  0.82216197  0.42719602  1  -1.334187  0  -0.398368  -0.701191  0  2.257934  0
O  O152  1  0.53306704  0.14851828  0.95180218  1  -1.34318  0  -0.382846  -0.6847  0  2.347229  0
O  O153  1  0.03306748  0.35148235  0.54819698  1  -1.342993  0  -0.382845  -0.684679  0  2.347277  0
O  O154  1  0.46693112  0.85148149  0.04819704  1  -1.342968  0  -0.382824  -0.684677  0  2.347262  0
O  O155  1  0.96693491  0.64851742  0.45180284  1  -1.343038  0  -0.382801  -0.684644  0  2.347366  0
O  O156  1  0.66432802  0.29489122  0.05662923  1  -1.347826  0  -0.376662  -0.697395  0  2.224311  0
O  O157  1  0.16433014  0.20510861  0.44337035  1  -1.347852  0  -0.376681  -0.697408  0  2.224314  0
O  O158  1  0.33566591  0.70511021  0.94337041  1  -1.347895  0  -0.37668  -0.697426  0  2.224377  0
O  O159  1  0.83567119  0.79489033  0.55662927  1  -1.347843  0  -0.376677  -0.69739  0  2.224343  0
O  O160  1  0.77066159  0.19778863  0.91862287  1  -1.359524  0  -0.384797  -0.668246  0  2.101146  0
O  O161  1  0.27066283  0.30221358  0.58137562  1  -1.35953  0  -0.384749  -0.668219  0  2.101167  0
O  O162  1  0.22933234  0.80221694  0.08137660  1  -1.359594  0  -0.384802  -0.668289  0  2.100936  0
O  O163  1  0.72933849  0.69778537  0.41862399  1  -1.359524  0  -0.384762  -0.668216  0  2.101122  0
O  O164  1  0.44755906  0.51580286  0.86437347  1  -1.213612  0  -0.577296  -0.743329  0  2.030456  0
O  O165  1  0.94755981  0.98419848  0.63562859  1  -1.213636  0  -0.577341  -0.743361  0  2.03039  0
O  O166  1  0.55244121  0.48419858  0.13562737  1  -1.213609  0  -0.577325  -0.743326  0  2.030415  0
O  O167  1  0.05244045  0.01580129  0.36437124  1  -1.213636  0  -0.577361  -0.743357  0  2.030405  0
