# generated using pymatgen
data_CuH8C8(ClO3)2
_symmetry_space_group_name_H-M   'P 1'
_cell_length_a   5.08195980
_cell_length_b   7.70724138
_cell_length_c   7.46860654
_cell_angle_alpha   97.15543919
_cell_angle_beta   99.60056118
_cell_angle_gamma   98.85383253
_symmetry_Int_Tables_number   1
_chemical_formula_structural   CuH8C8(ClO3)2
_chemical_formula_sum   'Cu1 H8 C8 Cl2 O6'
_cell_volume   281.58685179
_cell_formula_units_Z   1
loop_
 _symmetry_equiv_pos_site_id
 _symmetry_equiv_pos_as_xyz
  1  'x, y, z'
loop_
 _atom_site_type_symbol
 _atom_site_label
 _atom_site_symmetry_multiplicity
 _atom_site_fract_x
 _atom_site_fract_y
 _atom_site_fract_z
 _atom_site_occupancy
 _atom_site_hle17_ddec_charge
 _atom_site_hle17_ddec_spin_density
 _atom_site_hle17_ddec_sum_bond_order
 _atom_site_hle17_magmom
 _atom_site_hse06_10hf_ddec_charge
 _atom_site_hse06_10hf_ddec_spin_density
 _atom_site_hse06_10hf_ddec_sum_bond_order
 _atom_site_hse06_10hf_magmom
 _atom_site_hse06_ddec_charge
 _atom_site_hse06_ddec_spin_density
 _atom_site_hse06_ddec_sum_bond_order
 _atom_site_hse06_magmom
 _atom_site_pbe_cm5_charge
 _atom_site_pbe_ddec_charge
 _atom_site_pbe_ddec_spin_density
 _atom_site_pbe_ddec_sum_bond_order
 _atom_site_pbe_magmom
Cu  Cu0  1  0.99999985  0.99999923  0.99999799  1  0.968018  -0.733311  1.750354  -0.574  0.965966  -0.832967  2.128409  -0.708  1.041855  -0.885617  2.076163  -0.786  0.745976  0.915131  -0.789975  2.168712  -0.649
H  H1  1  0.74893419  0.26913741  0.33917039  1  0.052647  -9e-05  0.985423  0.0  0.063275  -9e-06  1.066769  0.0  0.06488  4e-06  1.0652  0.0  0.071358  0.062313  -4.1e-05  1.067641  0.0
H  H2  1  0.25105750  0.73086850  0.66082636  1  0.052651  -8.9e-05  0.98542  0.0  0.063255  -9e-06  1.066765  0.0  0.064878  4e-06  1.065182  0.0  0.071389  0.062294  -4.1e-05  1.067637  0.0
H  H3  1  0.68305063  0.11976730  0.49772895  1  0.071312  -0.000118  0.950289  0.0  0.089588  3.6e-05  1.014564  0.0  0.090673  3.9e-05  1.013864  0.0  0.086751  0.088853  -1.3e-05  1.015066  0.0
H  H4  1  0.31693907  0.88023858  0.50226891  1  0.07129  -0.000118  0.950419  0.0  0.089552  3.6e-05  1.014703  0.0  0.090637  3.9e-05  1.014006  0.0  0.086735  0.088818  -1.3e-05  1.015202  0.0
H  H5  1  0.02084467  0.18115874  0.46284439  1  0.081119  -8.2e-05  0.949109  0.0  0.101758  -1.6e-05  1.008471  0.0  0.102124  -5e-06  1.008802  0.0  0.088184  0.101512  -3.7e-05  1.008239  0.0
H  H6  1  0.97914773  0.81884974  0.53715685  1  0.081104  -9.6e-05  0.949114  0.0  0.101748  -1.6e-05  1.008477  0.0  0.102112  -5e-06  1.008815  0.0  0.088193  0.101503  -3.7e-05  1.008245  0.0
H  H7  1  0.58270506  0.95143515  0.21198798  1  0.363654  0.000123  0.914481  0.0  0.344246  3.5e-05  0.983827  0.0  0.354487  5.2e-05  0.971559  0.0  0.293202  0.337064  2.1e-05  0.992375  0.0
H  H8  1  0.41729876  0.04856396  0.78801580  1  0.363745  0.000122  0.914339  0.0  0.344271  3.5e-05  0.983769  0.0  0.354513  5.3e-05  0.971499  0.0  0.293202  0.337092  2.1e-05  0.992316  0.0
C  C9  1  0.74737878  0.45853361  0.86389057  1  -0.134867  -0.012474  3.809123  -0.012  -0.142605  -0.002664  4.104603  -0.003  -0.159383  -0.001707  4.12767  -0.002  -0.035038  -0.131314  -0.003665  4.089639  -0.004
C  C10  1  0.25261759  0.54146012  0.13611423  1  -0.134841  -0.012404  3.809608  -0.012  -0.142487  -0.002663  4.105059  -0.003  -0.159255  -0.001705  4.128087  -0.002  -0.035021  -0.131196  -0.003661  4.0901  -0.004
C  C11  1  0.86666966  0.32149591  0.92989393  1  0.284215  0.00313  3.810211  0.002  0.256651  -0.00013  4.094  -0.001  0.280259  0.00089  4.100914  0.0  0.112437  0.239595  -0.000286  4.090231  -0.001
C  C12  1  0.13333328  0.67847808  0.07010055  1  0.284344  0.003134  3.809609  0.002  0.25666  -0.000127  4.0935  -0.001  0.280289  0.000893  4.100355  0.0  0.112534  0.239599  -0.000283  4.089732  -0.001
C  C13  1  0.13112421  0.36384469  0.06768449  1  0.281578  0.005782  3.827727  0.004  0.259916  0.000662  4.109435  0.0  0.284915  0.001478  4.115437  0.001  0.115086  0.24171  0.000746  4.106154  0.0
C  C14  1  0.86887523  0.63616761  0.93232482  1  0.281508  0.005765  3.827809  0.004  0.259977  0.000661  4.109448  0.0  0.284967  0.001476  4.115445  0.001  0.115182  0.241778  0.000744  4.106166  0.0
C  C15  1  0.80698003  0.15174780  0.39472530  1  -0.014263  0.000462  3.658898  0.0  -0.099611  0.000238  3.92405  0.0  -0.093634  0.000232  3.926976  0.0  -0.165847  -0.103537  0.000186  3.921237  0.0
C  C16  1  0.19301675  0.84826209  0.60527263  1  -0.014199  0.000515  3.65906  0.0  -0.099484  0.000239  3.924186  0.0  -0.093529  0.000232  3.927103  0.0  -0.165827  -0.103412  0.000187  3.92137  0.0
Cl  Cl17  1  0.44940288  0.41147299  0.70587330  1  -0.010822  -0.004766  1.484825  -0.005  -0.000738  -0.000952  1.738102  -0.001  -0.002783  -0.000566  1.735857  0.0  0.038074  0.000841  -0.001491  1.739892  -0.001
Cl  Cl18  1  0.55060132  0.58852758  0.29412539  1  -0.010807  -0.004763  1.484757  -0.005  -0.000733  -0.000954  1.737999  -0.001  -0.002779  -0.000568  1.735747  -0.001  0.038103  0.000842  -0.001494  1.739793  -0.001
O  O19  1  0.76708016  0.15544909  0.88316318  1  -0.467003  -0.058035  2.140211  -0.083  -0.433207  -0.039368  2.40062  -0.061  -0.467769  -0.028736  2.395774  -0.048  -0.274354  -0.409644  -0.047782  2.404366  -0.071
O  O20  1  0.23293553  0.84455701  0.11682827  1  -0.467152  -0.058079  2.13939  -0.083  -0.433307  -0.039385  2.399813  -0.061  -0.467878  -0.028746  2.394969  -0.048  -0.27448  -0.409744  -0.047803  2.403577  -0.071
O  O21  1  0.23064668  0.23039872  0.11459450  1  -0.426874  -0.067876  2.063297  -0.097  -0.402001  -0.043718  2.32341  -0.068  -0.435413  -0.031551  2.319639  -0.053  -0.272857  -0.378875  -0.053881  2.326117  -0.079
O  O22  1  0.76935513  0.76958568  0.88541082  1  -0.426763  -0.067827  2.063588  -0.096  -0.402014  -0.0437  2.323767  -0.068  -0.435414  -0.031538  2.319989  -0.053  -0.272901  -0.378895  -0.053859  2.326474  -0.079
O  O23  1  0.77646910  0.00279473  0.25266851  1  -0.56474  0.000552  2.198794  -0.002  -0.52031  0.002369  2.454236  0.001  -0.539351  0.002676  2.442343  0.001  -0.430024  -0.506134  0.001227  2.461909  0.0
O  O24  1  0.22353419  0.99720978  0.74733202  1  -0.564855  0.000543  2.19873  -0.002  -0.520364  0.002369  2.45422  0.001  -0.539403  0.002677  2.442328  0.001  -0.430056  -0.506192  0.001229  2.461896  0.0
