# generated using pymatgen
data_Zn4H34C51N4O15
_symmetry_space_group_name_H-M   'P 1'
_cell_length_a   15.32172911
_cell_length_b   15.53792174
_cell_length_c   19.45630842
_cell_angle_alpha   81.20877454
_cell_angle_beta   76.63749498
_cell_angle_gamma   72.65262507
_symmetry_Int_Tables_number   1
_chemical_formula_structural   Zn4H34C51N4O15
_chemical_formula_sum   'Zn4 H34 C51 N4 O15'
_cell_volume   4283.94029102
_cell_formula_units_Z   1
loop_
 _symmetry_equiv_pos_site_id
 _symmetry_equiv_pos_as_xyz
  1  'x, y, z'
loop_
 _atom_site_type_symbol
 _atom_site_label
 _atom_site_symmetry_multiplicity
 _atom_site_fract_x
 _atom_site_fract_y
 _atom_site_fract_z
 _atom_site_occupancy
 _atom_site_pbe_bader_charge
 _atom_site_pbe_bader_spin_density
 _atom_site_pbe_cm5_charge
 _atom_site_pbe_ddec_charge
 _atom_site_pbe_ddec_spin_density
 _atom_site_pbe_ddec_sum_bond_order
 _atom_site_pbe_magmom
Zn  Zn0  1  0.40315030  0.58022497  0.45342162  1  1.311564  0  0.669258  0.973243  0  2.317715  0
Zn  Zn1  1  0.42178061  0.44612279  0.59192887  1  1.31377  0  0.675529  0.958524  0  2.403524  0
Zn  Zn2  1  0.57178758  0.54053931  0.53618163  1  1.308585  0  0.683108  0.963261  0  2.393704  0
Zn  Zn3  1  0.57559360  0.39284913  0.44167859  1  1.321381  0  0.674139  0.983162  0  2.268139  0
H  H4  1  0.39450060  0.63466584  0.23793979  1  0.074688  0  0.106316  0.110849  0  0.995539  0
H  H5  1  0.62260831  0.50078833  0.74963152  1  0.065685  0  0.100566  0.098484  0  1.018104  0
H  H6  1  0.40138319  0.61684766  0.00522297  1  0.030602  0  0.100122  0.096899  0  1.004773  0
H  H7  1  0.64410206  0.41066775  0.09389261  1  0.050975  0  0.102047  0.101122  0  0.996223  0
H  H8  1  0.62511223  0.51427341  0.87382957  1  0.049892  0  0.098902  0.10378  0  1.015154  0
H  H9  1  0.62698210  0.39666845  0.22532940  1  0.098291  0  0.107953  0.113762  0  0.991605  0
H  H10  1  0.59979641  0.48788409  0.98712151  1  0.053738  0  0.101233  0.098747  0  1.006495  0
H  H11  1  0.40928650  0.64895183  0.10747017  1  0.045459  0  0.102507  0.101697  0  1.003578  0
H  H12  1  0.32829323  0.63929562  0.90897355  1  0.048053  0  0.101213  0.105552  0  1.007014  0
H  H13  1  0.48876023  0.17982004  0.68357193  1  0.137066  0  0.122042  0.139753  0  0.98707  0
H  H14  1  0.50117565  0.86573135  0.69011737  1  0.10596  0  0.107345  0.12599  0  1.02508  0
H  H15  1  0.50951535  0.13509640  0.46784579  1  0.083643  0  0.111175  0.115493  0  1.008278  0
H  H16  1  0.45219762  0.81338416  0.36433293  1  0.078382  0  0.110549  0.113551  0  0.981892  0
H  H17  1  0.46203495  0.07085298  0.41048913  1  0.086704  0  0.107031  0.107107  0  1.004901  0
H  H18  1  0.44396635  0.97580755  0.32761540  1  0.077007  0  0.108728  0.10569  0  0.98195  0
H  H19  1  0.13278402  0.53904714  0.66708872  1  0.071154  0  0.105364  0.109839  0  0.999128  0
H  H20  1  0.96832668  0.53461249  0.70009914  1  0.073751  0  0.104275  0.103429  0  1.025015  0
H  H21  1  0.14208733  0.49977183  0.45232499  1  0.076498  0  0.10535  0.107788  0  1.017168  0
H  H22  1  0.86207472  0.37491784  0.34670543  1  0.087834  0  0.106802  0.111914  0  0.995927  0
H  H23  1  0.09009538  0.45166696  0.38877262  1  0.057175  0  0.103476  0.099117  0  1.008616  0
H  H24  1  0.02322251  0.39380263  0.30857460  1  0.088039  0  0.101588  0.100197  0  0.995631  0
H  H25  1  0.75948484  0.46594436  0.58469590  1  0.10034  0  0.102125  0.12773  0  1.069201  0
H  H26  1  0.51621712  0.72849074  0.65916425  1  0.38401  0  0.295138  0.236321  0  0.95698  0
H  H27  1  0.65779791  0.63134747  0.60400809  1  0.070092  0  0.096231  0.108499  0  1.041479  0
H  H28  1  0.67500613  0.73771807  0.61282570  1  0.032875  0  0.085253  0.082896  0  1.008603  0
H  H29  1  0.66230821  0.71296150  0.52941770  1  0.099382  0  0.103712  0.124075  0  0.995818  0
H  H30  1  0.74915434  0.51089121  0.68685278  1  0.412747  0  0.29964  0.238582  0  0.981472  0
H  H31  1  0.72659305  0.63759699  0.73436122  1  0.057101  0  0.102313  0.108285  0  0.994851  0
H  H32  1  0.82706061  0.65767529  0.67484169  1  0.042784  0  0.101  0.105961  0  0.994684  0
H  H33  1  0.83738100  0.59373565  0.75826475  1  0.028388  0  0.09361  0.095694  0  0.993648  0
H  H34  1  0.25534758  0.67106037  0.81936748  1  0.433294  0  0.316163  0.252258  0  0.94177  0
H  H35  1  0.23375069  0.73290790  0.71068345  1  0.044543  0  0.10793  0.110998  0  0.976779  0
H  H36  1  0.28314553  0.62181182  0.68141252  1  0.073538  0  0.097297  0.112819  0  1.012578  0
H  H37  1  0.35552434  0.69387427  0.67691275  1  0.05389  0  0.099796  0.10577  0  1.004388  0
C  C38  1  0.50579210  0.26073658  0.55023198  1  1.544822  0  0.231069  0.614769  0  4.152451  0
C  C39  1  0.48770337  0.71560380  0.47812464  1  1.558826  0  0.228628  0.609642  0  4.162002  0
C  C40  1  0.24394757  0.52545008  0.54000951  1  1.562395  0  0.227056  0.610223  0  4.16032  0
C  C41  1  0.74157672  0.41439551  0.46426886  1  1.508782  0  0.220621  0.60302  0  4.141801  0
C  C42  1  0.48341838  0.53324255  0.68646317  1  1.527477  0  0.221535  0.604644  0  4.177521  0
C  C43  1  0.49807563  0.50483308  0.31836518  1  1.563456  0  0.225469  0.607982  0  4.161722  0
C  C44  1  0.50893400  0.51399419  0.23970800  1  -0.064869  0  -0.023078  -0.046713  0  3.982266  0
C  C45  1  0.44830971  0.58543927  0.20578399  1  -0.016073  0  -0.083001  -0.088903  0  3.995823  0
C  C46  1  0.45668224  0.59268387  0.13276101  1  -0.001712  0  -0.090523  -0.134301  0  3.97023  0
C  C47  1  0.52637935  0.52917246  0.09091314  1  -0.03294  0  -0.006678  0.1215  0  4.040513  0
C  C48  1  0.58875860  0.45964383  0.12543168  1  -0.025689  0  -0.090338  -0.139059  0  3.97459  0
C  C49  1  0.57970845  0.45140529  0.19870775  1  -0.035243  0  -0.081931  -0.085587  0  3.989516  0
C  C50  1  0.55965710  0.53862221  0.85494358  1  0.006968  0  -0.113834  -0.178764  0  4.020207  0
C  C51  1  0.55855156  0.53268424  0.78515375  1  -0.083845  0  -0.091854  -0.08195  0  4.051546  0
C  C52  1  0.39087045  0.60281422  0.80241275  1  0.411897  0  0.107946  0.231016  0  4.073299  0
C  C53  1  0.39343718  0.60795860  0.87387496  1  -0.053121  0  -0.102827  -0.254595  0  3.936506  0
C  C54  1  0.47476628  0.57482878  0.90154772  1  0.042442  0  -0.009322  0.140079  0  4.080581  0
C  C55  1  0.53494983  0.53151104  0.01459495  1  -0.084845  0  -0.089374  -0.132903  0  3.993807  0
C  C56  1  0.46843500  0.57751873  0.97708109  1  0.012245  0  -0.087224  -0.122726  0  3.982466  0
C  C57  1  0.47582465  0.56047386  0.75774225  1  0.020722  0  -0.038294  -0.161997  0  3.952938  0
C  C58  1  0.48420359  0.04837305  0.66637144  1  0.186132  0  0.075686  0.017448  0  3.897476  0
C  C59  1  0.49980648  0.16607944  0.57253107  1  0.06716  0  -0.019516  -0.037159  0  4.003941  0
C  C60  1  0.46485443  0.85443441  0.39974245  1  -0.040681  0  -0.082429  -0.098168  0  3.985943  0
C  C61  1  0.45949162  0.94591458  0.37935026  1  0.007032  0  -0.087547  -0.074739  0  4.055094  0
C  C62  1  0.47058463  0.99892481  0.42591069  1  -0.061618  0  -0.086281  -0.129134  0  3.99739  0
C  C63  1  0.48766158  0.96250803  0.49407462  1  -0.026127  0  0.00211  0.047942  0  3.946852  0
C  C64  1  0.49678672  0.86799417  0.51437377  1  0.013583  0  0.002969  -0.017539  0  3.890913  0
C  C65  1  0.49136538  0.02116848  0.54455420  1  0.047319  0  0.000381  0.027841  0  3.948329  0
C  C66  1  0.48649562  0.98744414  0.61768730  1  -0.004755  0  0.00557  0.064631  0  4.002375  0
C  C67  1  0.49646871  0.89351793  0.63583004  1  -0.002286  0  -0.104631  -0.253811  0  3.996638  0
C  C68  1  0.50927144  0.83463519  0.58613807  1  0.322271  0  0.097811  0.20386  0  4.027556  0
C  C69  1  0.50057561  0.10922396  0.52349312  1  -0.033748  0  -0.06651  -0.112149  0  3.91919  0
C  C70  1  0.49045082  0.13550857  0.64482271  1  -0.010963  0  -0.068133  -0.12363  0  3.95638  0
C  C71  1  0.48478705  0.81463739  0.46549327  1  0.007971  0  -0.003653  -0.044743  0  3.892545  0
C  C72  1  0.00521347  0.52811287  0.64545277  1  -0.101723  0  -0.0906  -0.119203  0  4.011636  0
C  C73  1  0.14462026  0.52335847  0.55657151  1  -0.013827  0  -0.02009  -0.031924  0  4.004682  0
C  C74  1  0.89294005  0.39912546  0.38244802  1  -0.030337  0  -0.079521  -0.074661  0  3.998287  0
C  C75  1  0.98279500  0.41019227  0.36113695  1  -0.049453  0  -0.104879  -0.112447  0  4.076532  0
C  C76  1  0.02012460  0.44312263  0.40675944  1  -0.063024  0  -0.082164  -0.102702  0  3.995542  0
C  C77  1  0.97031994  0.46458054  0.47524369  1  0.006498  0  -0.011003  0.00687  0  3.954053  0
C  C78  1  0.87829479  0.45219295  0.49831504  1  -0.028723  0  0.002565  0.098083  0  3.956647  0
C  C79  1  0.01076500  0.49586785  0.52434033  1  -0.028368  0  0.000137  0.045794  0  3.949055  0
C  C80  1  0.95998947  0.51221509  0.59487145  1  0.022733  0  -0.007634  -0.00035  0  3.96182  0
C  C81  1  0.86549466  0.50560594  0.61431601  1  0.389512  0  0.097251  0.192027  0  4.090615  0
C  C82  1  0.82940145  0.47393815  0.56766921  1  -0.00297  0  -0.120946  -0.28247  0  3.99727  0
C  C83  1  0.10189671  0.50704534  0.50613644  1  -0.002996  0  -0.078354  -0.137123  0  3.931227  0
C  C84  1  0.09656907  0.53104656  0.62750467  1  -0.013356  0  -0.09127  -0.10448  0  4.020293  0
C  C85  1  0.83950901  0.42038212  0.44924898  1  -0.007205  0  -0.024179  -0.108037  0  3.9163  0
C  C86  1  0.63898587  0.70378831  0.58691558  1  0.171368  0  -0.153855  -0.225776  0  3.936572  0
C  C87  1  0.80087907  0.60738419  0.71358817  1  0.278355  0  -0.135943  -0.215334  0  3.986583  0
C  C88  1  0.29439190  0.67329285  0.70876961  1  0.295414  0  -0.136304  -0.208923  0  3.968515  0
N  N89  1  0.47586195  0.02115421  0.74297894  1  0.353019  0  0.051677  0.520319  0  4.194262  0
N  N90  1  0.53658437  0.74055086  0.60561392  1  -1.058576  0  -0.465308  -0.341822  0  3.463145  0
N  N91  1  0.81104348  0.52523102  0.68090118  1  -1.158586  0  -0.454742  -0.306144  0  3.527461  0
N  N92  1  0.30741745  0.64111012  0.78079224  1  -1.218467  0  -0.438095  -0.277579  0  3.590315  0
O  O93  1  0.49107468  0.48730693  0.50206384  1  -1.229711  0  -0.577859  -1.033478  0  2.544145  0
O  O94  1  0.54183782  0.27946597  0.48568827  1  -1.171157  0  -0.313378  -0.54679  0  2.28777  0
O  O95  1  0.41099542  0.69765144  0.47995805  1  -1.158027  0  -0.314862  -0.551588  0  2.269524  0
O  O96  1  0.28835982  0.49057600  0.59014120  1  -1.180841  0  -0.318534  -0.55842  0  2.361393  0
O  O97  1  0.68727445  0.44255094  0.52203233  1  -1.203415  0  -0.332887  -0.572596  0  2.421749  0
O  O98  1  0.42036567  0.50023388  0.67729332  1  -1.163057  0  -0.308864  -0.530289  0  2.340526  0
O  O99  1  0.54250043  0.42987895  0.34682340  1  -1.180677  0  -0.319235  -0.555721  0  2.323258  0
O  O100  1  0.55595801  0.53992866  0.63953812  1  -1.181448  0  -0.32101  -0.569676  0  2.392127  0
O  O101  1  0.44418344  0.57303177  0.35081401  1  -1.177191  0  -0.322295  -0.556932  0  2.319551  0
O  O102  1  0.27675899  0.56108611  0.47961882  1  -1.164523  0  -0.315516  -0.54456  0  2.279929  0
O  O103  1  0.71250284  0.38276077  0.41919331  1  -1.156184  0  -0.314976  -0.544289  0  2.254774  0
O  O104  1  0.47309375  0.31462313  0.59927407  1  -1.158936  0  -0.317713  -0.545858  0  2.330481  0
O  O105  1  0.56661216  0.65723558  0.47874589  1  -1.167707  0  -0.313905  -0.547111  0  2.34753  0
O  O106  1  0.43290699  0.96362350  0.76935618  1  -0.478708  0  -0.151778  -0.352956  0  1.886121  0
O  O107  1  0.51105080  0.05837045  0.77729228  1  -0.429573  0  -0.150629  -0.348725  0  1.854254  0
