# generated using pymatgen
data_HgH8C16(N6Cl)2
_symmetry_space_group_name_H-M   'P 1'
_cell_length_a   6.90262011
_cell_length_b   17.06408460
_cell_length_c   17.06456206
_cell_angle_alpha   89.99860716
_cell_angle_beta   89.99888950
_cell_angle_gamma   89.99781222
_symmetry_Int_Tables_number   1
_chemical_formula_structural   HgH8C16(N6Cl)2
_chemical_formula_sum   'Hg4 H32 C64 N48 Cl8'
_cell_volume   2009.98175349
_cell_formula_units_Z   4
loop_
 _symmetry_equiv_pos_site_id
 _symmetry_equiv_pos_as_xyz
  1  'x, y, z'
loop_
 _atom_site_type_symbol
 _atom_site_label
 _atom_site_symmetry_multiplicity
 _atom_site_fract_x
 _atom_site_fract_y
 _atom_site_fract_z
 _atom_site_occupancy
 _atom_site_pbe_bader_charge
 _atom_site_pbe_bader_spin_density
 _atom_site_pbe_cm5_charge
 _atom_site_pbe_ddec_charge
 _atom_site_pbe_ddec_spin_density
 _atom_site_pbe_ddec_sum_bond_order
 _atom_site_pbe_magmom
Hg  Hg0  1  0.25000081  0.32950472  0.67049338  1  0.89315  0  0.572647  0.578886  0  2.676536  0
Hg  Hg1  1  0.75001144  0.67049646  0.32951760  1  0.893067  0  0.572663  0.578875  0  2.676481  0
Hg  Hg2  1  0.00002135  0.82956152  0.82955999  1  0.893516  0  0.5726  0.578852  0  2.676664  0
Hg  Hg3  1  0.49997932  0.17043726  0.17043408  1  0.893788  0  0.572612  0.578613  0  2.677077  0
H  H4  1  0.09808381  0.49155147  0.87107432  1  0.109786  0  0.117948  0.095273  0  0.973645  0
H  H5  1  0.59810178  0.50845393  0.12893133  1  0.108961  0  0.117937  0.095278  0  0.973673  0
H  H6  1  0.84822450  0.62894833  0.99163904  1  0.110537  0  0.118071  0.095664  0  0.974062  0
H  H7  1  0.34816970  0.37103428  0.00837590  1  0.110676  0  0.118085  0.095726  0  0.973998  0
H  H8  1  0.65172828  0.00836865  0.37099733  1  0.112163  0  0.118009  0.095604  0  0.974241  0
H  H9  1  0.15181365  0.99163881  0.62898565  1  0.111142  0  0.117973  0.095581  0  0.973863  0
H  H10  1  0.90192612  0.87105486  0.49157442  1  0.109889  0  0.118062  0.095603  0  0.973758  0
H  H11  1  0.40194900  0.12895852  0.50842780  1  0.10938  0  0.118046  0.095523  0  0.973757  0
H  H12  1  0.28591465  0.61298754  0.91296540  1  0.12185  0  0.113641  0.116126  0  0.992615  0
H  H13  1  0.78589063  0.38700545  0.08702479  1  0.12164  0  0.113647  0.1161  0  0.992643  0
H  H14  1  0.03602946  0.58710454  0.11312367  1  0.122872  0  0.113623  0.116233  0  0.993076  0
H  H15  1  0.53599748  0.41288545  0.88689768  1  0.123165  0  0.113664  0.116289  0  0.993107  0
H  H16  1  0.46397486  0.88687913  0.41286537  1  0.123704  0  0.113585  0.116096  0  0.993038  0
H  H17  1  0.96396910  0.11311685  0.58713581  1  0.123691  0  0.113633  0.116199  0  0.993221  0
H  H18  1  0.71410698  0.91296632  0.61300697  1  0.121499  0  0.113602  0.116071  0  0.992672  0
H  H19  1  0.21408472  0.08705010  0.38700955  1  0.121677  0  0.1137  0.116129  0  0.992675  0
H  H20  1  0.35884437  0.71431386  0.81177291  1  0.134962  0  0.099407  0.108802  0  1.024629  0
H  H21  1  0.85880408  0.28567326  0.18821206  1  0.134885  0  0.099418  0.108885  0  1.024728  0
H  H22  1  0.10883382  0.68836453  0.21437001  1  0.136504  0  0.099467  0.108745  0  1.024449  0
H  H23  1  0.60885375  0.31163425  0.78564201  1  0.136441  0  0.099464  0.10883  0  1.024388  0
H  H24  1  0.39117919  0.78562090  0.31162255  1  0.135647  0  0.099439  0.108718  0  1.024467  0
H  H25  1  0.89110703  0.21437332  0.68838269  1  0.135907  0  0.099429  0.108698  0  1.024384  0
H  H26  1  0.64114104  0.81178181  0.71434011  1  0.134284  0  0.099426  0.108959  0  1.024354  0
H  H27  1  0.14114375  0.18823227  0.28566347  1  0.134506  0  0.099422  0.10887  0  1.024285  0
H  H28  1  0.23213002  0.69711257  0.67586913  1  0.132069  0  0.106898  0.124237  0  1.034824  0
H  H29  1  0.73211755  0.30288773  0.32412205  1  0.132314  0  0.106937  0.124244  0  1.034855  0
H  H30  1  0.98227907  0.82426067  0.19708311  1  0.13327  0  0.106935  0.12449  0  1.034927  0
H  H31  1  0.48228286  0.17573735  0.80291384  1  0.133524  0  0.10695  0.124504  0  1.03488  0
H  H32  1  0.51774538  0.80288762  0.17573441  1  0.132651  0  0.10709  0.124645  0  1.034875  0
H  H33  1  0.01769111  0.19709915  0.82427184  1  0.133262  0  0.106995  0.124563  0  1.035025  0
H  H34  1  0.76784876  0.67585926  0.69714425  1  0.131616  0  0.106857  0.124075  0  1.034864  0
H  H35  1  0.26788906  0.32415101  0.30284902  1  0.131622  0  0.106928  0.124082  0  1.034829  0
C  C36  1  0.13398071  0.53831422  0.82979392  1  0.561342  0  0.064173  0.088468  0  3.965653  0
C  C37  1  0.63398342  0.46169177  0.17020561  1  0.562172  0  0.064228  0.088504  0  3.965599  0
C  C38  1  0.88411426  0.67023638  0.03837515  1  0.537886  0  0.063831  0.087402  0  3.966277  0
C  C39  1  0.38406283  0.32974975  0.96164069  1  0.538645  0  0.063616  0.08712  0  3.965875  0
C  C40  1  0.61584925  0.96162538  0.32971731  1  0.538204  0  0.063602  0.087112  0  3.966963  0
C  C41  1  0.11591413  0.03838325  0.67027414  1  0.538397  0  0.063553  0.087195  0  3.966437  0
C  C42  1  0.86603029  0.82978955  0.53833512  1  0.561435  0  0.063973  0.087691  0  3.965646  0
C  C43  1  0.36606340  0.17021914  0.46166386  1  0.537705  0  0.064065  0.087942  0  3.96536  0
C  C44  1  0.23809121  0.60519451  0.85263304  1  0.005009  0  -0.058654  -0.079266  0  3.904332  0
C  C45  1  0.73806199  0.39480159  0.14735693  1  0.005547  0  -0.058618  -0.079042  0  3.904462  0
C  C46  1  0.98809585  0.64742307  0.10528915  1  0.030342  0  -0.058664  -0.079205  0  3.905004  0
C  C47  1  0.48808631  0.35256489  0.89473471  1  0.029061  0  -0.058723  -0.079293  0  3.905275  0
C  C48  1  0.51190566  0.89471406  0.35254301  1  0.028841  0  -0.058384  -0.078773  0  3.904982  0
C  C49  1  0.01191640  0.10528160  0.64745039  1  0.029882  0  -0.058476  -0.07899  0  3.905192  0
C  C50  1  0.76191493  0.85262936  0.60522473  1  0.005616  0  -0.058437  -0.078595  0  3.904106  0
C  C51  1  0.26191726  0.14738746  0.39478264  1  0.030432  0  -0.058563  -0.078808  0  3.904173  0
C  C52  1  0.27336938  0.66280597  0.79677727  1  -0.050094  0  -0.07012  -0.034595  0  3.958073  0
C  C53  1  0.77333384  0.33718605  0.20320950  1  -0.050445  0  -0.070208  -0.035006  0  3.958526  0
C  C54  1  0.02328867  0.70331596  0.16285637  1  -0.05199  0  -0.070141  -0.034656  0  3.958802  0
C  C55  1  0.52329720  0.29667892  0.83716097  1  -0.05105  0  -0.069958  -0.034586  0  3.958649  0
C  C56  1  0.47672447  0.83712975  0.29666488  1  -0.051685  0  -0.070303  -0.034762  0  3.958379  0
C  C57  1  0.97667938  0.16285840  0.70333914  1  -0.052306  0  -0.070204  -0.034649  0  3.958101  0
C  C58  1  0.72663808  0.79677538  0.66283264  1  -0.049854  0  -0.070239  -0.035142  0  3.958707  0
C  C59  1  0.22664698  0.20324201  0.33717382  1  -0.050267  0  -0.070204  -0.035011  0  3.958735  0
C  C60  1  0.97620902  0.38696180  0.51417774  1  0.916577  0  0.20881  0.193407  0  4.032755  0
C  C61  1  0.47619666  0.61304218  0.48582862  1  0.9167  0  0.208706  0.19315  0  4.032962  0
C  C62  1  0.72624869  0.98587568  0.88686129  1  0.913567  0  0.208527  0.192634  0  4.032726  0
C  C63  1  0.22624393  0.01411944  0.11313462  1  0.913681  0  0.208518  0.192665  0  4.033024  0
C  C64  1  0.77375580  0.11312886  0.01412152  1  0.913499  0  0.208448  0.192504  0  4.032802  0
C  C65  1  0.27376305  0.88686491  0.98587404  1  0.913778  0  0.208511  0.192722  0  4.032759  0
C  C66  1  0.02380439  0.51417856  0.38696931  1  0.916769  0  0.208836  0.193451  0  4.032952  0
C  C67  1  0.52379995  0.48582042  0.61302752  1  0.91664  0  0.208845  0.193201  0  4.032899  0
C  C68  1  0.00648623  0.46887481  0.52878605  1  0.585638  0  0.152144  0.129629  0  3.959655  0
C  C69  1  0.50648342  0.53113968  0.47120505  1  0.585963  0  0.152322  0.129686  0  3.959482  0
C  C70  1  0.75656909  0.97130935  0.96876970  1  0.58547  0  0.152209  0.12996  0  3.959741  0
C  C71  1  0.25655557  0.02867591  0.03122892  1  0.565201  0  0.152347  0.129928  0  3.959994  0
C  C72  1  0.74344165  0.03121244  0.02867384  1  0.549242  0  0.152198  0.129735  0  3.960204  0
C  C73  1  0.24344225  0.96877772  0.97131785  1  0.570658  0  0.152131  0.129687  0  3.960156  0
C  C74  1  0.99350300  0.52878523  0.46887974  1  0.548539  0  0.151986  0.12912  0  3.959941  0
C  C75  1  0.49350693  0.47122199  0.53111829  1  0.54908  0  0.152056  0.129426  0  3.959328  0
C  C76  1  0.03537866  0.56590765  0.62282585  1  0.629862  0  0.170208  0.154891  0  3.917232  0
C  C77  1  0.53539079  0.43410521  0.37716620  1  0.630267  0  0.170608  0.15529  0  3.916774  0
C  C78  1  0.78555760  0.87727344  0.06583224  1  0.630429  0  0.170333  0.155205  0  3.915493  0
C  C79  1  0.28554650  0.12271487  0.93416558  1  0.591209  0  0.170281  0.155091  0  3.91521  0
C  C80  1  0.71445306  0.93414774  0.12271168  1  0.591881  0  0.170231  0.155302  0  3.915398  0
C  C81  1  0.21444271  0.06583702  0.87728315  1  0.630428  0  0.170241  0.155183  0  3.914831  0
C  C82  1  0.96463046  0.62282273  0.56592603  1  0.591993  0  0.170121  0.154974  0  3.917067  0
C  C83  1  0.46464052  0.37718261  0.43407632  1  0.592413  0  0.170162  0.154825  0  3.916405  0
C  C84  1  0.20065438  0.65384420  0.72118884  1  0.016874  0  -0.062714  -0.11718  0  3.860668  0
C  C85  1  0.70065333  0.34615954  0.27880082  1  0.017007  0  -0.062692  -0.117  0  3.860563  0
C  C86  1  0.95080141  0.77891592  0.15383449  1  0.012638  0  -0.063036  -0.117622  0  3.861628  0
C  C87  1  0.45077575  0.22108203  0.84616386  1  0.012045  0  -0.063031  -0.117565  0  3.861441  0
C  C88  1  0.54921874  0.84614726  0.22106103  1  0.013143  0  -0.0632  -0.117672  0  3.861484  0
C  C89  1  0.04918080  0.15384603  0.77894147  1  0.012641  0  -0.063155  -0.117743  0  3.861783  0
C  C90  1  0.79930543  0.72118807  0.65386734  1  0.016346  0  -0.062489  -0.116678  0  3.860572  0
C  C91  1  0.29935342  0.27881935  0.34613154  1  0.016125  0  -0.062654  -0.116914  0  3.860865  0
C  C92  1  0.09884300  0.58454824  0.70271024  1  0.51372  0  0.130644  0.163483  0  3.96232  0
C  C93  1  0.59886230  0.41546418  0.29727900  1  0.51351  0  0.130554  0.163456  0  3.962145  0
C  C94  1  0.84917425  0.79741139  0.08450383  1  0.516723  0  0.130816  0.163525  0  3.961592  0
C  C95  1  0.34914386  0.20258350  0.91549527  1  0.516711  0  0.130792  0.163396  0  3.961615  0
C  C96  1  0.65081228  0.91547473  0.20257765  1  0.516  0  0.130787  0.163162  0  3.961884  0
C  C97  1  0.15081153  0.08451868  0.79740769  1  0.51612  0  0.130672  0.163288  0  3.962273  0
C  C98  1  0.90114325  0.70269486  0.58457564  1  0.51364  0  0.130783  0.163549  0  3.961788  0
C  C99  1  0.40115856  0.29730388  0.41543011  1  0.51386  0  0.130745  0.163618  0  3.961657  0
N  N100  1  0.97956667  0.26163932  0.52786258  1  -0.082455  0  -0.068449  -0.046373  0  3.146497  0
N  N101  1  0.47956109  0.73836753  0.47214435  1  -0.082581  0  -0.068389  -0.046404  0  3.146351  0
N  N102  1  0.72953094  0.97212666  0.76155439  1  -0.083145  0  -0.068832  -0.046729  0  3.146713  0
N  N103  1  0.22948529  0.02788658  0.23843915  1  -0.083536  0  -0.068803  -0.046734  0  3.146995  0
N  N104  1  0.77047424  0.23843928  0.02789534  1  -0.083168  0  -0.068984  -0.047012  0  3.147065  0
N  N105  1  0.27051665  0.76155044  0.97211548  1  -0.08135  0  -0.0688  -0.046734  0  3.146972  0
N  N106  1  0.02046617  0.52786206  0.26165156  1  -0.08183  0  -0.068726  -0.046931  0  3.147304  0
N  N107  1  0.52044070  0.47212642  0.73834999  1  -0.081847  0  -0.068733  -0.047021  0  3.14695  0
N  N108  1  0.87827843  0.27979779  0.46241130  1  -0.090335  0  -0.077536  -0.050336  0  3.175301  0
N  N109  1  0.37823642  0.72020777  0.53759872  1  -0.090196  0  -0.077501  -0.050249  0  3.174981  0
N  N110  1  0.62820963  0.03756965  0.77968145  1  -0.090575  0  -0.077143  -0.049854  0  3.174491  0
N  N111  1  0.12820092  0.96244874  0.22032164  1  -0.090742  0  -0.077275  -0.049993  0  3.174823  0
N  N112  1  0.87179268  0.22032300  0.96245243  1  -0.090761  0  -0.077203  -0.049828  0  3.174545  0
N  N113  1  0.37180678  0.77967036  0.03755120  1  -0.092622  0  -0.077306  -0.05001  0  3.174704  0
N  N114  1  0.12176933  0.46241128  0.27980832  1  -0.091765  0  -0.077514  -0.050263  0  3.175704  0
N  N115  1  0.62175191  0.53758612  0.72019247  1  -0.09097  0  -0.077473  -0.050119  0  3.175139  0
N  N116  1  0.03836519  0.32755044  0.56104045  1  -0.624332  0  -0.187374  -0.169761  0  3.435973  0
N  N117  1  0.53835272  0.67246003  0.43896682  1  -0.624287  0  -0.187347  -0.169586  0  3.435928  0
N  N118  1  0.78841565  0.93899146  0.82747599  1  -0.62631  0  -0.187254  -0.169375  0  3.435848  0
N  N119  1  0.28838338  0.06102141  0.17251067  1  -0.625956  0  -0.187162  -0.169183  0  3.435274  0
N  N120  1  0.71158569  0.17250965  0.06101998  1  -0.626071  0  -0.187101  -0.169078  0  3.435533  0
N  N121  1  0.21162818  0.82748043  0.93897722  1  -0.626477  0  -0.187206  -0.16939  0  3.435187  0
N  N122  1  0.96164910  0.56104091  0.32756087  1  -0.624637  0  -0.187303  -0.169456  0  3.43607  0
N  N123  1  0.46166039  0.43895217  0.67244209  1  -0.624402  0  -0.187074  -0.169061  0  3.43602  0
N  N124  1  0.87678303  0.35664353  0.45259061  1  -0.597177  0  -0.185654  -0.22059  0  3.267342  0
N  N125  1  0.37677207  0.64336499  0.54742294  1  -0.596405  0  -0.18561  -0.22042  0  3.267623  0
N  N126  1  0.62676141  0.04744093  0.85652421  1  -0.594332  0  -0.185707  -0.220667  0  3.26629  0
N  N127  1  0.12677342  0.95255873  0.14347537  1  -0.594263  0  -0.185778  -0.220785  0  3.266135  0
N  N128  1  0.87324512  0.14347691  0.95256503  1  -0.593348  0  -0.18568  -0.220681  0  3.266193  0
N  N129  1  0.37323151  0.85651994  0.04743507  1  -0.593395  0  -0.185692  -0.220628  0  3.266066  0
N  N130  1  0.12325132  0.45258912  0.35665306  1  -0.595634  0  -0.185616  -0.220466  0  3.267376  0
N  N131  1  0.62322097  0.54741001  0.64335416  1  -0.596994  0  -0.18562  -0.220505  0  3.267645  0
N  N132  1  0.04302168  0.49077049  0.60247930  1  -1.160451  0  -0.274308  -0.252011  0  3.357545  0
N  N133  1  0.54303037  0.50924224  0.39750976  1  -1.160652  0  -0.274515  -0.252234  0  3.358068  0
N  N134  1  0.79324199  0.89762420  0.99069895  1  -1.160058  0  -0.274434  -0.252354  0  3.358165  0
N  N135  1  0.29322294  0.10235871  0.00929823  1  -1.160568  0  -0.274541  -0.2523  0  3.358117  0
N  N136  1  0.70677644  0.00927395  0.10235032  1  -1.159483  0  -0.274389  -0.252168  0  3.358589  0
N  N137  1  0.20677009  0.99070684  0.89764047  1  -1.160097  0  -0.274396  -0.252144  0  3.358412  0
N  N138  1  0.95698401  0.60248098  0.49078754  1  -1.160294  0  -0.274348  -0.2518  0  3.357158  0
N  N139  1  0.45699134  0.39752214  0.50921662  1  -1.159899  0  -0.274396  -0.251859  0  3.356963  0
N  N140  1  0.07045926  0.52877159  0.75737108  1  -1.121314  0  -0.255911  -0.174159  0  3.340695  0
N  N141  1  0.57045746  0.47124714  0.24262657  1  -1.121504  0  -0.256003  -0.174251  0  3.340563  0
N  N142  1  0.82073965  0.74269797  0.02878035  1  -1.122741  0  -0.255748  -0.17366  0  3.339653  0
N  N143  1  0.32070585  0.25729035  0.97122659  1  -1.122784  0  -0.25563  -0.173424  0  3.339356  0
N  N144  1  0.67924542  0.97121548  0.25725861  1  -1.123384  0  -0.255752  -0.173571  0  3.33977  0
N  N145  1  0.17928577  0.02878509  0.74273003  1  -1.123177  0  -0.255693  -0.173684  0  3.340304  0
N  N146  1  0.92954301  0.75735339  0.52879377  1  -1.120446  0  -0.256231  -0.174498  0  3.340532  0
N  N147  1  0.42957925  0.24265252  0.47121001  1  -1.121063  0  -0.256186  -0.174401  0  3.340253  0
Cl  Cl148  1  0.01541226  0.35254905  0.77644805  1  -0.411165  0  -0.209132  -0.319167  0  1.185352  0
Cl  Cl149  1  0.51538685  0.64746295  0.22357170  1  -0.411062  0  -0.209082  -0.319063  0  1.185234  0
Cl  Cl150  1  0.76532045  0.72362321  0.85255874  1  -0.41127  0  -0.209121  -0.319166  0  1.184765  0
Cl  Cl151  1  0.26531930  0.27638651  0.14741931  1  -0.411196  0  -0.209093  -0.319011  0  1.184867  0
Cl  Cl152  1  0.73466682  0.14744427  0.27636941  1  -0.411166  0  -0.209175  -0.319103  0  1.184871  0
Cl  Cl153  1  0.23470634  0.85253197  0.72361296  1  -0.411017  0  -0.20917  -0.319212  0  1.184825  0
Cl  Cl154  1  0.98458947  0.77645661  0.35249757  1  -0.41117  0  -0.209249  -0.31924  0  1.185349  0
Cl  Cl155  1  0.48461563  0.22355310  0.64750287  1  -0.411172  0  -0.209204  -0.319194  0  1.185315  0
