# generated using pymatgen
data_Na2H13C15NO5
_symmetry_space_group_name_H-M   'P 1'
_cell_length_a   8.45468400
_cell_length_b   18.26025008
_cell_length_c   18.25943833
_cell_angle_alpha   120.00680777
_cell_angle_beta   90.00029661
_cell_angle_gamma   89.99992630
_symmetry_Int_Tables_number   1
_chemical_formula_structural   Na2H13C15NO5
_chemical_formula_sum   'Na12 H78 C90 N6 O30'
_cell_volume   2441.13811041
_cell_formula_units_Z   6
loop_
 _symmetry_equiv_pos_site_id
 _symmetry_equiv_pos_as_xyz
  1  'x, y, z'
loop_
 _atom_site_type_symbol
 _atom_site_label
 _atom_site_symmetry_multiplicity
 _atom_site_fract_x
 _atom_site_fract_y
 _atom_site_fract_z
 _atom_site_occupancy
 _atom_site_pbe_bader_charge
 _atom_site_pbe_bader_spin_density
 _atom_site_pbe_cm5_charge
 _atom_site_pbe_ddec_charge
 _atom_site_pbe_ddec_spin_density
 _atom_site_pbe_ddec_sum_bond_order
 _atom_site_pbe_magmom
Na  Na0  1  0.82519330  0.72357887  0.36070476  1  0.872895  0  0.715676  0.840739  0  0.59771  0
Na  Na1  1  0.15879075  0.63708486  0.27636701  1  0.872459  0  0.716451  0.840883  0  0.598264  0
Na  Na2  1  0.49206093  0.63929265  0.36306725  1  0.872464  0  0.716209  0.840911  0  0.597753  0
Na  Na3  1  0.32519096  0.27641914  0.63929435  1  0.872872  0  0.715687  0.840709  0  0.59778  0
Na  Na4  1  0.65879337  0.36291374  0.72362981  1  0.872438  0  0.716461  0.840876  0  0.59827  0
Na  Na5  1  0.99205549  0.36070377  0.63693187  1  0.872424  0  0.716207  0.840924  0  0.597724  0
Na  Na6  1  0.82372516  0.50781116  0.25161407  1  0.888613  0  0.704472  0.879783  0  0.541492  0
Na  Na7  1  0.15677517  0.74376416  0.49218962  1  0.888577  0  0.704464  0.879698  0  0.541934  0
Na  Na8  1  0.49014646  0.74839794  0.25641924  1  0.889201  0  0.704909  0.879707  0  0.542285  0
Na  Na9  1  0.32372108  0.49218905  0.74838723  1  0.88859  0  0.704452  0.879796  0  0.541444  0
Na  Na10  1  0.65676859  0.25623513  0.50780980  1  0.888571  0  0.704474  0.879689  0  0.541948  0
Na  Na11  1  0.99015196  0.25160194  0.74358080  1  0.889178  0  0.704906  0.879709  0  0.542281  0
H  H12  1  0.89458628  0.48900794  0.42544215  1  0.070541  0  0.103422  0.100487  0  1.039464  0
H  H13  1  0.22811771  0.93661771  0.51089091  1  0.082625  0  0.103601  0.100822  0  1.039562  0
H  H14  1  0.56171542  0.57473261  0.06364652  1  0.092975  0  0.103637  0.100974  0  1.039932  0
H  H15  1  0.39458731  0.51099523  0.57455972  1  0.070453  0  0.103391  0.100463  0  1.039434  0
H  H16  1  0.72810080  0.06338356  0.48910240  1  0.082712  0  0.103588  0.100765  0  1.039472  0
H  H17  1  0.06169468  0.42526891  0.93634923  1  0.093205  0  0.103628  0.101026  0  1.039991  0
H  H18  1  0.54674404  0.61709330  0.75148785  1  0.150965  0  0.105391  0.113401  0  1.072196  0
H  H19  1  0.87939140  0.13412337  0.38262264  1  0.154105  0  0.10514  0.113708  0  1.07233  0
H  H20  1  0.21362332  0.24876219  0.86577973  1  0.148456  0  0.105525  0.11418  0  1.072023  0
H  H21  1  0.04675127  0.38289954  0.24850995  1  0.150919  0  0.105374  0.113364  0  1.072284  0
H  H22  1  0.37940141  0.86587846  0.61737723  1  0.154101  0  0.105107  0.113685  0  1.072387  0
H  H23  1  0.71362072  0.75123807  0.13422330  1  0.148559  0  0.105552  0.114283  0  1.071916  0
H  H24  1  0.66079570  0.76173335  0.58784644  1  0.095299  0  0.105692  0.106481  0  1.032147  0
H  H25  1  0.99437208  0.82588607  0.23808879  1  0.103353  0  0.105821  0.107125  0  1.030846  0
H  H26  1  0.32831427  0.41231453  0.17401683  1  0.04869  0  0.105703  0.106591  0  1.030918  0
H  H27  1  0.16079330  0.23826867  0.41216013  1  0.095396  0  0.105701  0.106499  0  1.032092  0
H  H28  1  0.49439266  0.17411632  0.76191314  1  0.103283  0  0.105839  0.107217  0  1.030836  0
H  H29  1  0.82831031  0.58769936  0.82598614  1  0.04901  0  0.105662  0.106588  0  1.030942  0
H  H30  1  0.45457274  0.76233868  0.80374649  1  0.058524  0  0.095127  0.088504  0  1.012966  0
H  H31  1  0.78702180  0.04092396  0.23746004  1  0.030156  0  0.095242  0.088318  0  1.013496  0
H  H32  1  0.12150574  0.19657803  0.95883672  1  0.054329  0  0.0953  0.088388  0  1.012983  0
H  H33  1  0.95457458  0.23765872  0.19625479  1  0.058696  0  0.095134  0.088528  0  1.013011  0
H  H34  1  0.28703553  0.95907679  0.76253729  1  0.030315  0  0.095263  0.088412  0  1.013606  0
H  H35  1  0.62148777  0.80342953  0.04116962  1  0.054175  0  0.095279  0.088363  0  1.013161  0
H  H36  1  0.50869721  0.83559624  0.72080850  1  0.058567  0  0.095377  0.089999  0  1.034639  0
H  H37  1  0.84181355  0.88480884  0.16419432  1  0.103207  0  0.095515  0.089854  0  1.035886  0
H  H38  1  0.17597017  0.27944002  0.11500221  1  0.06033  0  0.095419  0.089885  0  1.035703  0
H  H39  1  0.00869473  0.16440864  0.27919684  1  0.058672  0  0.095419  0.09013  0  1.0347  0
H  H40  1  0.34183629  0.11519031  0.83580153  1  0.102838  0  0.095478  0.089855  0  1.035832  0
H  H41  1  0.67595231  0.72057429  0.88500088  1  0.060526  0  0.095448  0.0899  0  1.035646  0
H  H42  1  0.84658977  0.41690633  0.50800078  1  0.110659  0  0.112159  0.106709  0  1.018033  0
H  H43  1  0.18009736  0.09125859  0.58280693  1  0.081655  0  0.112315  0.106769  0  1.01807  0
H  H44  1  0.51348778  0.49219650  0.90898565  1  0.077399  0  0.112003  0.106274  0  1.017995  0
H  H45  1  0.34658497  0.58309256  0.49199862  1  0.110662  0  0.11212  0.106729  0  1.018144  0
H  H46  1  0.68007972  0.90874311  0.41718798  1  0.081695  0  0.112283  0.106799  0  1.018033  0
H  H47  1  0.01347519  0.50780592  0.09100901  1  0.077364  0  0.111984  0.106304  0  1.018008  0
H  H48  1  0.80214444  0.41232961  0.05354899  1  0.082687  0  0.118227  0.032991  0  1.029652  0
H  H49  1  0.13546931  0.64105561  0.58753480  1  0.088675  0  0.118319  0.03296  0  1.029587  0
H  H50  1  0.46889109  0.94647656  0.35904783  1  0.08784  0  0.118286  0.033057  0  1.029111  0
H  H51  1  0.30214229  0.58766718  0.94645454  1  0.083221  0  0.118224  0.032993  0  1.029762  0
H  H52  1  0.63546612  0.35894137  0.41246795  1  0.08871  0  0.118308  0.032927  0  1.029621  0
H  H53  1  0.96891373  0.05352564  0.64095639  1  0.087917  0  0.118326  0.033075  0  1.029094  0
H  H54  1  0.60598348  0.26205067  0.89401861  1  0.040295  0  0.101076  0.11278  0  1.020302  0
H  H55  1  0.93827484  0.63238972  0.73780220  1  0.061952  0  0.10098  0.112675  0  1.020193  0
H  H56  1  0.27326344  0.10587819  0.36783514  1  0.059007  0  0.101179  0.113248  0  1.019211  0
H  H57  1  0.10598581  0.73794896  0.10598357  1  0.040282  0  0.101054  0.112795  0  1.02032  0
H  H58  1  0.43828108  0.36761175  0.26219933  1  0.062057  0  0.100968  0.112663  0  1.020141  0
H  H59  1  0.77327306  0.89412208  0.63216043  1  0.05958  0  0.101134  0.113255  0  1.019279  0
H  H60  1  0.80818609  0.23169255  0.86865479  1  0.099133  0  0.10736  0.123215  0  1.029838  0
H  H61  1  0.14036346  0.63671334  0.76812838  1  0.087879  0  0.107358  0.123717  0  1.029438  0
H  H62  1  0.47548028  0.13133836  0.36306634  1  0.09547  0  0.107387  0.12348  0  1.029908  0
H  H63  1  0.30818743  0.76830459  0.13134404  1  0.099143  0  0.107342  0.12316  0  1.029918  0
H  H64  1  0.64036772  0.36328782  0.23187349  1  0.087862  0  0.107332  0.123674  0  1.029421  0
H  H65  1  0.97548529  0.86866363  0.63693263  1  0.095469  0  0.107362  0.123473  0  1.029977  0
H  H66  1  0.75341896  0.34120803  0.92084252  1  0.074723  0  0.113789  0.12225  0  1.010791  0
H  H67  1  0.08552942  0.57959314  0.65861421  1  0.068563  0  0.113836  0.122439  0  1.010339  0
H  H68  1  0.42040469  0.07923045  0.42046437  1  0.07246  0  0.113792  0.122505  0  1.010628  0
H  H69  1  0.25341410  0.65878866  0.07915765  1  0.074704  0  0.113789  0.122292  0  1.010796  0
H  H70  1  0.58553474  0.42040725  0.34138932  1  0.068505  0  0.113807  0.122432  0  1.010264  0
H  H71  1  0.92041720  0.92077495  0.57953536  1  0.072221  0  0.113797  0.122551  0  1.010603  0
H  H72  1  0.62667666  0.17469431  0.96400329  1  0.072471  0  0.107357  0.119655  0  0.983777  0
H  H73  1  0.96081292  0.78957360  0.82526684  1  0.056028  0  0.107207  0.119929  0  0.984087  0
H  H74  1  0.29488854  0.03575469  0.21048258  1  0.065259  0  0.107296  0.11992  0  0.983985  0
H  H75  1  0.12667561  0.82530381  0.03599172  1  0.072609  0  0.107387  0.119661  0  0.983771  0
H  H76  1  0.46082216  0.21042319  0.17473069  1  0.05606  0  0.107284  0.12004  0  0.984011  0
H  H77  1  0.79489026  0.96424371  0.78951494  1  0.065317  0  0.107326  0.119922  0  0.984005  0
H  H78  1  0.70516422  0.22923519  0.06960172  1  0.106448  0  0.10715  0.115991  0  1.031055  0
H  H79  1  0.03974205  0.84043834  0.77061986  1  0.081231  0  0.107012  0.115947  0  1.030822  0
H  H80  1  0.37359845  0.93019572  0.15965668  1  0.071049  0  0.107106  0.116137  0  1.030605  0
H  H81  1  0.20516612  0.77075709  0.93039394  1  0.106391  0  0.107081  0.115937  0  1.031036  0
H  H82  1  0.53975038  0.15955999  0.22937899  1  0.081327  0  0.106987  0.115901  0  1.030871  0
H  H83  1  0.87359960  0.06980421  0.84034507  1  0.071066  0  0.107122  0.116165  0  1.030521  0
H  H84  1  0.83370757  0.17010289  0.98173992  1  0.051045  0  0.099024  0.102913  0  1.003925  0
H  H85  1  0.16805354  0.81143257  0.82962764  1  0.056162  0  0.099059  0.103192  0  1.003941  0
H  H86  1  0.50210258  0.01815383  0.18859401  1  0.043966  0  0.099032  0.103231  0  1.00444  0
H  H87  1  0.33370867  0.82989302  0.01825584  1  0.051431  0  0.099046  0.102928  0  1.003979  0
H  H88  1  0.66806469  0.18856892  0.17037399  1  0.05605  0  0.099018  0.103128  0  1.004069  0
H  H89  1  0.00210141  0.98184463  0.81140678  1  0.043904  0  0.099018  0.10317  0  1.004549  0
C  C90  1  0.80557644  0.64400941  0.46094932  1  1.612979  0  0.2021  0.621218  0  4.253356  0
C  C91  1  0.13876063  0.81690901  0.35601307  1  1.581845  0  0.2024  0.620388  0  4.252133  0
C  C92  1  0.47261286  0.53929153  0.18322527  1  1.620846  0  0.202473  0.620775  0  4.253485  0
C  C93  1  0.30558223  0.35598920  0.53905351  1  1.613682  0  0.202011  0.621071  0  4.253552  0
C  C94  1  0.63876522  0.18308667  0.64398332  1  1.582778  0  0.202433  0.620516  0  4.252176  0
C  C95  1  0.97259968  0.46071244  0.81677061  1  1.620157  0  0.202452  0.620859  0  4.253471  0
C  C96  1  0.77652543  0.60343219  0.51420348  1  -0.087297  0  -0.000288  -0.050021  0  3.914766  0
C  C97  1  0.10977088  0.91076920  0.39648087  1  -0.03288  0  -0.000525  -0.049205  0  3.913515  0
C  C98  1  0.44374321  0.48601142  0.08935241  1  -0.073468  0  -0.000427  -0.049287  0  3.913758  0
C  C99  1  0.27653171  0.39656695  0.48579981  1  -0.08801  0  -0.00025  -0.049876  0  3.914508  0
C  C100  1  0.60977172  0.08923077  0.60351660  1  -0.032922  0  -0.000531  -0.049295  0  3.913514  0
C  C101  1  0.94372265  0.51399362  0.91064448  1  -0.07404  0  -0.000301  -0.049035  0  3.913575  0
C  C102  1  0.65849806  0.60325601  0.63869237  1  -0.031869  0  -0.000993  0.059716  0  3.939577  0
C  C103  1  0.99166547  0.03529571  0.39646466  1  0.020131  0  -0.001526  0.060139  0  3.937208  0
C  C104  1  0.32549189  0.36154932  0.96471786  1  -0.007498  0  -0.001123  0.059957  0  3.939014  0
C  C105  1  0.15849822  0.39674553  0.36131246  1  -0.032056  0  -0.001066  0.059614  0  3.93944  0
C  C106  1  0.49166914  0.96470002  0.60353187  1  0.019721  0  -0.001508  0.060224  0  3.937044  0
C  C107  1  0.82548494  0.63845820  0.03528380  1  -0.007548  0  -0.001202  0.059872  0  3.939074  0
C  C108  1  0.69211343  0.64642789  0.59231907  1  -0.081016  0  -0.002686  0.045871  0  3.946731  0
C  C109  1  0.02535230  0.94575374  0.35337570  1  -0.068028  0  -0.002433  0.046838  0  3.945167  0
C  C110  1  0.35938160  0.40788817  0.05425122  1  -0.002376  0  -0.002593  0.046077  0  3.946273  0
C  C111  1  0.19213433  0.35357025  0.40768053  1  -0.080799  0  -0.002677  0.0458  0  3.946783  0
C  C112  1  0.52534544  0.05424506  0.64662044  1  -0.067593  0  -0.002357  0.046923  0  3.944849  0
C  C113  1  0.85934584  0.59211741  0.94574921  1  -0.02255  0  -0.002487  0.046118  0  3.946347  0
C  C114  1  0.83054987  0.52198391  0.48514570  1  0.021164  0  -0.092218  -0.124787  0  4.020751  0
C  C115  1  0.16389392  0.96323099  0.47788861  1  -0.044924  0  -0.092222  -0.125532  0  4.022286  0
C  C116  1  0.49758286  0.51508257  0.03694436  1  -0.082364  0  -0.092365  -0.125648  0  4.021506  0
C  C117  1  0.33054915  0.47801802  0.51485607  1  0.021235  0  -0.09222  -0.12478  0  4.020633  0
C  C118  1  0.66387981  0.03676589  0.52210776  1  -0.044989  0  -0.092202  -0.125396  0  4.022246  0
C  C119  1  0.99757360  0.48491940  0.96304704  1  -0.082286  0  -0.09245  -0.125898  0  4.021607  0
C  C120  1  0.57243607  0.64850047  0.71571034  1  -0.09119  0  -0.096657  -0.151106  0  3.979273  0
C  C121  1  0.90526218  0.06694038  0.35123111  1  -0.132303  0  -0.096497  -0.15212  0  3.979442  0
C  C122  1  0.23940344  0.28454659  0.93296881  1  -0.091389  0  -0.097082  -0.152634  0  3.98052  0
C  C123  1  0.07243432  0.35149513  0.28429027  1  -0.09112  0  -0.096605  -0.150908  0  3.979161  0
C  C124  1  0.40527709  0.93305361  0.64876793  1  -0.132433  0  -0.096471  -0.152013  0  3.979312  0
C  C125  1  0.73939900  0.71545968  0.06703268  1  -0.090741  0  -0.097096  -0.152682  0  3.980387  0
C  C126  1  0.63624387  0.73035872  0.62396825  1  -0.053018  0  -0.086059  -0.121487  0  3.964536  0
C  C127  1  0.96951493  0.89335743  0.26946579  1  -0.080005  0  -0.086185  -0.122884  0  3.963152  0
C  C128  1  0.30355844  0.37622676  0.10652754  1  -0.042797  0  -0.086049  -0.121788  0  3.964055  0
C  C129  1  0.13624809  0.26964485  0.37603667  1  -0.053186  0  -0.086093  -0.121586  0  3.964718  0
C  C130  1  0.46952825  0.10664454  0.73053756  1  -0.080323  0  -0.086247  -0.123095  0  3.96334  0
C  C131  1  0.80353857  0.62378379  0.89347648  1  -0.022482  0  -0.086238  -0.122014  0  3.964037  0
C  C132  1  0.52120653  0.73023208  0.74466003  1  -0.017751  0  -0.097965  -0.085969  0  4.052296  0
C  C133  1  0.85394587  0.01404680  0.26954206  1  -0.030247  0  -0.097814  -0.0849  0  4.050984  0
C  C134  1  0.18822977  0.25562184  0.98577052  1  -0.152425  0  -0.097746  -0.084761  0  4.05202  0
C  C135  1  0.02119522  0.26976487  0.25534562  1  -0.017789  0  -0.098003  -0.086136  0  4.052684  0
C  C136  1  0.35397336  0.98595038  0.73045690  1  -0.030167  0  -0.09786  -0.085192  0  4.051194  0
C  C137  1  0.68822231  0.74438940  0.01423458  1  -0.153355  0  -0.097631  -0.084705  0  4.052215  0
C  C138  1  0.55237237  0.77169948  0.69852672  1  -0.048614  0  -0.098335  -0.089067  0  4.047075  0
C  C139  1  0.88542044  0.92647438  0.22809363  1  -0.05887  0  -0.098638  -0.089542  0  4.046253  0
C  C140  1  0.21955522  0.30172114  0.07336896  1  0.027911  0  -0.098531  -0.08957  0  4.047641  0
C  C141  1  0.05237115  0.22830016  0.30147854  1  -0.048851  0  -0.098355  -0.089084  0  4.04741  0
C  C142  1  0.38544023  0.07352494  0.77190439  1  -0.058412  0  -0.098581  -0.089366  0  4.046419  0
C  C143  1  0.71954616  0.69829767  0.92663745  1  0.027269  0  -0.0985  -0.089453  0  4.047495  0
C  C144  1  0.80190571  0.48080721  0.53136295  1  -0.109123  0  -0.083187  -0.094986  0  4.01943  0
C  C145  1  0.13520597  0.05061895  0.51895846  1  -0.073089  0  -0.083399  -0.09563  0  4.018941  0
C  C146  1  0.46880038  0.46886083  0.94954725  1  -0.027949  0  -0.082677  -0.094581  0  4.018056  0
C  C147  1  0.30189963  0.51919540  0.46864134  1  -0.109896  0  -0.083123  -0.095082  0  4.019749  0
C  C148  1  0.63520548  0.94937917  0.48103657  1  -0.073528  0  -0.083413  -0.09571  0  4.019172  0
C  C149  1  0.96878207  0.53113726  0.05044464  1  -0.027757  0  -0.082629  -0.094506  0  4.017915  0
C  C150  1  0.71379160  0.51788013  0.60548681  1  -0.04181  0  -0.017191  -0.103723  0  3.926064  0
C  C151  1  0.04703092  0.08759325  0.48183392  1  -0.019384  0  -0.017347  -0.103032  0  3.923599  0
C  C152  1  0.38065624  0.39472602  0.91250687  1  -0.002356  0  -0.017254  -0.102575  0  3.924145  0
C  C153  1  0.21379072  0.48211674  0.39451851  1  -0.040869  0  -0.017169  -0.103597  0  3.926252  0
C  C154  1  0.54703923  0.91241059  0.51816603  1  -0.018859  0  -0.017342  -0.103061  0  3.923817  0
C  C155  1  0.88064168  0.60527322  0.08749231  1  -0.001949  0  -0.017236  -0.102606  0  3.924057  0
C  C156  1  0.67656637  0.46302278  0.64365415  1  1.575779  0  0.197607  0.613777  0  4.23584  0
C  C157  1  0.00977719  0.18060520  0.53666800  1  1.591604  0  0.197071  0.611908  0  4.238572  0
C  C158  1  0.34315467  0.35654418  0.81950401  1  1.535219  0  0.196906  0.61192  0  4.237853  0
C  C159  1  0.17656373  0.53697447  0.35634957  1  1.575385  0  0.19757  0.613803  0  4.235886  0
C  C160  1  0.50977213  0.81939524  0.46332973  1  1.591298  0  0.197063  0.611838  0  4.238464  0
C  C161  1  0.84315878  0.64345448  0.18049452  1  1.534887  0  0.196874  0.611866  0  4.23798  0
C  C162  1  0.79450740  0.35913790  0.06619693  1  1.374135  0  0.171338  0.308928  0  4.144081  0
C  C163  1  0.12827705  0.70691240  0.64073561  1  1.370355  0  0.171417  0.309099  0  4.143443  0
C  C164  1  0.46162140  0.93379346  0.29318420  1  1.375513  0  0.170984  0.308744  0  4.142181  0
C  C165  1  0.29450615  0.64085550  0.93380888  1  1.374075  0  0.171364  0.308987  0  4.14375  0
C  C166  1  0.62827581  0.29308520  0.35926649  1  1.370362  0  0.171501  0.309126  0  4.143434  0
C  C167  1  0.96164355  0.06620957  0.70682463  1  1.375289  0  0.170968  0.308705  0  4.142317  0
C  C168  1  0.72852394  0.27983537  0.91565819  1  0.264057  0  -0.12874  -0.282825  0  3.906144  0
C  C169  1  0.06101309  0.63585289  0.72001289  1  0.260356  0  -0.129162  -0.284362  0  3.906091  0
C  C170  1  0.39582864  0.08432454  0.36418876  1  0.250539  0  -0.129069  -0.284786  0  3.906076  0
C  C171  1  0.22851897  0.72016107  0.08434105  1  0.264026  0  -0.128694  -0.282839  0  3.906238  0
C  C172  1  0.56101907  0.36414748  0.27999057  1  0.260392  0  -0.129112  -0.284346  0  3.905868  0
C  C173  1  0.89583943  0.91567825  0.63581021  1  0.250271  0  -0.128995  -0.284828  0  3.906161  0
C  C174  1  0.72764609  0.21064473  0.00350158  1  0.218739  0  -0.129426  -0.259381  0  3.918639  0
C  C175  1  0.06181874  0.79290602  0.78923409  1  0.250158  0  -0.129013  -0.260069  0  3.919266  0
C  C176  1  0.39584073  0.99634564  0.20716157  1  0.269225  0  -0.129344  -0.260588  0  3.919213  0
C  C177  1  0.22765696  0.78934843  0.99649436  1  0.218398  0  -0.129361  -0.259299  0  3.918651  0
C  C178  1  0.56182910  0.20709225  0.21076601  1  0.250136  0  -0.129018  -0.260112  0  3.919353  0
C  C179  1  0.89584745  0.00365267  0.79283860  1  0.269123  0  -0.129344  -0.260504  0  3.919139  0
N  N180  1  0.74995274  0.28636607  0.99781547  1  -1.210173  0  -0.286234  0.020763  0  3.715952  0
N  N181  1  0.08346796  0.71140720  0.71350758  1  -1.206066  0  -0.285768  0.022362  0  3.716179  0
N  N182  1  0.41749325  0.00214095  0.28865960  1  -1.208824  0  -0.285705  0.022583  0  3.71577  0
N  N183  1  0.24994925  0.71363249  0.00218720  1  -1.209836  0  -0.286274  0.020763  0  3.715902  0
N  N184  1  0.58347067  0.28859132  0.28649344  1  -1.205999  0  -0.285827  0.022411  0  3.716166  0
N  N185  1  0.91750701  0.99786068  0.71133952  1  -1.208801  0  -0.285773  0.022501  0  3.715745  0
O  O186  1  0.73963985  0.60815521  0.38807441  1  -1.256  0  -0.508933  -0.756883  0  2.223159  0
O  O187  1  0.07262240  0.78003465  0.39196383  1  -1.240909  0  -0.508569  -0.756742  0  2.221712  0
O  O188  1  0.40621664  0.61203178  0.22020200  1  -1.250625  0  -0.509507  -0.75668  0  2.222973  0
O  O189  1  0.23964044  0.39184202  0.61192627  1  -1.256028  0  -0.508925  -0.756851  0  2.223223  0
O  O190  1  0.57261939  0.21996426  0.60803566  1  -1.240911  0  -0.508545  -0.75673  0  2.221672  0
O  O191  1  0.90621626  0.38796866  0.77979716  1  -1.250531  0  -0.509498  -0.756697  0  2.222993  0
O  O192  1  0.89071984  0.70931407  0.48928449  1  -1.204555  0  -0.412399  -0.647932  0  2.148962  0
O  O193  1  0.22394269  0.77980957  0.29073090  1  -1.218686  0  -0.412442  -0.647431  0  2.148993  0
O  O194  1  0.55784160  0.51105028  0.22024274  1  -1.21771  0  -0.412977  -0.648051  0  2.149936  0
O  O195  1  0.39072431  0.29068492  0.51071826  1  -1.20469  0  -0.412327  -0.647837  0  2.149064  0
O  O196  1  0.72394317  0.22018272  0.70926481  1  -1.219547  0  -0.412443  -0.647503  0  2.149061  0
O  O197  1  0.05782368  0.48895102  0.77974774  1  -1.216811  0  -0.412947  -0.648151  0  2.149893  0
O  O198  1  0.74741695  0.39128721  0.61167359  1  -1.267935  0  -0.528259  -0.776915  0  2.265634  0
O  O199  1  0.08059272  0.22040293  0.60842642  1  -1.262343  0  -0.527559  -0.775853  0  2.265665  0
O  O200  1  0.41435044  0.38822387  0.77956624  1  -1.253371  0  -0.527731  -0.775922  0  2.266381  0
O  O201  1  0.24741921  0.60870870  0.38832515  1  -1.267789  0  -0.528191  -0.776889  0  2.265666  0
O  O202  1  0.58059525  0.77959244  0.39157335  1  -1.262443  0  -0.527543  -0.775825  0  2.265619  0
O  O203  1  0.91435035  0.61177251  0.22042826  1  -1.253367  0  -0.527713  -0.775901  0  2.266554  0
O  O204  1  0.57802129  0.48678752  0.70345765  1  -1.218036  0  -0.423988  -0.656482  0  2.198426  0
O  O205  1  0.91104429  0.21656294  0.51291214  1  -1.24116  0  -0.423854  -0.656002  0  2.198985  0
O  O206  1  0.24390897  0.29706890  0.78367710  1  -1.21565  0  -0.423854  -0.656455  0  2.198983  0
O  O207  1  0.07802515  0.51320276  0.29653954  1  -1.217775  0  -0.423974  -0.656531  0  2.198395  0
O  O208  1  0.41104834  0.78343233  0.48708565  1  -1.240804  0  -0.42388  -0.655996  0  2.198946  0
O  O209  1  0.74391096  0.70293244  0.21631948  1  -1.2156  0  -0.423862  -0.656484  0  2.198868  0
O  O210  1  0.82405590  0.36793458  0.13706692  1  -1.181092  0  -0.369383  -0.524974  0  2.242147  0
O  O211  1  0.15847674  0.76893128  0.63195615  1  -1.182875  0  -0.369573  -0.525368  0  2.243411  0
O  O212  1  0.49118228  0.86286358  0.23117420  1  -1.188781  0  -0.36924  -0.524962  0  2.241794  0
O  O213  1  0.32405743  0.63206035  0.86293417  1  -1.18198  0  -0.369428  -0.525089  0  2.24182  0
O  O214  1  0.65847696  0.23106807  0.36804649  1  -1.183021  0  -0.369579  -0.525341  0  2.243315  0
O  O215  1  0.99120020  0.13713613  0.76882820  1  -1.188635  0  -0.369246  -0.524902  0  2.241776  0
