# generated using pymatgen
data_KH11C9O4
_symmetry_space_group_name_H-M   'P 1'
_cell_length_a   6.89517191
_cell_length_b   9.04541135
_cell_length_c   16.14542914
_cell_angle_alpha   89.99982098
_cell_angle_beta   91.91348003
_cell_angle_gamma   90.00009895
_symmetry_Int_Tables_number   1
_chemical_formula_structural   KH11C9O4
_chemical_formula_sum   'K4 H44 C36 O16'
_cell_volume   1006.42351889
_cell_formula_units_Z   4
loop_
 _symmetry_equiv_pos_site_id
 _symmetry_equiv_pos_as_xyz
  1  'x, y, z'
loop_
 _atom_site_type_symbol
 _atom_site_label
 _atom_site_symmetry_multiplicity
 _atom_site_fract_x
 _atom_site_fract_y
 _atom_site_fract_z
 _atom_site_occupancy
 _atom_site_hle17_bader_spin_density
 _atom_site_hle17_ddec_charge
 _atom_site_hle17_ddec_spin_density
 _atom_site_hle17_ddec_sum_bond_order
 _atom_site_hle17_magmom
 _atom_site_hse06_10hf_bader_spin_density
 _atom_site_hse06_10hf_ddec_charge
 _atom_site_hse06_10hf_ddec_spin_density
 _atom_site_hse06_10hf_ddec_sum_bond_order
 _atom_site_hse06_10hf_magmom
 _atom_site_hse06_bader_spin_density
 _atom_site_hse06_ddec_charge
 _atom_site_hse06_ddec_spin_density
 _atom_site_hse06_ddec_sum_bond_order
 _atom_site_hse06_magmom
 _atom_site_pbe_bader_spin_density
 _atom_site_pbe_cm5_charge
 _atom_site_pbe_ddec_charge
 _atom_site_pbe_ddec_spin_density
 _atom_site_pbe_ddec_sum_bond_order
 _atom_site_pbe_magmom
K  K0  1  0.26057753  0.63150141  0.46491418  1  0  0.930124  0  0.470422  0  0  0.895447  0  0.642513  0  0  0.907397  0  0.620816  0  0  0.789036  0.886273  0  0.658367  0
K  K1  1  0.23942978  0.13150182  0.53508822  1  0  0.930125  0  0.470442  0  0  0.895443  0  0.642529  0  0  0.907388  0  0.62084  0  0  0.789055  0.886267  0  0.658382  0
K  K2  1  0.73943446  0.36849415  0.53509027  1  0  0.930133  0  0.470442  0  0  0.895456  0  0.642529  0  0  0.907409  0  0.620827  0  0  0.789049  0.886278  0  0.658384  0
K  K3  1  0.76058077  0.86850146  0.46491125  1  0  0.930122  0  0.470423  0  0  0.895438  0  0.642516  0  0  0.907388  0  0.620814  0  0  0.789046  0.88627  0  0.658371  0
H  H4  1  0.16729750  0.44112760  0.01529586  1  0  0.088456  0  0.986003  0  0  0.097688  0  1.054332  0  0  0.100385  0  1.054568  0  0  0.091221  0.095763  0  1.054285  0
H  H5  1  0.33270902  0.94113105  0.98470537  1  0  0.088517  0  0.986049  0  0  0.097765  0  1.054347  0  0  0.100459  0  1.054584  0  0  0.091256  0.095836  0  1.054301  0
H  H6  1  0.83271015  0.55885910  0.98470358  1  0  0.08843  0  0.986112  0  0  0.097653  0  1.054455  0  0  0.100348  0  1.054694  0  0  0.091214  0.095729  0  1.054406  0
H  H7  1  0.66729573  0.05888772  0.01529340  1  0  0.088471  0  0.986059  0  0  0.09773  0  1.054338  0  0  0.100426  0  1.054574  0  0  0.091242  0.095803  0  1.054289  0
H  H8  1  0.87068285  0.31213167  0.23564081  1  0  0.109304  0  0.964443  0  0  0.119562  0  1.025541  0  0  0.122555  0  1.026046  0  0  0.099571  0.117415  0  1.025385  0
H  H9  1  0.62932209  0.81213606  0.76436313  1  0  0.109225  0  0.964544  0  0  0.119502  0  1.02563  0  0  0.122496  0  1.026142  0  0  0.099553  0.117357  0  1.025478  0
H  H10  1  0.12931754  0.68786719  0.76435975  1  0  0.109299  0  0.964453  0  0  0.119555  0  1.025555  0  0  0.122548  0  1.026065  0  0  0.099563  0.117411  0  1.025397  0
H  H11  1  0.37068699  0.18787607  0.23564128  1  0  0.109263  0  0.964467  0  0  0.119514  0  1.025586  0  0  0.122507  0  1.02609  0  0  0.099539  0.117369  0  1.025433  0
H  H12  1  0.88986280  0.31937777  0.08402143  1  0  0.074741  0  0.963706  0  0  0.086288  0  1.026705  0  0  0.088404  0  1.025681  0  0  0.093909  0.084584  0  1.027871  0
H  H13  1  0.61014506  0.81938793  0.91598132  1  0  0.074749  0  0.963708  0  0  0.086349  0  1.026652  0  0  0.088461  0  1.025629  0  0  0.093948  0.084643  0  1.02782  0
H  H14  1  0.11013759  0.68061336  0.91597852  1  0  0.074779  0  0.963707  0  0  0.086352  0  1.026685  0  0  0.088469  0  1.025661  0  0  0.093917  0.084647  0  1.027849  0
H  H15  1  0.38986547  0.18063637  0.08402312  1  0  0.074725  0  0.963691  0  0  0.086275  0  1.026699  0  0  0.08839  0  1.025678  0  0  0.093902  0.08457  0  1.027863  0
H  H16  1  0.45323357  0.67282525  0.06286359  1  0  0.079663  0  0.926608  0  0  0.102133  0  0.980659  0  0  0.103173  0  0.980513  0  0  0.095379  0.101356  0  0.98097  0
H  H17  1  0.04676948  0.17282430  0.93713868  1  0  0.079656  0  0.926598  0  0  0.102167  0  0.980594  0  0  0.103206  0  0.980448  0  0  0.095386  0.101385  0  0.980905  0
H  H18  1  0.54676247  0.32716698  0.93713567  1  0  0.079685  0  0.926576  0  0  0.102192  0  0.980578  0  0  0.103241  0  0.980421  0  0  0.095377  0.101407  0  0.980895  0
H  H19  1  0.95321786  0.82717235  0.06285859  1  0  0.079627  0  0.926677  0  0  0.102201  0  0.980612  0  0  0.10325  0  0.980454  0  0  0.095359  0.101413  0  0.980925  0
H  H20  1  0.58032409  0.50417626  0.07286729  1  0  0.077249  0  0.94298  0  0  0.097115  0  1.005144  0  0  0.097731  0  1.0054  0  0  0.094706  0.096461  0  1.005392  0
H  H21  1  0.91967296  0.00417808  0.92713399  1  0  0.077203  0  0.942981  0  0  0.097048  0  1.005188  0  0  0.097663  0  1.005444  0  0  0.094682  0.096392  0  1.005437  0
H  H22  1  0.41967340  0.49581929  0.92713261  1  0  0.077264  0  0.94293  0  0  0.097099  0  1.005129  0  0  0.097714  0  1.005389  0  0  0.094713  0.096448  0  1.005374  0
H  H23  1  0.08032164  0.99581968  0.07286215  1  0  0.077211  0  0.943017  0  0  0.097065  0  1.005233  0  0  0.097679  0  1.005493  0  0  0.09468  0.096408  0  1.00548  0
H  H24  1  0.73566689  0.59410450  0.19644515  1  0  0.102956  0  0.940459  0  0  0.119983  0  0.999709  0  0  0.121676  0  1.000072  0  0  0.1  0.118692  0  0.999661  0
H  H25  1  0.76433761  0.09411231  0.80355546  1  0  0.102961  0  0.94046  0  0  0.119957  0  0.999695  0  0  0.121646  0  1.000057  0  0  0.100038  0.118666  0  0.999651  0
H  H26  1  0.26433060  0.40588332  0.80355599  1  0  0.103004  0  0.94048  0  0  0.120027  0  0.999723  0  0  0.121715  0  1.000083  0  0  0.100038  0.118736  0  0.999678  0
H  H27  1  0.23565990  0.90588213  0.19644011  1  0  0.103005  0  0.940442  0  0  0.119975  0  0.999686  0  0  0.121661  0  1.000045  0  0  0.100043  0.118686  0  0.999644  0
H  H28  1  0.59449266  0.75662660  0.19133126  1  0  0.101518  0  0.952437  0  0  0.117143  0  1.014312  0  0  0.118277  0  1.015797  0  0  0.101015  0.116196  0  1.013623  0
H  H29  1  0.90551798  0.25663015  0.80866977  1  0  0.101489  0  0.95243  0  0  0.117082  0  1.014322  0  0  0.118219  0  1.015795  0  0  0.10098  0.116131  0  1.013636  0
H  H30  1  0.40551936  0.24337116  0.80866452  1  0  0.101478  0  0.952436  0  0  0.117096  0  1.014337  0  0  0.118228  0  1.015816  0  0  0.100993  0.116151  0  1.013644  0
H  H31  1  0.09447226  0.74336761  0.19132816  1  0  0.101495  0  0.952336  0  0  0.117054  0  1.014273  0  0  0.118189  0  1.015744  0  0  0.100976  0.116108  0  1.013586  0
H  H32  1  0.22780697  0.91519795  0.37953941  1  0  0.407845  0  0.903928  0  0  0.380745  0  0.963125  0  0  0.390933  0  0.947976  0  0  0.287418  0.373484  0  0.973945  0
H  H33  1  0.27218644  0.41519905  0.62045919  1  0  0.407854  0  0.903933  0  0  0.380739  0  0.963157  0  0  0.39093  0  0.948004  0  0  0.287391  0.373475  0  0.973982  0
H  H34  1  0.77219051  0.08480202  0.62046235  1  0  0.407831  0  0.90394  0  0  0.380728  0  0.963148  0  0  0.390916  0  0.948  0  0  0.287404  0.373465  0  0.973971  0
H  H35  1  0.72780960  0.58480424  0.37954007  1  0  0.407816  0  0.90397  0  0  0.380713  0  0.963174  0  0  0.390902  0  0.948025  0  0  0.287398  0.373449  0  0.973997  0
H  H36  1  0.49158094  0.77416244  0.61099050  1  0  0.409114  0  0.900503  0  0  0.378709  0  0.964325  0  0  0.389606  0  0.948235  0  0  0.28478  0.370982  0  0.975746  0
H  H37  1  0.00841941  0.27416115  0.38901155  1  0  0.409151  0  0.900462  0  0  0.378735  0  0.964301  0  0  0.389634  0  0.94821  0  0  0.284805  0.37101  0  0.975719  0
H  H38  1  0.50841799  0.22583532  0.38901190  1  0  0.409124  0  0.900494  0  0  0.378716  0  0.964321  0  0  0.389614  0  0.948229  0  0  0.284793  0.37099  0  0.97574  0
H  H39  1  0.99157807  0.72583551  0.61099021  1  0  0.409121  0  0.900489  0  0  0.378712  0  0.964319  0  0  0.389607  0  0.948234  0  0  0.284796  0.370984  0  0.975743  0
H  H40  1  0.65471363  0.65110126  0.60992703  1  0  0.407747  0  0.905559  0  0  0.37539  0  0.973303  0  0  0.385753  0  0.958086  0  0  0.282667  0.368065  0  0.984057  0
H  H41  1  0.84528518  0.15110262  0.39007278  1  0  0.407721  0  0.905597  0  0  0.37537  0  0.97333  0  0  0.385733  0  0.958113  0  0  0.282662  0.368048  0  0.984079  0
H  H42  1  0.34528385  0.34889429  0.39007473  1  0  0.407763  0  0.905545  0  0  0.375404  0  0.973293  0  0  0.385767  0  0.958076  0  0  0.282671  0.368082  0  0.984043  0
H  H43  1  0.15471665  0.84889514  0.60992905  1  0  0.407762  0  0.905525  0  0  0.375405  0  0.973269  0  0  0.385769  0  0.958051  0  0  0.282659  0.368086  0  0.984014  0
H  H44  1  0.43764466  0.98427620  0.38261828  1  0  0.400889  0  0.916729  0  0  0.370076  0  0.982108  0  0  0.380253  0  0.967179  0  0  0.280294  0.362898  0  0.992661  0
H  H45  1  0.06234889  0.48427593  0.61738082  1  0  0.400906  0  0.916719  0  0  0.370093  0  0.982098  0  0  0.380269  0  0.967171  0  0  0.280309  0.362914  0  0.992649  0
H  H46  1  0.56235137  0.01572046  0.61738408  1  0  0.400898  0  0.916735  0  0  0.370088  0  0.982107  0  0  0.380266  0  0.967177  0  0  0.28031  0.36291  0  0.992659  0
H  H47  1  0.93764715  0.51572404  0.38261906  1  0  0.400918  0  0.916686  0  0  0.370095  0  0.982085  0  0  0.380271  0  0.967157  0  0  0.28031  0.362919  0  0.992632  0
C  C48  1  0.13948248  0.42999198  0.26078182  1  0  0.385757  0  3.873081  0  0  0.361475  0  4.141257  0  0  0.382243  0  4.151557  0  0  0.09756  0.347615  0  4.133703  0
C  C49  1  0.36052110  0.92998908  0.73921938  1  0  0.385658  0  3.873138  0  0  0.361441  0  4.14133  0  0  0.382209  0  4.15163  0  0  0.097557  0.347585  0  4.133772  0
C  C50  1  0.86051646  0.57000910  0.73921810  1  0  0.385757  0  3.873061  0  0  0.361504  0  4.141254  0  0  0.382272  0  4.151558  0  0  0.097591  0.347646  0  4.133701  0
C  C51  1  0.63948364  0.07000979  0.26078001  1  0  0.385578  0  3.873271  0  0  0.361338  0  4.141463  0  0  0.382105  0  4.151767  0  0  0.097533  0.347487  0  4.133902  0
C  C52  1  0.29582329  0.50132008  0.21996194  1  0  -0.251158  0  3.734522  0  0  -0.237359  0  3.971477  0  0  -0.254118  0  3.994958  0  0  -0.043676  -0.225882  0  3.955183  0
C  C53  1  0.20418085  0.00131799  0.78004127  1  0  -0.250951  0  3.734463  0  0  -0.237314  0  3.971606  0  0  -0.254073  0  3.995088  0  0  -0.043651  -0.225828  0  3.955297  0
C  C54  1  0.70416985  0.49867658  0.78003790  1  0  -0.251105  0  3.734674  0  0  -0.237472  0  3.971716  0  0  -0.254231  0  3.995197  0  0  -0.043742  -0.226003  0  3.955443  0
C  C55  1  0.79582244  0.99867866  0.21995995  1  0  -0.251016  0  3.734662  0  0  -0.237393  0  3.971726  0  0  -0.254154  0  3.995211  0  0  -0.043694  -0.225911  0  3.955426  0
C  C56  1  0.30566677  0.50393601  0.13259826  1  0  0.115087  0  3.760281  0  0  0.129709  0  3.999391  0  0  0.135015  0  4.024993  0  0  -0.003331  0.126459  0  3.98169  0
C  C57  1  0.19433013  0.00393786  0.86740050  1  0  0.115259  0  3.760146  0  0  0.129863  0  3.999373  0  0  0.135172  0  4.024973  0  0  -0.003261  0.126611  0  3.981668  0
C  C58  1  0.69433508  0.49606175  0.86739861  1  0  0.115106  0  3.760327  0  0  0.129696  0  3.999533  0  0  0.135002  0  4.025139  0  0  -0.003297  0.126444  0  3.981841  0
C  C59  1  0.80566447  0.99607207  0.13259750  1  0  0.115277  0  3.760414  0  0  0.129898  0  3.999616  0  0  0.135206  0  4.025223  0  0  -0.003222  0.126648  0  3.981911  0
C  C60  1  0.16136803  0.43960620  0.08266038  1  0  -0.209364  0  3.815068  0  0  -0.232431  0  4.075102  0  0  -0.242894  0  4.099433  0  0  -0.126356  -0.225362  0  4.058451  0
C  C61  1  0.33863556  0.93960781  0.91734452  1  0  -0.209479  0  3.814797  0  0  -0.232546  0  4.07486  0  0  -0.243009  0  4.099187  0  0  -0.126412  -0.225475  0  4.058206  0
C  C62  1  0.83863091  0.56038051  0.91734078  1  0  -0.20923  0  3.814936  0  0  -0.232286  0  4.075  0  0  -0.242748  0  4.099331  0  0  -0.126305  -0.225218  0  4.058348  0
C  C63  1  0.66137063  0.06039990  0.08265737  1  0  -0.209412  0  3.815132  0  0  -0.232484  0  4.075151  0  0  -0.242947  0  4.099481  0  0  -0.126362  -0.225417  0  4.058497  0
C  C64  1  0.46191822  0.57917724  0.25649446  1  0  0.473794  0  3.698774  0  0  0.455832  0  3.9675  0  0  0.481497  0  3.967091  0  0  0.157491  0.438439  0  3.967424  0
C  C65  1  0.03808608  0.07917624  0.74350737  1  0  0.473522  0  3.699135  0  0  0.455612  0  3.967819  0  0  0.481274  0  3.967414  0  0  0.157424  0.438215  0  3.967738  0
C  C66  1  0.53807492  0.42083268  0.74350475  1  0  0.47376  0  3.69908  0  0  0.456054  0  3.967471  0  0  0.481714  0  3.967058  0  0  0.157586  0.438665  0  3.967397  0
C  C67  1  0.96191431  0.92082373  0.25649134  1  0  0.473563  0  3.699268  0  0  0.455791  0  3.967692  0  0  0.481447  0  3.967285  0  0  0.157451  0.438393  0  3.967619  0
C  C68  1  0.99294295  0.36698174  0.20754079  1  0  -0.236392  0  3.722578  0  0  -0.256779  0  3.983982  0  0  -0.267998  0  4.004546  0  0  -0.120304  -0.249432  0  3.97  0
C  C69  1  0.50706210  0.86698360  0.79246368  1  0  -0.236364  0  3.722665  0  0  -0.256788  0  3.984108  0  0  -0.268013  0  4.004677  0  0  -0.120353  -0.249453  0  3.970136  0
C  C70  1  0.00705889  0.63301602  0.79246042  1  0  -0.236411  0  3.722493  0  0  -0.256783  0  3.983883  0  0  -0.268006  0  4.004452  0  0  -0.120286  -0.249443  0  3.969903  0
C  C71  1  0.49294553  0.13302522  0.20754009  1  0  -0.236417  0  3.722421  0  0  -0.256805  0  3.983822  0  0  -0.268025  0  4.004386  0  0  -0.120302  -0.249466  0  3.969848  0
C  C72  1  0.00508618  0.37165220  0.12174071  1  0  -0.015239  0  3.808648  0  0  -0.030543  0  4.064888  0  0  -0.025049  0  4.085045  0  0  -0.088453  -0.03385  0  4.051228  0
C  C73  1  0.49491728  0.87165313  0.87826183  1  0  -0.01527  0  3.808757  0  0  -0.030614  0  4.065035  0  0  -0.025115  0  4.085187  0  0  -0.088476  -0.033914  0  4.051373  0
C  C74  1  0.99491420  0.62834114  0.87826295  1  0  -0.015305  0  3.808533  0  0  -0.030643  0  4.064784  0  0  -0.025149  0  4.084939  0  0  -0.088471  -0.033942  0  4.051117  0
C  C75  1  0.50508747  0.12835790  0.12173818  1  0  -0.01518  0  3.808376  0  0  -0.030493  0  4.064624  0  0  -0.024999  0  4.084778  0  0  -0.088467  -0.033795  0  4.050961  0
C  C76  1  0.48742084  0.58158331  0.10603748  1  0  -0.138914  0  3.698205  0  0  -0.18596  0  3.952516  0  0  -0.186472  0  3.96374  0  0  -0.158396  -0.185296  0  3.944612  0
C  C77  1  0.01258202  0.08158256  0.89396372  1  0  -0.138852  0  3.698213  0  0  -0.185933  0  3.952511  0  0  -0.186447  0  3.963734  0  0  -0.158351  -0.185264  0  3.944602  0
C  C78  1  0.51257666  0.41840892  0.89396057  1  0  -0.138959  0  3.698175  0  0  -0.185994  0  3.952479  0  0  -0.186517  0  3.963709  0  0  -0.158381  -0.185324  0  3.944566  0
C  C79  1  0.98741403  0.91841410  0.10603369  1  0  -0.138936  0  3.698305  0  0  -0.186111  0  3.952636  0  0  -0.186638  0  3.963866  0  0  -0.158375  -0.185435  0  3.944715  0
C  C80  1  0.58646335  0.63543256  0.18713825  1  0  -0.23477  0  3.657682  0  0  -0.274806  0  3.905135  0  0  -0.279168  0  3.912982  0  0  -0.165877  -0.271789  0  3.899811  0
C  C81  1  0.91354268  0.13543610  0.81286231  1  0  -0.234809  0  3.657726  0  0  -0.27472  0  3.905039  0  0  -0.279069  0  3.912872  0  0  -0.16593  -0.271697  0  3.899718  0
C  C82  1  0.41353415  0.36456520  0.81285794  1  0  -0.234789  0  3.657738  0  0  -0.274875  0  3.905122  0  0  -0.279216  0  3.912947  0  0  -0.165923  -0.271857  0  3.899795  0
C  C83  1  0.08645336  0.86456277  0.18713571  1  0  -0.234776  0  3.657634  0  0  -0.274664  0  3.904895  0  0  -0.278999  0  3.912715  0  0  -0.165901  -0.271644  0  3.899575  0
O  O84  1  0.34673687  0.92449214  0.41535268  1  0  -0.922772  0  1.782407  0  0  -0.882213  0  1.943101  0  0  -0.899852  0  1.913985  0  0  -0.724723  -0.869478  0  1.963663  0
O  O85  1  0.15325511  0.42449107  0.58464650  1  0  -0.922825  0  1.782412  0  0  -0.882258  0  1.94312  0  0  -0.899898  0  1.914003  0  0  -0.724752  -0.869524  0  1.963688  0
O  O86  1  0.65325771  0.07551004  0.58465089  1  0  -0.922762  0  1.782406  0  0  -0.882198  0  1.94307  0  0  -0.899836  0  1.913955  0  0  -0.724735  -0.869463  0  1.96364  0
O  O87  1  0.84673803  0.57550890  0.41535334  1  0  -0.922786  0  1.782413  0  0  -0.88222  0  1.943116  0  0  -0.89986  0  1.914  0  0  -0.724732  -0.869489  0  1.96368  0
O  O88  1  0.13180913  0.42166709  0.34158291  1  0  -0.675441  0  2.067034  0  0  -0.596827  0  2.273812  0  0  -0.622964  0  2.266876  0  0  -0.363711  -0.578434  0  2.278223  0
O  O89  1  0.36819152  0.92166685  0.65842136  1  0  -0.675357  0  2.067315  0  0  -0.596758  0  2.274069  0  0  -0.622896  0  2.267133  0  0  -0.363674  -0.578373  0  2.27848  0
O  O90  1  0.86818690  0.57833288  0.65841759  1  0  -0.675419  0  2.067154  0  0  -0.59682  0  2.273929  0  0  -0.622953  0  2.266992  0  0  -0.36374  -0.578416  0  2.27833  0
O  O91  1  0.63181322  0.07833202  0.34158051  1  0  -0.675311  0  2.067214  0  0  -0.596711  0  2.273972  0  0  -0.622847  0  2.267035  0  0  -0.363697  -0.578331  0  2.278385  0
O  O92  1  0.50000403  0.60135737  0.33152262  1  0  -0.558228  0  2.022704  0  0  -0.511266  0  2.242723  0  0  -0.529657  0  2.233335  0  0  -0.325324  -0.498671  0  2.249288  0
O  O93  1  0.00000177  0.10135784  0.66847920  1  0  -0.558147  0  2.023032  0  0  -0.511184  0  2.243011  0  0  -0.529578  0  2.233629  0  0  -0.32531  -0.498589  0  2.249578  0
O  O94  1  0.49998910  0.39866251  0.66847784  1  0  -0.558284  0  2.022945  0  0  -0.511394  0  2.242832  0  0  -0.529787  0  2.233445  0  0  -0.325395  -0.498795  0  2.249397  0
O  O95  1  0.00000283  0.89864368  0.33151705  1  0  -0.558147  0  2.023025  0  0  -0.511242  0  2.242921  0  0  -0.529634  0  2.233539  0  0  -0.325303  -0.498646  0  2.24949  0
O  O96  1  0.55432089  0.70102826  0.57456448  1  0  -0.921966  0  1.791284  0  0  -0.879079  0  1.96297  0  0  -0.896698  0  1.931898  0  0  -0.734887  -0.866453  0  1.984821  0
O  O97  1  0.94568093  0.20102293  0.42543590  1  0  -0.921986  0  1.791313  0  0  -0.879111  0  1.963022  0  0  -0.896722  0  1.931941  0  0  -0.734916  -0.86649  0  1.984869  0
O  O98  1  0.44568240  0.29897392  0.42543674  1  0  -0.921989  0  1.791304  0  0  -0.879099  0  1.962989  0  0  -0.896722  0  1.931927  0  0  -0.734899  -0.866477  0  1.984839  0
O  O99  1  0.05431801  0.79897704  0.57456650  1  0  -0.921982  0  1.791225  0  0  -0.879113  0  1.962943  0  0  -0.896716  0  1.93185  0  0  -0.734889  -0.866495  0  1.984794  0
