# generated using pymatgen
data_AgH6C9(NO2)2
_symmetry_space_group_name_H-M   'P 1'
_cell_length_a   7.76807729
_cell_length_b   8.81295735
_cell_length_c   13.40381844
_cell_angle_alpha   89.99980347
_cell_angle_beta   90.00009901
_cell_angle_gamma   94.16939795
_symmetry_Int_Tables_number   1
_chemical_formula_structural   AgH6C9(NO2)2
_chemical_formula_sum   'Ag4 H24 C36 N8 O16'
_cell_volume   915.19331330
_cell_formula_units_Z   4
loop_
 _symmetry_equiv_pos_site_id
 _symmetry_equiv_pos_as_xyz
  1  'x, y, z'
loop_
 _atom_site_type_symbol
 _atom_site_label
 _atom_site_symmetry_multiplicity
 _atom_site_fract_x
 _atom_site_fract_y
 _atom_site_fract_z
 _atom_site_occupancy
 _atom_site_pbe_bader_spin_density
 _atom_site_pbe_cm5_charge
 _atom_site_pbe_ddec_charge
 _atom_site_pbe_ddec_spin_density
 _atom_site_pbe_ddec_sum_bond_order
 _atom_site_pbe_magmom
Ag  Ag0  1  0.37068027  0.37953173  0.53089400  1  0  0.47102  0.363784  0  1.992456  0
Ag  Ag1  1  0.12932777  0.12046818  0.03089635  1  0  0.470989  0.363741  0  1.992416  0
Ag  Ag2  1  0.62932173  0.62047171  0.46910549  1  0  0.471016  0.363723  0  1.992494  0
Ag  Ag3  1  0.87067502  0.87952845  0.96910463  1  0  0.471007  0.363726  0  1.992456  0
H  H4  1  0.96500333  0.95780999  0.23940805  1  0  0.296208  0.364179  0  0.972864  0
H  H5  1  0.53499292  0.54219247  0.73940239  1  0  0.296196  0.364181  0  0.972801  0
H  H6  1  0.03499041  0.04220363  0.76059666  1  0  0.29623  0.364258  0  0.972744  0
H  H7  1  0.46500522  0.45781095  0.26059411  1  0  0.296205  0.36415  0  0.972885  0
H  H8  1  0.88649724  0.88784220  0.52635244  1  0  0.105937  0.107046  0  1.022909  0
H  H9  1  0.61350286  0.61215112  0.02634584  1  0  0.10591  0.107099  0  1.022909  0
H  H10  1  0.11350742  0.11216240  0.47364780  1  0  0.105926  0.107038  0  1.02289  0
H  H11  1  0.38649469  0.38784433  0.97365141  1  0  0.105938  0.107076  0  1.022919  0
H  H12  1  0.98651428  0.78381487  0.68702697  1  0  0.116206  0.131692  0  0.990744  0
H  H13  1  0.51348848  0.71617311  0.18702227  1  0  0.116211  0.131671  0  0.990854  0
H  H14  1  0.01348473  0.21618287  0.31297401  1  0  0.116196  0.131701  0  0.990764  0
H  H15  1  0.48650479  0.28381663  0.81297572  1  0  0.116183  0.131619  0  0.990848  0
H  H16  1  0.19892557  0.58100886  0.68258628  1  0  0.120441  0.100584  0  0.99777  0
H  H17  1  0.30108149  0.91897972  0.18258589  1  0  0.120458  0.100622  0  0.997804  0
H  H18  1  0.80107472  0.41898889  0.31741172  1  0  0.120448  0.100592  0  0.997789  0
H  H19  1  0.69890887  0.08100545  0.81741360  1  0  0.120453  0.100601  0  0.997823  0
H  H20  1  0.45411506  0.16122496  0.35623286  1  0  0.129444  0.121598  0  0.995671  0
H  H21  1  0.04588591  0.33877098  0.85623550  1  0  0.129435  0.121604  0  0.995673  0
H  H22  1  0.54587759  0.83877387  0.64376663  1  0  0.129446  0.121621  0  0.995653  0
H  H23  1  0.95411285  0.66122335  0.14376772  1  0  0.129482  0.12167  0  0.995605  0
H  H24  1  0.44112393  0.09843570  0.66502926  1  0  0.126858  0.112941  0  1.001144  0
H  H25  1  0.05886496  0.40156112  0.16503165  1  0  0.126863  0.113025  0  1.001076  0
H  H26  1  0.55887267  0.90156430  0.33497097  1  0  0.126857  0.112976  0  1.001158  0
H  H27  1  0.94113645  0.59843436  0.83497082  1  0  0.126844  0.112879  0  1.001113  0
C  C28  1  0.16683424  0.63912691  0.44042983  1  0  0.105324  0.064299  0  3.94401  0
C  C29  1  0.33316392  0.86087054  0.94042972  1  0  0.105346  0.064348  0  3.943994  0
C  C30  1  0.83317308  0.36087884  0.55956966  1  0  0.105317  0.064307  0  3.943837  0
C  C31  1  0.66683113  0.13912604  0.05956977  1  0  0.10534  0.064343  0  3.94382  0
C  C32  1  0.04282572  0.74686796  0.43635916  1  0  -0.004529  -0.08115  0  3.940187  0
C  C33  1  0.45717356  0.75312724  0.93635718  1  0  -0.004526  -0.081216  0  3.940492  0
C  C34  1  0.95718169  0.25313893  0.56364108  1  0  -0.004648  -0.081308  0  3.940337  0
C  C35  1  0.54282158  0.24687047  0.06364081  1  0  -0.004553  -0.081175  0  3.940426  0
C  C36  1  0.97881902  0.80066428  0.52655775  1  0  -0.07502  -0.0817  0  3.980477  0
C  C37  1  0.52117860  0.69933016  0.02655235  1  0  -0.075067  -0.081825  0  3.981069  0
C  C38  1  0.02118428  0.19933917  0.47344323  1  0  -0.074947  -0.081559  0  3.980439  0
C  C39  1  0.47881766  0.30066528  0.97344639  1  0  -0.075091  -0.081861  0  3.980964  0
C  C40  1  0.03527222  0.74346810  0.61654289  1  0  -0.073993  -0.092135  0  3.939872  0
C  C41  1  0.46472952  0.75652077  0.11653930  1  0  -0.073973  -0.092116  0  3.940112  0
C  C42  1  0.96472832  0.25653306  0.38345660  1  0  -0.074024  -0.092216  0  3.939925  0
C  C43  1  0.53526512  0.24347012  0.88345869  1  0  -0.073937  -0.091901  0  3.939889  0
C  C44  1  0.15344444  0.63215410  0.61440786  1  0  0.050419  0.100487  0  3.907248  0
C  C45  1  0.34655755  0.86783820  0.11440689  1  0  0.050416  0.100444  0  3.907474  0
C  C46  1  0.84655869  0.36784708  0.38559163  1  0  0.050408  0.100456  0  3.907433  0
C  C47  1  0.65343571  0.13215154  0.88559335  1  0  0.050363  0.100281  0  3.907592  0
C  C48  1  0.24642273  0.58573256  0.34436626  1  0  0.200898  0.532299  0  4.249998  0
C  C49  1  0.25357939  0.91426995  0.84436371  1  0  0.200944  0.532377  0  4.250203  0
C  C50  1  0.75358621  0.41427776  0.65563249  1  0  0.200988  0.532468  0  4.24996  0
C  C51  1  0.74641995  0.08573234  0.15563653  1  0  0.200952  0.532317  0  4.25021  0
C  C52  1  0.96234851  0.79691197  0.34049360  1  0  0.229489  0.603551  0  4.14382  0
C  C53  1  0.53764629  0.70308428  0.84048982  1  0  0.229431  0.603523  0  4.143927  0
C  C54  1  0.03765511  0.20309603  0.65950813  1  0  0.229414  0.603467  0  4.144001  0
C  C55  1  0.46235272  0.29691346  0.15950967  1  0  0.229512  0.603579  0  4.143731  0
C  C56  1  0.47455395  0.08984512  0.42079739  1  0  0.060279  0.063116  0  3.855152  0
C  C57  1  0.02544872  0.41015393  0.92080134  1  0  0.060258  0.06302  0  3.855391  0
C  C58  1  0.52544128  0.91015374  0.57920284  1  0  0.060254  0.063024  0  3.85527  0
C  C59  1  0.97455020  0.58984268  0.07920263  1  0  0.060264  0.063018  0  3.855422  0
C  C60  1  0.46996461  0.05571175  0.59124140  1  0  0.057408  0.058154  0  3.866148  0
C  C61  1  0.03002908  0.44428321  0.09124739  1  0  0.057392  0.058094  0  3.865977  0
C  C62  1  0.53003319  0.94428712  0.40875660  1  0  0.057433  0.058115  0  3.866163  0
C  C63  1  0.96997209  0.55570886  0.90875956  1  0  0.057407  0.058257  0  3.866084  0
N  N64  1  0.21803441  0.58232968  0.52837202  1  0  -0.337795  -0.222333  0  3.596007  0
N  N65  1  0.28197011  0.91766534  0.02837311  1  0  -0.337818  -0.222287  0  3.596205  0
N  N66  1  0.78197283  0.41767494  0.47162598  1  0  -0.337755  -0.222271  0  3.595813  0
N  N67  1  0.71802599  0.08232783  0.97162564  1  0  -0.337792  -0.222247  0  3.596056  0
N  N68  1  0.44488760  0.14580256  0.51221380  1  0  -0.326517  -0.169136  0  3.584203  0
N  N69  1  0.05511121  0.35419511  0.01221555  1  0  -0.326515  -0.169134  0  3.584241  0
N  N70  1  0.55511166  0.85419860  0.48778569  1  0  -0.326536  -0.16909  0  3.584316  0
N  N71  1  0.94489021  0.64580037  0.98778692  1  0  -0.326525  -0.169118  0  3.584478  0
O  O72  1  0.38444318  0.51312261  0.35195156  1  0  -0.328147  -0.558569  0  2.390682  0
O  O73  1  0.11555647  0.98688099  0.85195244  1  0  -0.328137  -0.558596  0  2.390571  0
O  O74  1  0.61556406  0.48688201  0.64804644  1  0  -0.328169  -0.558641  0  2.390666  0
O  O75  1  0.88444150  0.01312016  0.14804780  1  0  -0.328134  -0.558582  0  2.390636  0
O  O76  1  0.17469578  0.61863624  0.26485153  1  0  -0.297287  -0.520278  0  2.214229  0
O  O77  1  0.32530244  0.88136892  0.76485360  1  0  -0.297319  -0.520348  0  2.214651  0
O  O78  1  0.82531720  0.38137638  0.73514572  1  0  -0.297356  -0.520388  0  2.214304  0
O  O79  1  0.67469861  0.11863907  0.23514589  1  0  -0.297314  -0.52028  0  2.21463  0
O  O80  1  0.82482095  0.73229623  0.31085131  1  0  -0.299574  -0.515079  0  2.176353  0
O  O81  1  0.67518117  0.76769567  0.81085125  1  0  -0.299573  -0.515046  0  2.176291  0
O  O82  1  0.17518596  0.26770384  0.68914968  1  0  -0.299524  -0.515012  0  2.176465  0
O  O83  1  0.32481999  0.23229640  0.18915197  1  0  -0.29959  -0.515108  0  2.176216  0
O  O84  1  0.03784894  0.92173866  0.30092964  1  0  -0.327033  -0.483277  0  2.306046  0
O  O85  1  0.46214406  0.57826401  0.80092210  1  0  -0.326945  -0.483239  0  2.306109  0
O  O86  1  0.96214755  0.07827726  0.69907582  1  0  -0.326971  -0.483275  0  2.306074  0
O  O87  1  0.53785005  0.42173711  0.19907143  1  0  -0.327025  -0.483242  0  2.306106  0
