# generated using pymatgen
data_H16RuC23N(ClO4)2
_symmetry_space_group_name_H-M   'P 1'
_cell_length_a   9.62908289
_cell_length_b   10.54167317
_cell_length_c   11.92975967
_cell_angle_alpha   94.10969310
_cell_angle_beta   96.35242348
_cell_angle_gamma   101.23973572
_symmetry_Int_Tables_number   1
_chemical_formula_structural   H16RuC23N(ClO4)2
_chemical_formula_sum   'H32 Ru2 C46 N2 Cl4 O16'
_cell_volume   1175.02024270
_cell_formula_units_Z   2
loop_
 _symmetry_equiv_pos_site_id
 _symmetry_equiv_pos_as_xyz
  1  'x, y, z'
loop_
 _atom_site_type_symbol
 _atom_site_label
 _atom_site_symmetry_multiplicity
 _atom_site_fract_x
 _atom_site_fract_y
 _atom_site_fract_z
 _atom_site_occupancy
 _atom_site_pbe_cm5_charge
 _atom_site_pbe_ddec_charge
 _atom_site_pbe_ddec_spin_density
 _atom_site_pbe_ddec_sum_bond_order
 _atom_site_pbe_magmom
H  H0  1  0.55609094  0.41644318  0.23275238  1  0.096553  0.10156  1e-05  1.0036  0.0
H  H1  1  0.44393076  0.58356667  0.76722484  1  0.096506  0.101486  1e-05  1.003197  0.0
H  H2  1  0.70379066  0.48594241  0.33926159  1  0.107222  0.117528  -1.4e-05  0.984987  0.0
H  H3  1  0.29624529  0.51406556  0.66070591  1  0.107123  0.11749  -1.3e-05  0.985318  0.0
H  H4  1  0.56644621  0.35706620  0.37049678  1  0.097949  0.104078  5.2e-05  1.023456  0.0
H  H5  1  0.43358808  0.64294851  0.62948191  1  0.097999  0.104181  5.1e-05  1.023752  0.0
H  H6  1  0.34472752  0.31082327  0.30007930  1  0.109036  0.142584  -4e-05  1.027433  0.0
H  H7  1  0.65531923  0.68919134  0.69991478  1  0.109023  0.142677  -4.2e-05  1.027394  0.0
H  H8  1  0.96036499  0.44869006  0.34370147  1  0.10161  0.116252  7e-06  1.011441  0.0
H  H9  1  0.03967864  0.55130201  0.65632350  1  0.101545  0.116303  8e-06  1.011446  0.0
H  H10  1  0.10618314  0.66959401  0.40956978  1  0.109462  0.121441  0.00017  1.004503  0.0
H  H11  1  0.89385571  0.33040889  0.59043201  1  0.109392  0.121397  0.000169  1.004422  0.0
H  H12  1  0.70177500  0.77969160  0.36807092  1  0.105377  0.123445  -0.000977  1.058806  0.0
H  H13  1  0.29827435  0.22028879  0.63195715  1  0.105392  0.123394  -0.000973  1.05895  0.0
H  H14  1  0.77925986  0.69580085  0.19293072  1  0.090903  0.0859  0.000195  1.039232  0.0
H  H15  1  0.22078650  0.30418930  0.80708935  1  0.09092  0.085943  0.000196  1.039436  0.0
H  H16  1  0.02676058  0.78368139  0.14594222  1  0.090121  0.086798  0.000164  1.027549  0.0
H  H17  1  0.97326445  0.21633901  0.85405948  1  0.09005  0.08675  0.000163  1.027554  0.0
H  H18  1  0.19495228  0.94631655  0.28074334  1  0.102026  0.116157  -0.000546  1.058742  0.0
H  H19  1  0.80506985  0.05370485  0.71925565  1  0.10201  0.116133  -0.000549  1.058716  0.0
H  H20  1  0.18735822  0.01982029  0.95220663  1  0.09505  0.09981  9.6e-05  1.021187  0.0
H  H21  1  0.81267067  0.98018461  0.04778516  1  0.094995  0.099728  9.5e-05  1.021247  0.0
H  H22  1  0.08701372  0.03652096  0.06918731  1  0.10206  0.108138  -5.3e-05  1.027164  0.0
H  H23  1  0.91299933  0.96352001  0.93078785  1  0.102078  0.10805  -5.3e-05  1.026832  0.0
H  H24  1  0.18000606  0.17802337  0.01513939  1  0.090702  0.084356  0.000144  1.039662  0.0
H  H25  1  0.82005194  0.82199432  0.98482827  1  0.090727  0.084298  0.000144  1.039735  0.0
H  H26  1  0.38019148  0.16786870  0.92305514  1  0.107435  0.133583  4.6e-05  1.025127  0.0
H  H27  1  0.61982937  0.83213321  0.07694996  1  0.107405  0.133533  4.5e-05  1.025222  0.0
H  H28  1  0.82897373  0.25174170  0.04809617  1  0.098846  0.11535  -1.9e-05  1.022258  0.0
H  H29  1  0.17104139  0.74827668  0.95191789  1  0.098923  0.115439  -1.9e-05  1.022126  0.0
H  H30  1  0.77171638  0.16062966  0.22884639  1  0.096318  0.099296  -6e-05  1.051778  0.0
H  H31  1  0.22829778  0.83935186  0.77115589  1  0.096311  0.099202  -5.8e-05  1.051686  0.0
Ru  Ru32  1  0.61255791  0.97255677  0.50566404  1  0.724589  0.723422  -1.077707  3.846919  -1.002
Ru  Ru33  1  0.38747589  0.02744224  0.49433786  1  0.724548  0.723185  -1.077416  3.847066  -1.002
C  C34  1  0.38224891  0.75260106  0.43204320  1  0.205093  0.531882  0.008302  4.160879  0.004
C  C35  1  0.61778438  0.24740962  0.56795776  1  0.205126  0.532106  0.008299  4.160827  0.004
C  C36  1  0.30770765  0.61772608  0.39296764  1  -0.036747  -0.165529  0.000215  3.971533  0.0
C  C37  1  0.69232671  0.38228464  0.60702923  1  -0.036722  -0.165785  0.000215  3.97198  0.0
C  C38  1  0.37711031  0.51593172  0.36037511  1  0.098407  0.268017  0.00206  4.006139  0.001
C  C39  1  0.62292856  0.48408489  0.63961084  1  0.098497  0.268064  0.002059  4.006249  0.001
C  C40  1  0.58943016  0.44343017  0.32399590  1  -0.138544  -0.176715  -7.8e-05  3.878281  0.0
C  C41  1  0.41060266  0.55658261  0.67597917  1  -0.138479  -0.176832  -7.8e-05  3.878808  0.0
C  C42  1  0.29519304  0.39171308  0.32289407  1  -0.118013  -0.298457  -0.000297  3.956573  0.0
C  C43  1  0.70485386  0.60829762  0.67710396  1  -0.118027  -0.298476  -0.000301  3.956509  0.0
C  C44  1  0.14716864  0.37010562  0.31765129  1  0.018885  0.185788  0.002633  4.085658  0.002
C  C45  1  0.85288048  0.62990115  0.68235506  1  0.018923  0.185822  0.00263  4.085562  0.002
C  C46  1  0.07617602  0.46804150  0.34880738  1  -0.113358  -0.195622  -0.000283  4.045279  0.0
C  C47  1  0.92387023  0.53195742  0.65121075  1  -0.11321  -0.195647  -0.000283  4.044842  0.0
C  C48  1  0.15785287  0.59035037  0.38589233  1  -0.08148  -0.052352  0.002533  3.984292  0.002
C  C49  1  0.84217781  0.40964868  0.61410510  1  -0.081603  -0.052357  0.00253  3.984451  0.002
C  C50  1  0.90269680  0.91262674  0.42601775  1  0.104776  0.162227  0.008013  3.985084  0.001
C  C51  1  0.09735909  0.08737316  0.57399882  1  0.104815  0.161876  0.008019  3.985504  0.001
C  C52  1  0.80901974  0.81659109  0.34836343  1  -0.0973  -0.158837  0.008595  3.954372  0.005
C  C53  1  0.19102509  0.18339708  0.65166306  1  -0.097287  -0.158661  0.0086  3.954585  0.005
C  C54  1  0.85334702  0.77010624  0.25041479  1  -0.10509  -0.090688  0.01056  4.046707  0.005
C  C55  1  0.14670528  0.22989171  0.74960299  1  -0.105114  -0.090654  0.010566  4.046692  0.005
C  C56  1  0.99266280  0.81893040  0.22454464  1  -0.105615  -0.095235  0.011231  4.049906  0.005
C  C57  1  0.00737700  0.18108608  0.77546318  1  -0.105554  -0.095225  0.011227  4.049564  0.005
C  C58  1  0.08787321  0.90847598  0.29997775  1  -0.098237  -0.158062  0.008208  3.981525  0.004
C  C59  1  0.91215874  0.09152885  0.70002773  1  -0.098177  -0.158084  0.008209  3.981152  0.004
C  C60  1  0.04826550  0.95422954  0.40444811  1  0.104344  0.15818  0.010063  3.991843  0.002
C  C61  1  0.95178125  0.04577138  0.59555930  1  0.104301  0.158255  0.010058  3.991908  0.002
C  C62  1  0.52333486  0.06630506  0.29165407  1  0.209813  0.54134  0.008742  4.139499  0.004
C  C63  1  0.47668299  0.93368813  0.70834598  1  0.20984  0.541421  0.008742  4.139641  0.004
C  C64  1  0.54584129  0.11599003  0.18083589  1  -0.031338  -0.152017  0.000455  3.973001  0.0
C  C65  1  0.45418049  0.88399735  0.81916077  1  -0.031323  -0.152003  0.000455  3.973289  0.0
C  C66  1  0.43314478  0.11977418  0.09473764  1  0.097347  0.264801  0.001725  4.011477  0.001
C  C67  1  0.56686238  0.88021803  0.90526471  1  0.097204  0.264618  0.001724  4.011655  0.001
C  C68  1  0.18256772  0.07725426  0.03186595  1  -0.144831  -0.185639  0.000147  3.91906  0.0
C  C69  1  0.81745653  0.92276236  0.96811782  1  -0.144832  -0.185448  0.000146  3.918771  0.0
C  C70  1  0.46435185  0.16795421  0.99183488  1  -0.116037  -0.292338  -0.000329  3.975935  0.0
C  C71  1  0.53566922  0.83204868  0.00816947  1  -0.115955  -0.292211  -0.00033  3.975686  0.0
C  C72  1  0.60625543  0.21370148  0.97650037  1  0.015607  0.181038  0.002327  4.073018  0.001
C  C73  1  0.39376135  0.78629168  0.02350461  1  0.015581  0.181117  0.002327  4.072699  0.001
C  C74  1  0.71891743  0.21397235  0.06097638  1  -0.116023  -0.203739  -0.000358  4.041768  0.0
C  C75  1  0.28109525  0.78602570  0.93902436  1  -0.11608  -0.203906  -0.000358  4.041846  0.0
C  C76  1  0.68654993  0.16338322  0.16159946  1  -0.086424  -0.061592  0.002278  4.009319  0.001
C  C77  1  0.31347597  0.83662258  0.83840636  1  -0.086459  -0.061527  0.00228  4.009299  0.001
C  C78  1  0.21970182  0.43949422  0.01759225  1  0.356315  0.691431  2.2e-05  4.158248  0.0
C  C79  1  0.77977179  0.56044945  0.98239726  1  0.357141  0.693433  2.2e-05  4.158032  0.0
N  N80  1  0.85343505  0.96249915  0.51914847  1  -0.320685  -0.295844  0.047936  3.391643  0.042
N  N81  1  0.14660781  0.03749396  0.48086561  1  -0.320918  -0.295829  0.047955  3.391919  0.042
Cl  Cl82  1  0.04963634  0.21630511  0.27048524  1  0.036793  -0.032691  0.001175  1.631224  0.0
Cl  Cl83  1  0.95041409  0.78369381  0.72953244  1  0.036677  -0.032761  0.001172  1.631306  0.0
Cl  Cl84  1  0.64352806  0.26960972  0.84798416  1  0.021883  -0.046491  0.000752  1.60221  0.0
Cl  Cl85  1  0.35648857  0.73038735  0.15201687  1  0.021906  -0.046498  0.000752  1.602253  0.0
O  O86  1  0.51906779  0.78265096  0.45364392  1  -0.297576  -0.455962  -0.015891  2.504739  -0.016
O  O87  1  0.48096881  0.21735584  0.54635625  1  -0.297508  -0.456029  -0.01588  2.50475  -0.016
O  O88  1  0.30282442  0.83615193  0.44355797  1  -0.30004  -0.463429  -0.012459  2.539995  -0.014
O  O89  1  0.69720745  0.16385688  0.55643184  1  -0.300177  -0.463551  -0.01247  2.539704  -0.014
O  O90  1  0.52104528  0.54343193  0.36532108  1  -0.171762  -0.135352  0.000277  2.599288  0.0
O  O91  1  0.47899050  0.45658472  0.63465788  1  -0.171681  -0.135169  0.000279  2.599765  0.0
O  O92  1  0.62415024  0.01985437  0.34253843  1  -0.298545  -0.454359  -0.014884  2.461608  -0.016
O  O93  1  0.37586671  0.98013491  0.65746463  1  -0.298405  -0.454179  -0.014867  2.461723  -0.016
O  O94  1  0.40832161  0.07604661  0.33366989  1  -0.295748  -0.455099  -0.015499  2.513839  -0.016
O  O95  1  0.59170616  0.92395821  0.66633521  1  -0.295895  -0.455366  -0.01551  2.513931  -0.016
O  O96  1  0.29853607  0.07168342  0.11553906  1  -0.173809  -0.140935  0.000196  2.632668  0.0
O  O97  1  0.70147715  0.92832630  0.88446083  1  -0.173862  -0.140943  0.000194  2.632557  0.0
O  O98  1  0.33304120  0.45352552  0.98656050  1  -0.17201  -0.344185  -1e-05  2.21912  0.0
O  O99  1  0.66647415  0.54621547  0.01350891  1  -0.173209  -0.34655  -1e-05  2.220781  0.0
O  O100  1  0.10552490  0.42270513  0.04710243  1  -0.175051  -0.352795  2.1e-05  2.231423  0.0
O  O101  1  0.89393740  0.57740031  0.95281981  1  -0.174742  -0.352647  2.1e-05  2.230286  0.0
