# generated using pymatgen
data_AlH5C11SO7
_symmetry_space_group_name_H-M   'P 1'
_cell_length_a   6.59274179
_cell_length_b   11.11399025
_cell_length_c   12.64259537
_cell_angle_alpha   83.76871335
_cell_angle_beta   76.25950352
_cell_angle_gamma   72.45168799
_symmetry_Int_Tables_number   1
_chemical_formula_structural   AlH5C11SO7
_chemical_formula_sum   'Al2 H10 C22 S2 O14'
_cell_volume   857.27579131
_cell_formula_units_Z   2
loop_
 _symmetry_equiv_pos_site_id
 _symmetry_equiv_pos_as_xyz
  1  'x, y, z'
loop_
 _atom_site_type_symbol
 _atom_site_label
 _atom_site_symmetry_multiplicity
 _atom_site_fract_x
 _atom_site_fract_y
 _atom_site_fract_z
 _atom_site_occupancy
 _atom_site_pbe_bader_charge
 _atom_site_pbe_bader_spin_density
 _atom_site_pbe_cm5_charge
 _atom_site_pbe_ddec_charge
 _atom_site_pbe_ddec_spin_density
 _atom_site_pbe_ddec_sum_bond_order
 _atom_site_pbe_magmom
Al  Al0  1  0.48408965  0.50814365  0.50123758  1  2.50303  0  0.390625  1.638117  0  2.579787  0
Al  Al1  1  0.98557597  0.50743884  0.50188365  1  2.50129  0  0.393216  1.636124  0  2.574744  0
H  H2  1  0.27642406  0.35968442  0.57388998  1  0.672865  0  0.335838  0.427676  0  0.886723  0
H  H3  1  0.68240340  0.66391258  0.45321069  1  0.616999  0  0.345609  0.421462  0  0.87559  0
H  H4  1  0.30015903  0.43966530  0.84633043  1  0.135336  0  0.117164  0.144408  0  0.992069  0
H  H5  1  0.67829992  0.56228066  0.15580875  1  0.123199  0  0.115767  0.139426  0  0.993008  0
H  H6  1  0.21004553  0.24404210  0.34255899  1  0.1268  0  0.108528  0.11417  0  1.02987  0
H  H7  1  0.55610861  0.12594169  0.22900943  1  0.083315  0  0.107023  0.102976  0  0.984092  0
H  H8  1  0.43398258  0.77324661  0.35580089  1  0.046907  0  0.108782  0.111616  0  1.037021  0
H  H9  1  0.66771100  0.88979473  0.23486466  1  0.070537  0  0.107992  0.104572  0  0.97999  0
H  H10  1  0.99554949  0.79885357  0.70997828  1  0.620063  0  0.342691  0.383808  0  0.859367  0
H  H11  1  0.74733400  0.14026506  0.73661706  1  0.608246  0  0.347798  0.383855  0  0.849891  0
C  C12  1  0.84622431  0.28415259  0.48374613  1  1.582353  0  0.270857  0.636545  0  4.112036  0
C  C13  1  0.65722043  0.50084279  0.69723794  1  1.572071  0  0.254417  0.638032  0  4.155978  0
C  C14  1  0.12559997  0.73529052  0.51104037  1  1.609453  0  0.266166  0.626881  0  4.139504  0
C  C15  1  0.31371114  0.51101871  0.30524707  1  1.607483  0  0.257093  0.637095  0  4.155348  0
C  C16  1  0.41369662  0.46853159  0.88077599  1  -0.048452  0  -0.090611  -0.141151  0  3.974486  0
C  C17  1  0.56427218  0.53319789  0.12190364  1  0.000742  0  -0.088849  -0.133259  0  3.979376  0
C  C18  1  0.59376528  0.49981123  0.81658159  1  -0.076511  0  -0.019909  -0.11812  0  3.970001  0
C  C19  1  0.38234239  0.50456733  0.18647626  1  -0.195717  0  -0.023375  -0.126421  0  3.988295  0
C  C20  1  0.57651905  0.51945786  0.01078958  1  -0.113019  0  -0.024744  -0.018606  0  4.079551  0
C  C21  1  0.40330630  0.47993669  0.99208904  1  -0.194044  0  -0.022221  -0.007763  0  4.066847  0
C  C22  1  0.91807389  0.14245857  0.48595347  1  0.026522  0  0.006972  -0.077021  0  3.896001  0
C  C23  1  0.12185853  0.07693548  0.42000122  1  0.026057  0  0.010604  0.074566  0  3.93233  0
C  C24  1  0.78878563  0.07719071  0.55732651  1  -0.033593  0  -0.005087  -0.096025  0  3.979478  0
C  C25  1  0.25802499  0.14128078  0.34692595  1  -0.025987  0  -0.079647  -0.114822  0  3.937391  0
C  C26  1  0.45199599  0.07487228  0.28320006  1  -0.119766  0  -0.081125  -0.067566  0  4.005648  0
C  C27  1  0.05770043  0.87709502  0.50320930  1  0.025854  0  0.000961  -0.087301  0  3.921074  0
C  C28  1  0.86348145  0.94331231  0.56900862  1  -0.020099  0  -0.013629  -0.110201  0  4.014689  0
C  C29  1  0.18959022  0.94130049  0.42614281  1  -0.034453  0  0.006756  0.073173  0  3.939326  0
C  C30  1  0.38589040  0.87597517  0.35561595  1  0.003496  0  -0.086363  -0.131272  0  3.953799  0
C  C31  1  0.51558954  0.94142184  0.28692725  1  0.044176  0  -0.083385  -0.068644  0  4.014458  0
C  C32  1  0.73161207  0.87673287  0.65565948  1  1.525736  0  0.230841  0.574443  0  4.131172  0
C  C33  1  0.57735314  0.14771142  0.62968632  1  1.534883  0  0.24527  0.591371  0  4.099985  0
S  S34  1  0.75143084  0.54211057  0.89045542  1  0.277832  0  0.098137  0.146376  0  2.782514  0
S  S35  1  0.22568287  0.46035608  0.11280549  1  0.24222  0  0.084469  0.116673  0  2.755438  0
O  O36  1  0.66090107  0.33995022  0.46283110  1  -1.249572  0  -0.222493  -0.562708  0  2.327609  0
O  O37  1  0.83745681  0.52414742  0.65298831  1  -1.252719  0  -0.239536  -0.583804  0  2.335056  0
O  O38  1  0.99286246  0.68175846  0.49264703  1  -1.252333  0  -0.223038  -0.570569  0  2.339386  0
O  O39  1  0.43838542  0.54150847  0.35441301  1  -1.263073  0  -0.242323  -0.594469  0  2.346872  0
O  O40  1  0.30943475  0.68022482  0.53425669  1  -1.254884  0  -0.229395  -0.57657  0  2.342574  0
O  O41  1  0.13333615  0.48794218  0.35003971  1  -1.253708  0  -0.240667  -0.583198  0  2.331831  0
O  O42  1  0.97524817  0.33698027  0.50668331  1  -1.249792  0  -0.219547  -0.568403  0  2.375585  0
O  O43  1  0.52749442  0.47650697  0.64754831  1  -1.257624  0  -0.239063  -0.594971  0  2.352542  0
O  O44  1  0.24568794  0.44741810  0.54554697  1  -1.474512  0  -0.453806  -1.004008  0  2.205582  0
O  O45  1  0.72253117  0.57220705  0.45758334  1  -1.421266  0  -0.450726  -0.988122  0  2.195444  0
O  O46  1  0.84277145  0.79875502  0.72687633  1  -1.107024  0  -0.328438  -0.475763  0  2.246798  0
O  O47  1  0.53711036  0.89277131  0.66674100  1  -1.093543  0  -0.276614  -0.435644  0  2.051542  0
O  O48  1  0.59472245  0.16994874  0.73065193  1  -1.08563  0  -0.323482  -0.462253  0  2.198325  0
O  O49  1  0.40200160  0.18464623  0.60393827  1  -1.110146  0  -0.245504  -0.424714  0  2.149455  0
