# generated using pymatgen
data_Al2H11C22O10F3
_symmetry_space_group_name_H-M   'P 1'
_cell_length_a   6.69975382
_cell_length_b   11.07300395
_cell_length_c   15.49014375
_cell_angle_alpha   80.10738163
_cell_angle_beta   74.77944543
_cell_angle_gamma   73.60943234
_symmetry_Int_Tables_number   1
_chemical_formula_structural   Al2H11C22O10F3
_chemical_formula_sum   'Al2 H11 C22 O10 F3'
_cell_volume   1057.84157928
_cell_formula_units_Z   1
loop_
 _symmetry_equiv_pos_site_id
 _symmetry_equiv_pos_as_xyz
  1  'x, y, z'
loop_
 _atom_site_type_symbol
 _atom_site_label
 _atom_site_symmetry_multiplicity
 _atom_site_fract_x
 _atom_site_fract_y
 _atom_site_fract_z
 _atom_site_occupancy
 _atom_site_pbe_bader_charge
 _atom_site_pbe_bader_spin_density
 _atom_site_pbe_cm5_charge
 _atom_site_pbe_ddec_charge
 _atom_site_pbe_ddec_spin_density
 _atom_site_pbe_ddec_sum_bond_order
 _atom_site_pbe_magmom
Al  Al0  1  0.50806330  0.49427271  0.50131359  1  2.506095  0  0.402279  1.64515  0  2.579159  0
Al  Al1  1  0.00978359  0.49296259  0.49835683  1  2.500254  0  0.40001  1.642136  0  2.569693  0
H  H2  1  0.23110117  0.63894506  0.43370789  1  0.63561  0  0.351974  0.431356  0  0.853337  0
H  H3  1  0.73183090  0.42113785  0.61010409  1  0.629856  0  0.348999  0.429548  0  0.86079  0
H  H4  1  0.12990906  0.10051443  0.49987067  1  0.11279  0  0.109418  0.114511  0  1.010166  0
H  H5  1  0.76049585  0.12762355  0.49570695  1  0.131987  0  0.121357  0.149478  0  0.989809  0
H  H6  1  0.26892878  0.86583473  0.49639687  1  0.125271  0  0.105881  0.114635  0  1.039315  0
H  H7  1  0.75618389  0.41714390  0.95118148  1  0.055112  0  0.110359  0.13215  0  0.998173  0
H  H8  1  0.29598192  0.48906648  0.04956669  1  0.066307  0  0.105986  0.123462  0  1.018683  0
H  H9  1  0.57653272  0.49578553  0.24285633  1  0.143797  0  0.111921  0.125318  0  1.018397  0
H  H10  1  0.62674231  0.51238867  0.07766230  1  0.056785  0  0.097216  0.096133  0  1.032828  0
H  H11  1  0.34301699  0.59716725  0.75826675  1  0.122388  0  0.114186  0.120185  0  0.984033  0
H  H12  1  0.25901396  0.60505693  0.92300431  1  0.084142  0  0.103668  0.107423  0  1.002907  0
C  C13  1  0.85301908  0.48325645  0.34018180  1  1.607837  0  0.272534  0.660848  0  4.099939  0
C  C14  1  0.66251892  0.72351422  0.49194541  1  1.599718  0  0.267246  0.662022  0  4.092507  0
C  C15  1  0.15847473  0.50398548  0.66135910  1  1.579468  0  0.266748  0.662438  0  4.096464  0
C  C16  1  0.35781212  0.26784935  0.50269357  1  1.606496  0  0.273506  0.640626  0  4.089473  0
C  C17  1  0.59067489  0.86397692  0.49290315  1  0.022459  0  -0.020006  -0.154589  0  3.953036  0
C  C18  1  0.43619821  0.12809345  0.49859588  1  -0.045306  0  -0.003172  -0.000988  0  3.972837  0
C  C19  1  0.72566040  0.94099837  0.49211840  1  0.374298  0  0.110931  0.284887  0  4.030992  0
C  C20  1  0.29741269  0.05456497  0.49793105  1  -0.010482  0  -0.083894  -0.106871  0  3.972273  0
C  C21  1  0.65212491  0.07064647  0.49551814  1  0.070628  0  -0.089562  -0.226091  0  3.965681  0
C  C22  1  0.37469372  0.92461546  0.49567198  1  -0.026866  0  -0.079258  -0.070749  0  3.974372  0
C  C23  1  0.09415120  0.50971663  0.76067883  1  0.07269  0  -0.020388  -0.159695  0  3.956193  0
C  C24  1  0.90060567  0.48673225  0.24025592  1  0.016129  0  -0.02281  -0.162676  0  3.9634  0
C  C25  1  0.92534368  0.46356964  0.81789921  1  0.402273  0  0.110167  0.292599  0  4.035885  0
C  C26  1  0.88114170  0.46162790  0.91080526  1  0.050281  0  -0.100512  -0.266145  0  3.971474  0
C  C27  1  0.10103284  0.48582075  0.18273301  1  0.413131  0  0.112778  0.294182  0  4.04414  0
C  C28  1  0.13469538  0.49364843  0.08989686  1  0.028493  0  -0.101033  -0.267547  0  3.979497  0
C  C29  1  0.73296086  0.49498620  0.19908667  1  -0.023601  0  -0.073018  -0.055721  0  3.971168  0
C  C30  1  0.76296919  0.50323019  0.10637627  1  -0.029769  0  -0.095912  -0.149263  0  3.985584  0
C  C31  1  0.21249858  0.55994429  0.80175544  1  -0.029492  0  -0.075233  -0.055444  0  3.985843  0
C  C32  1  0.16712192  0.56210135  0.89418904  1  -0.078631  0  -0.095164  -0.152781  0  3.989175  0
C  C33  1  0.00319965  0.51013734  0.95086771  1  0.052731  0  0.002597  0.107325  0  3.994824  0
C  C34  1  0.96512280  0.50304821  0.04972835  1  -0.001831  0  -0.000636  0.103242  0  3.997286  0
O  O35  1  0.66854208  0.46958510  0.38179055  1  -1.261976  0  -0.232602  -0.581908  0  2.349368  0
O  O36  1  0.85257380  0.66886205  0.49922903  1  -1.252169  0  -0.23665  -0.599936  0  2.364527  0
O  O37  1  0.02468505  0.48698130  0.62255898  1  -1.251782  0  -0.235188  -0.60121  0  2.365052  0
O  O38  1  0.48758826  0.32348638  0.51603656  1  -1.254577  0  -0.230525  -0.582746  0  2.354461  0
O  O39  1  0.34673854  0.51570339  0.62344888  1  -1.260299  0  -0.238128  -0.599075  0  2.328883  0
O  O40  1  0.16840604  0.31995615  0.49349524  1  -1.251147  0  -0.227691  -0.572035  0  2.327883  0
O  O41  1  0.99348703  0.49733180  0.37639179  1  -1.251941  0  -0.233693  -0.587113  0  2.354527  0
O  O42  1  0.52483723  0.66884125  0.48412306  1  -1.261626  0  -0.239068  -0.602731  0  2.340622  0
O  O43  1  0.25793087  0.55074797  0.45834821  1  -1.438003  0  -0.448482  -0.987867  0  2.174949  0
O  O44  1  0.75658707  0.44114839  0.54526388  1  -1.432342  0  -0.449564  -0.989911  0  2.172471  0
F  F45  1  0.93802662  0.89054322  0.48716022  1  -0.639867  0  -0.085872  -0.135104  0  1.401688  0
F  F46  1  0.80183860  0.41287409  0.78453966  1  -0.633018  0  -0.099459  -0.143629  0  1.340474  0
F  F47  1  0.27409513  0.47443675  0.21629978  1  -0.632299  0  -0.082237  -0.127827  0  1.397407  0
