# generated using pymatgen
data_LiH5(C2O)3
_symmetry_space_group_name_H-M   'P 1'
_cell_length_a   6.64441432
_cell_length_b   7.49350946
_cell_length_c   12.29911331
_cell_angle_alpha   90.16159843
_cell_angle_beta   105.69749066
_cell_angle_gamma   90.00970722
_symmetry_Int_Tables_number   1
_chemical_formula_structural   LiH5(C2O)3
_chemical_formula_sum   'Li4 H20 C24 O12'
_cell_volume   589.53070763
_cell_formula_units_Z   4
loop_
 _symmetry_equiv_pos_site_id
 _symmetry_equiv_pos_as_xyz
  1  'x, y, z'
loop_
 _atom_site_type_symbol
 _atom_site_label
 _atom_site_symmetry_multiplicity
 _atom_site_fract_x
 _atom_site_fract_y
 _atom_site_fract_z
 _atom_site_occupancy
 _atom_site_hle17_bader_spin_density
 _atom_site_hle17_ddec_charge
 _atom_site_hle17_ddec_spin_density
 _atom_site_hle17_ddec_sum_bond_order
 _atom_site_hle17_magmom
 _atom_site_hse06_10hf_bader_spin_density
 _atom_site_hse06_10hf_ddec_charge
 _atom_site_hse06_10hf_ddec_spin_density
 _atom_site_hse06_10hf_ddec_sum_bond_order
 _atom_site_hse06_10hf_magmom
 _atom_site_hse06_bader_spin_density
 _atom_site_hse06_ddec_charge
 _atom_site_hse06_ddec_spin_density
 _atom_site_hse06_ddec_sum_bond_order
 _atom_site_hse06_magmom
 _atom_site_pbe_bader_spin_density
 _atom_site_pbe_cm5_charge
 _atom_site_pbe_ddec_charge
 _atom_site_pbe_ddec_spin_density
 _atom_site_pbe_ddec_sum_bond_order
 _atom_site_pbe_magmom
Li  Li0  1  0.72413951  0.40130617  0.06494545  1  0  0.862527  0  0.388758  0  0  0.822286  0  0.4941  0  0  0.831662  0  0.477042  0  0  0.512827  0.815505  0  0.506378  0
Li  Li1  1  0.65931616  0.09867606  0.93507781  1  0  0.862205  0  0.388632  0  0  0.822427  0  0.493094  0  0  0.831706  0  0.476185  0  0  0.512733  0.815664  0  0.505339  0
Li  Li2  1  0.27586193  0.59869495  0.93505595  1  0  0.862535  0  0.388767  0  0  0.822292  0  0.494111  0  0  0.831669  0  0.477052  0  0  0.512839  0.815511  0  0.506388  0
Li  Li3  1  0.34068373  0.90132506  0.06492255  1  0  0.862232  0  0.388607  0  0  0.82244  0  0.493091  0  0  0.831722  0  0.476179  0  0  0.512725  0.815677  0  0.505336  0
H  H4  1  0.80452061  0.71550068  0.12246134  1  0  0.431102  0  0.867806  0  0  0.40471  0  0.924451  0  0  0.413726  0  0.911168  0  0  0.306442  0.398369  0  0.933801  0
H  H5  1  0.68198799  0.78444836  0.87750304  1  0  0.431103  0  0.867653  0  0  0.40482  0  0.924109  0  0  0.413836  0  0.910824  0  0  0.306894  0.398484  0  0.933447  0
H  H6  1  0.19547928  0.28450045  0.87753902  1  0  0.431111  0  0.867793  0  0  0.404716  0  0.924445  0  0  0.413733  0  0.91116  0  0  0.306447  0.398374  0  0.933795  0
H  H7  1  0.31801346  0.21555409  0.12249756  1  0  0.431072  0  0.867691  0  0  0.40479  0  0.924146  0  0  0.413807  0  0.910861  0  0  0.306886  0.398455  0  0.933484  0
H  H8  1  0.02400278  0.63922854  0.11481343  1  0  0.433097  0  0.863677  0  0  0.407016  0  0.918608  0  0  0.416236  0  0.905099  0  0  0.305599  0.400535  0  0.928098  0
H  H9  1  0.90908534  0.86075295  0.88515721  1  0  0.434255  0  0.861913  0  0  0.408253  0  0.91684  0  0  0.417475  0  0.903324  0  0  0.306093  0.401749  0  0.926376  0
H  H10  1  0.97599869  0.36077258  0.88518635  1  0  0.433092  0  0.863688  0  0  0.407011  0  0.918618  0  0  0.416231  0  0.90511  0  0  0.305607  0.40053  0  0.928109  0
H  H11  1  0.09091454  0.13924951  0.11484397  1  0  0.434285  0  0.861864  0  0  0.408261  0  0.916835  0  0  0.417466  0  0.903336  0  0  0.306083  0.401756  0  0.926372  0
H  H12  1  0.54462632  0.28832820  0.32142938  1  0  0.104553  0  0.961628  0  0  0.112207  0  1.027621  0  0  0.115382  0  1.026132  0  0  0.108626  0.109903  0  1.028752  0
H  H13  1  0.22331903  0.21180325  0.67856637  1  0  0.104533  0  0.960506  0  0  0.112154  0  1.026761  0  0  0.115311  0  1.025291  0  0  0.108402  0.10988  0  1.027859  0
H  H14  1  0.45537670  0.71167426  0.67857146  1  0  0.104548  0  0.96163  0  0  0.11221  0  1.027621  0  0  0.115386  0  1.026133  0  0  0.108619  0.109906  0  1.028753  0
H  H15  1  0.77668242  0.78819520  0.32143422  1  0  0.104525  0  0.960497  0  0  0.112149  0  1.026747  0  0  0.115307  0  1.025276  0  0  0.1084  0.109876  0  1.027845  0
H  H16  1  0.35480730  0.85027407  0.48780675  1  0  0.09731  0  0.960379  0  0  0.108998  0  1.018642  0  0  0.111301  0  1.019223  0  0  0.102458  0.107357  0  1.018312  0
H  H17  1  0.86711227  0.64965469  0.51218936  1  0  0.09685  0  0.960981  0  0  0.108669  0  1.019009  0  0  0.110968  0  1.019554  0  0  0.10242  0.107063  0  1.018629  0
H  H18  1  0.64518949  0.14972706  0.51219152  1  0  0.097332  0  0.960408  0  0  0.108993  0  1.018695  0  0  0.111296  0  1.019275  0  0  0.102438  0.107351  0  1.018365  0
H  H19  1  0.13288761  0.35034243  0.48781099  1  0  0.096824  0  0.96103  0  0  0.10868  0  1.019026  0  0  0.110986  0  1.01955  0  0  0.102416  0.107072  0  1.018648  0
H  H20  1  0.30372384  0.82522930  0.28121512  1  0  0.100433  0  0.955168  0  0  0.107945  0  1.021709  0  0  0.111516  0  1.019745  0  0  0.112933  0.105321  0  1.023279  0
H  H21  1  0.02247035  0.67488064  0.71876271  1  0  0.1  0  0.956318  0  0  0.107422  0  1.022824  0  0  0.111089  0  1.020734  0  0  0.112771  0.104739  0  1.024468  0
H  H22  1  0.69627139  0.17477050  0.71878210  1  0  0.100438  0  0.95522  0  0  0.107953  0  1.02175  0  0  0.111524  0  1.019786  0  0  0.11293  0.10533  0  1.02332  0
H  H23  1  0.97752954  0.32512181  0.28123847  1  0  0.100018  0  0.9563  0  0  0.107425  0  1.022821  0  0  0.111091  0  1.020734  0  0  0.112792  0.104742  0  1.024465  0
C  C24  1  0.39637006  0.53712139  0.16493563  1  0  0.703217  0  3.871525  0  0  0.655542  0  4.160833  0  0  0.689082  0  4.150181  0  0  0.24262  0.632849  0  4.167468  0
C  C25  1  0.23147431  0.96289652  0.83518024  1  0  0.701416  0  3.87473  0  0  0.655149  0  4.162545  0  0  0.688661  0  4.151889  0  0  0.242157  0.632432  0  4.169226  0
C  C26  1  0.60363452  0.46287840  0.83506543  1  0  0.703234  0  3.871443  0  0  0.6555  0  4.160832  0  0  0.689037  0  4.150181  0  0  0.24258  0.632806  0  4.167468  0
C  C27  1  0.76852558  0.03710461  0.16482013  1  0  0.701424  0  3.874717  0  0  0.655183  0  4.162489  0  0  0.688701  0  4.151823  0  0  0.242195  0.632474  0  4.169163  0
C  C28  1  0.42112364  0.55290001  0.28909709  1  0  -0.07692  0  3.753398  0  0  -0.053847  0  3.987218  0  0  -0.061945  0  4.010724  0  0  -0.013045  -0.04863  0  3.971395  0
C  C29  1  0.13216798  0.94723644  0.71096316  1  0  -0.076662  0  3.752509  0  0  -0.055183  0  3.987759  0  0  -0.063274  0  4.011251  0  0  -0.013275  -0.049893  0  3.971865  0
C  C30  1  0.57887470  0.44709978  0.71090222  1  0  -0.076987  0  3.753343  0  0  -0.053871  0  3.98715  0  0  -0.06196  0  4.010642  0  0  -0.013041  -0.04865  0  3.971319  0
C  C31  1  0.86783190  0.05276335  0.28903801  1  0  -0.076679  0  3.752603  0  0  -0.055216  0  3.987857  0  0  -0.063307  0  4.011346  0  0  -0.01329  -0.04993  0  3.971966  0
C  C32  1  0.50168056  0.40989114  0.35846864  1  0  -0.097107  0  3.687191  0  0  -0.128097  0  3.933258  0  0  -0.127699  0  3.952514  0  0  -0.071596  -0.128088  0  3.920139  0
C  C33  1  0.14334915  0.09019749  0.64155754  1  0  -0.09653  0  3.685929  0  0  -0.127248  0  3.932335  0  0  -0.126834  0  3.951578  0  0  -0.07116  -0.127271  0  3.919194  0
C  C34  1  0.49832090  0.59011132  0.64153115  1  0  -0.097095  0  3.687131  0  0  -0.128116  0  3.933185  0  0  -0.12772  0  3.952437  0  0  -0.071584  -0.128106  0  3.920062  0
C  C35  1  0.85665388  0.90980096  0.35844248  1  0  -0.096469  0  3.685956  0  0  -0.127181  0  3.932367  0  0  -0.126766  0  3.951609  0  0  -0.071139  -0.127204  0  3.919227  0
C  C36  1  0.52763890  0.41902069  0.47626582  1  0  0.04855  0  3.800042  0  0  0.065693  0  4.027261  0  0  0.06553  0  4.049922  0  0  -0.00514  0.065768  0  4.011886  0
C  C37  1  0.05144317  0.08097353  0.52374213  1  0  0.047931  0  3.799711  0  0  0.065224  0  4.026734  0  0  0.065052  0  4.049391  0  0  -0.005109  0.065307  0  4.011363  0
C  C38  1  0.47235944  0.58097910  0.52373350  1  0  0.048584  0  3.800003  0  0  0.06577  0  4.027196  0  0  0.065606  0  4.049858  0  0  -0.005106  0.065845  0  4.01182  0
C  C39  1  0.94855672  0.91902359  0.47625822  1  0  0.047791  0  3.799758  0  0  0.065081  0  4.026782  0  0  0.064906  0  4.049438  0  0  -0.00516  0.065164  0  4.01141  0
C  C40  1  0.39332219  0.72675922  0.45100728  1  0  -0.104794  0  3.72916  0  0  -0.122829  0  3.976702  0  0  -0.126312  0  3.998757  0  0  -0.084132  -0.120449  0  3.961697  0
C  C41  1  0.94218114  0.77330229  0.54900268  1  0  -0.104445  0  3.73008  0  0  -0.122535  0  3.977516  0  0  -0.125997  0  3.999588  0  0  -0.084257  -0.120178  0  3.962531  0
C  C42  1  0.60667302  0.27323924  0.54899156  1  0  -0.104836  0  3.729231  0  0  -0.122841  0  3.976781  0  0  -0.126321  0  3.99883  0  0  -0.084113  -0.12046  0  3.961776  0
C  C43  1  0.05781718  0.22669616  0.45099744  1  0  -0.104493  0  3.730146  0  0  -0.122621  0  3.977584  0  0  -0.126082  0  3.999658  0  0  -0.084294  -0.120264  0  3.962599  0
C  C44  1  0.36534029  0.71292388  0.33632406  1  0  -0.069611  0  3.735673  0  0  -0.09469  0  3.989468  0  0  -0.095502  0  4.010434  0  0  -0.078389  -0.093985  0  3.975294  0
C  C45  1  0.02892253  0.78724722  0.66369270  1  0  -0.068673  0  3.736259  0  0  -0.093305  0  3.990331  0  0  -0.094182  0  4.01127  0  0  -0.077916  -0.092574  0  3.976159  0
C  C46  1  0.63465336  0.28707458  0.66367455  1  0  -0.069587  0  3.735766  0  0  -0.094673  0  3.989539  0  0  -0.095487  0  4.010502  0  0  -0.078391  -0.09397  0  3.975364  0
C  C47  1  0.97107580  0.21275257  0.33630742  1  0  -0.06868  0  3.736246  0  0  -0.093296  0  3.990337  0  0  -0.094175  0  4.011281  0  0  -0.077933  -0.092563  0  3.976161  0
O  O48  1  0.48374542  0.40844526  0.12775764  1  0  -0.729751  0  1.978623  0  0  -0.680883  0  2.214784  0  0  -0.702285  0  2.201074  0  0  -0.361125  -0.666092  0  2.223962  0
O  O49  1  0.35561978  0.09185388  0.87250067  1  0  -0.729332  0  1.980955  0  0  -0.681044  0  2.216604  0  0  -0.702253  0  2.202643  0  0  -0.360921  -0.666353  0  2.225933  0
O  O50  1  0.51626227  0.59155453  0.87224470  1  0  -0.729753  0  1.978587  0  0  -0.680881  0  2.214795  0  0  -0.702284  0  2.201092  0  0  -0.361137  -0.66609  0  2.223974  0
O  O51  1  0.64437853  0.90814858  0.12750028  1  0  -0.729365  0  1.980849  0  0  -0.681104  0  2.21654  0  0  -0.702317  0  2.202583  0  0  -0.360965  -0.666412  0  2.225856  0
O  O52  1  0.88619282  0.60506122  0.12416278  1  0  -0.910019  0  1.737253  0  0  -0.86736  0  1.893047  0  0  -0.883156  0  1.863785  0  0  -0.659102  -0.856228  0  1.91349  0
O  O53  1  0.76191823  0.89492424  0.87577708  1  0  -0.910197  0  1.736705  0  0  -0.867855  0  1.891845  0  0  -0.88369  0  1.862627  0  0  -0.658978  -0.856653  0  1.912279  0
O  O54  1  0.11380707  0.39493991  0.87583758  1  0  -0.910031  0  1.737265  0  0  -0.867371  0  1.893064  0  0  -0.883169  0  1.8638  0  0  -0.659121  -0.856238  0  1.913507  0
O  O55  1  0.23808323  0.10507822  0.12422271  1  0  -0.910195  0  1.736675  0  0  -0.867841  0  1.891833  0  0  -0.883659  0  1.862655  0  0  -0.658961  -0.856639  0  1.912267  0
O  O56  1  0.28419191  0.65362923  0.09894630  1  0  -0.792501  0  2.023714  0  0  -0.736655  0  2.257507  0  0  -0.757542  0  2.240598  0  0  -0.419135  -0.722101  0  2.268774  0
O  O57  1  0.18553415  0.84615660  0.90108240  1  0  -0.792501  0  2.025963  0  0  -0.736928  0  2.259052  0  0  -0.757816  0  2.242293  0  0  -0.419671  -0.72238  0  2.270254  0
O  O58  1  0.71581270  0.34636923  0.90105233  1  0  -0.792449  0  2.023676  0  0  -0.736592  0  2.257507  0  0  -0.757479  0  2.240601  0  0  -0.419082  -0.722038  0  2.268773  0
O  O59  1  0.81446730  0.15384318  0.09891819  1  0  -0.792466  0  2.025991  0  0  -0.736904  0  2.259086  0  0  -0.75779  0  2.242319  0  0  -0.419662  -0.722356  0  2.27028  0
