# generated using pymatgen
data_HoH4C8N2Cl3
_symmetry_space_group_name_H-M   'P 1'
_cell_length_a   10.97222568
_cell_length_b   11.22271196
_cell_length_c   19.09524583
_cell_angle_alpha   106.78967455
_cell_angle_beta   90.00003867
_cell_angle_gamma   89.99997215
_symmetry_Int_Tables_number   1
_chemical_formula_structural   HoH4C8N2Cl3
_chemical_formula_sum   'Ho8 H32 C64 N16 Cl24'
_cell_volume   2251.11835012
_cell_formula_units_Z   8
loop_
 _symmetry_equiv_pos_site_id
 _symmetry_equiv_pos_as_xyz
  1  'x, y, z'
loop_
 _atom_site_type_symbol
 _atom_site_label
 _atom_site_symmetry_multiplicity
 _atom_site_fract_x
 _atom_site_fract_y
 _atom_site_fract_z
 _atom_site_occupancy
 _atom_site_hle17_bader_spin_density
 _atom_site_hle17_ddec_charge
 _atom_site_hle17_ddec_spin_density
 _atom_site_hle17_ddec_sum_bond_order
 _atom_site_hle17_magmom
 _atom_site_hse06_10hf_bader_spin_density
 _atom_site_hse06_10hf_ddec_charge
 _atom_site_hse06_10hf_ddec_spin_density
 _atom_site_hse06_10hf_ddec_sum_bond_order
 _atom_site_hse06_10hf_magmom
 _atom_site_hse06_bader_spin_density
 _atom_site_hse06_ddec_charge
 _atom_site_hse06_ddec_spin_density
 _atom_site_hse06_ddec_sum_bond_order
 _atom_site_hse06_magmom
 _atom_site_pbe_bader_spin_density
 _atom_site_pbe_cm5_charge
 _atom_site_pbe_ddec_charge
 _atom_site_pbe_ddec_spin_density
 _atom_site_pbe_ddec_sum_bond_order
 _atom_site_pbe_magmom
Ho  Ho0  1  0.67566245  0.31011443  0.26201524  1  0  2.03107  0  1.837737  0  0  1.946952  0  2.21741  0  0  2.006398  0  2.156225  0  0  1.204697  1.898114  0  2.273062  0
Ho  Ho1  1  0.17566210  0.18988564  0.73798571  1  0  2.031124  0  1.837653  0  0  1.946969  0  2.217394  0  0  2.00644  0  2.15616  0  0  1.204707  1.89811  0  2.273072  0
Ho  Ho2  1  0.32433737  0.68988612  0.73798516  1  0  2.031017  0  1.837868  0  0  1.946918  0  2.217514  0  0  2.006403  0  2.156269  0  0  1.204689  1.898098  0  2.273128  0
Ho  Ho3  1  0.82433772  0.81011491  0.26201468  1  0  2.031022  0  1.837792  0  0  1.94694  0  2.217418  0  0  2.006409  0  2.156184  0  0  1.2047  1.898103  0  2.273059  0
Ho  Ho4  1  0.01834088  0.44963363  0.23167485  1  0  1.914597  0  2.072774  0  0  1.790105  0  2.600545  0  0  1.8581  0  2.518338  0  0  1.021368  1.74174  0  2.656453  0
Ho  Ho5  1  0.51834104  0.05036556  0.76832484  1  0  1.914633  0  2.072769  0  0  1.790167  0  2.600507  0  0  1.858155  0  2.518308  0  0  1.021371  1.7418  0  2.656409  0
Ho  Ho6  1  0.98165894  0.55036599  0.76832486  1  0  1.914635  0  2.072712  0  0  1.790158  0  2.600463  0  0  1.858137  0  2.518277  0  0  1.021382  1.741801  0  2.656348  0
Ho  Ho7  1  0.48165879  0.94963499  0.23167503  1  0  1.91462  0  2.072745  0  0  1.790132  0  2.60052  0  0  1.858113  0  2.518334  0  0  1.021357  1.741776  0  2.656403  0
H  H8  1  0.36300561  0.64012449  0.18833593  1  0  0.108032  0  0.957007  0  0  0.11536  0  1.02406  0  0  0.118525  0  1.021644  0  0  0.107245  0.113091  0  1.025742  0
H  H9  1  0.86300384  0.85987652  0.81166392  1  0  0.108068  0  0.956977  0  0  0.115336  0  1.024092  0  0  0.11852  0  1.021653  0  0  0.107247  0.113065  0  1.025774  0
H  H10  1  0.63699512  0.35987419  0.81166363  1  0  0.108031  0  0.956991  0  0  0.11533  0  1.024072  0  0  0.118496  0  1.021653  0  0  0.107234  0.113056  0  1.025753  0
H  H11  1  0.13699507  0.14012496  0.18833611  1  0  0.108033  0  0.956999  0  0  0.11533  0  1.024085  0  0  0.118497  0  1.021665  0  0  0.107233  0.113055  0  1.025769  0
H  H12  1  0.28415386  0.65632459  0.32286057  1  0  0.111716  0  0.962573  0  0  0.118363  0  1.030152  0  0  0.121707  0  1.027614  0  0  0.104516  0.115869  0  1.032054  0
H  H13  1  0.78415376  0.84367551  0.67713961  1  0  0.111684  0  0.962575  0  0  0.118348  0  1.030146  0  0  0.121697  0  1.027608  0  0  0.104501  0.11585  0  1.032051  0
H  H14  1  0.71584596  0.34367595  0.67713929  1  0  0.111709  0  0.962568  0  0  0.118371  0  1.030136  0  0  0.12172  0  1.027596  0  0  0.104512  0.115873  0  1.032042  0
H  H15  1  0.21584606  0.15632410  0.32286062  1  0  0.111707  0  0.96257  0  0  0.118369  0  1.030139  0  0  0.121718  0  1.0276  0  0  0.104509  0.115867  0  1.032047  0
H  H16  1  0.20842160  0.72110892  0.12037201  1  0  0.108705  0  0.952698  0  0  0.116416  0  1.015209  0  0  0.119164  0  1.015013  0  0  0.104126  0.114401  0  1.015708  0
H  H17  1  0.70841995  0.77889214  0.87962883  1  0  0.108686  0  0.952735  0  0  0.116406  0  1.015237  0  0  0.119152  0  1.015043  0  0  0.104113  0.114387  0  1.015737  0
H  H18  1  0.79158005  0.27889070  0.87962875  1  0  0.108686  0  0.95271  0  0  0.116399  0  1.015225  0  0  0.119145  0  1.015031  0  0  0.104115  0.11438  0  1.015724  0
H  H19  1  0.29157987  0.22110933  0.12037172  1  0  0.108672  0  0.952728  0  0  0.116385  0  1.015248  0  0  0.119132  0  1.015051  0  0  0.104114  0.114366  0  1.015747  0
H  H20  1  0.17866113  0.84974762  0.39208071  1  0  0.113542  0  0.934044  0  0  0.123171  0  0.990245  0  0  0.126142  0  0.989714  0  0  0.109067  0.121062  0  0.990777  0
H  H21  1  0.67866013  0.65025252  0.60791840  1  0  0.113563  0  0.933982  0  0  0.123187  0  0.990189  0  0  0.126166  0  0.98965  0  0  0.109078  0.121078  0  0.990722  0
H  H22  1  0.82133961  0.15025386  0.60791827  1  0  0.113516  0  0.934042  0  0  0.123153  0  0.990236  0  0  0.126123  0  0.989706  0  0  0.109061  0.121043  0  0.990766  0
H  H23  1  0.32133969  0.34974616  0.39208063  1  0  0.113575  0  0.933982  0  0  0.123204  0  0.99018  0  0  0.126177  0  0.989647  0  0  0.109078  0.121093  0  0.990714  0
H  H24  1  0.26375511  0.97898131  0.51265925  1  0  0.117578  0  0.965138  0  0  0.126723  0  1.026909  0  0  0.130447  0  1.024206  0  0  0.100133  0.123865  0  1.029114  0
H  H25  1  0.76375587  0.52101880  0.48734093  1  0  0.117564  0  0.965156  0  0  0.126707  0  1.026937  0  0  0.130426  0  1.02424  0  0  0.10011  0.123848  0  1.029143  0
H  H26  1  0.73624471  0.02101923  0.48734114  1  0  0.117613  0  0.965124  0  0  0.126756  0  1.026896  0  0  0.130481  0  1.02419  0  0  0.100144  0.123898  0  1.029102  0
H  H27  1  0.23624487  0.47898081  0.51265878  1  0  0.117611  0  0.965126  0  0  0.126753  0  1.0269  0  0  0.130478  0  1.024194  0  0  0.100136  0.123895  0  1.029107  0
H  H28  1  0.56735172  0.72441833  0.48712101  1  0  0.11789  0  0.938099  0  0  0.128506  0  0.997005  0  0  0.131117  0  0.99598  0  0  0.116594  0.126638  0  0.997645  0
H  H29  1  0.06735290  0.77558184  0.51288015  1  0  0.117931  0  0.938066  0  0  0.128549  0  0.996968  0  0  0.13116  0  0.995944  0  0  0.116615  0.126678  0  0.997609  0
H  H30  1  0.43264627  0.27558129  0.51287923  1  0  0.117928  0  0.938055  0  0  0.128547  0  0.996954  0  0  0.131157  0  0.995931  0  0  0.116604  0.126675  0  0.997596  0
H  H31  1  0.93264784  0.22441963  0.48712040  1  0  0.117935  0  0.938056  0  0  0.128551  0  0.996963  0  0  0.131163  0  0.995938  0  0  0.11662  0.12668  0  0.997604  0
H  H32  1  0.14912879  0.59486037  0.99269558  1  0  0.114179  0  0.972014  0  0  0.123663  0  1.033814  0  0  0.12702  0  1.031266  0  0  0.099557  0.121141  0  1.035764  0
H  H33  1  0.64912697  0.90514071  0.00730472  1  0  0.114157  0  0.971986  0  0  0.123633  0  1.033805  0  0  0.126989  0  1.031261  0  0  0.099555  0.121126  0  1.035737  0
H  H34  1  0.85087285  0.40514018  0.00730429  1  0  0.11418  0  0.97197  0  0  0.123655  0  1.033789  0  0  0.127011  0  1.031245  0  0  0.099558  0.121146  0  1.035722  0
H  H35  1  0.35087285  0.09486077  0.99269583  1  0  0.114206  0  0.971959  0  0  0.12366  0  1.033802  0  0  0.127015  0  1.03126  0  0  0.099564  0.12115  0  1.035734  0
H  H36  1  0.41419665  0.31518533  0.00194524  1  0  0.125233  0  0.962651  0  0  0.134929  0  1.023357  0  0  0.138402  0  1.021162  0  0  0.10574  0.132304  0  1.025157  0
H  H37  1  0.91419610  0.18481467  0.99805527  1  0  0.12523  0  0.962668  0  0  0.134928  0  1.023373  0  0  0.1384  0  1.021178  0  0  0.105732  0.132304  0  1.025173  0
H  H38  1  0.58580499  0.68481522  0.99805411  1  0  0.125223  0  0.96265  0  0  0.134924  0  1.023357  0  0  0.138395  0  1.02116  0  0  0.105746  0.132299  0  1.025158  0
H  H39  1  0.08580463  0.81518588  0.00194512  1  0  0.125236  0  0.962668  0  0  0.134923  0  1.023389  0  0  0.138397  0  1.021193  0  0  0.105736  0.132301  0  1.025188  0
C  C40  1  0.48199892  0.75128762  0.46696082  1  0  -0.058332  0  3.626653  0  0  -0.093248  0  3.864089  0  0  -0.09022  0  3.880758  0  0  -0.045305  -0.094727  0  3.852443  0
C  C41  1  0.98200053  0.74871149  0.53304032  1  0  -0.058454  0  3.626737  0  0  -0.093369  0  3.864186  0  0  -0.090347  0  3.880847  0  0  -0.04534  -0.094847  0  3.852541  0
C  C42  1  0.51799908  0.24871200  0.53303994  1  0  -0.058454  0  3.626739  0  0  -0.093381  0  3.864184  0  0  -0.090359  0  3.880849  0  0  -0.045334  -0.094859  0  3.852536  0
C  C43  1  0.01799929  0.25128905  0.46695955  1  0  -0.058446  0  3.626729  0  0  -0.093387  0  3.864149  0  0  -0.090365  0  3.880814  0  0  -0.045339  -0.094862  0  3.852501  0
C  C44  1  0.48366848  0.42597841  0.14059850  1  0  0.380707  0  3.65613  0  0  0.363886  0  3.912154  0  0  0.379316  0  3.927602  0  0  0.235588  0.353049  0  3.901594  0
C  C45  1  0.98366782  0.07402157  0.85940098  1  0  0.380708  0  3.656102  0  0  0.363876  0  3.912143  0  0  0.37931  0  3.927589  0  0  0.235599  0.353038  0  3.901579  0
C  C46  1  0.51633407  0.57402121  0.85940016  1  0  0.380775  0  3.656011  0  0  0.363961  0  3.912029  0  0  0.379398  0  3.927472  0  0  0.235648  0.353125  0  3.901468  0
C  C47  1  0.01633291  0.92597898  0.14059889  1  0  0.380715  0  3.656125  0  0  0.363892  0  3.912148  0  0  0.379327  0  3.927591  0  0  0.235597  0.353058  0  3.901589  0
C  C48  1  0.27820200  0.44902265  0.99114866  1  0  0.009292  0  3.863906  0  0  0.034298  0  4.094304  0  0  0.028407  0  4.115974  0  0  0.009692  0.037852  0  4.07981  0
C  C49  1  0.77820218  0.05097738  0.00885180  1  0  0.009261  0  3.863889  0  0  0.03431  0  4.094237  0  0  0.028409  0  4.115904  0  0  0.009732  0.037859  0  4.079753  0
C  C50  1  0.72179782  0.55097789  0.00885173  1  0  0.00922  0  3.863934  0  0  0.034264  0  4.094305  0  0  0.028353  0  4.115977  0  0  0.009724  0.037806  0  4.079823  0
C  C51  1  0.22179947  0.94902316  0.99114911  1  0  0.009253  0  3.863948  0  0  0.034275  0  4.094328  0  0  0.028367  0  4.116006  0  0  0.009731  0.037823  0  4.079838  0
C  C52  1  0.46413384  0.92588988  0.57650601  1  0  0.388974  0  3.678496  0  0  0.366438  0  3.942051  0  0  0.382697  0  3.958644  0  0  0.243356  0.355304  0  3.931177  0
C  C53  1  0.96413540  0.57410924  0.42349407  1  0  0.388997  0  3.678614  0  0  0.366472  0  3.942175  0  0  0.382725  0  3.958763  0  0  0.243409  0.355338  0  3.9313  0
C  C54  1  0.53586416  0.07410787  0.42349390  1  0  0.389024  0  3.678686  0  0  0.366491  0  3.942232  0  0  0.382745  0  3.958826  0  0  0.243426  0.355359  0  3.931358  0
C  C55  1  0.03586442  0.42589131  0.57650579  1  0  0.389  0  3.67859  0  0  0.366453  0  3.942145  0  0  0.382712  0  3.958731  0  0  0.243388  0.355324  0  3.931269  0
C  C56  1  0.24257657  0.37686243  0.92021735  1  0  0.404987  0  3.655335  0  0  0.38505  0  3.912947  0  0  0.40192  0  3.927223  0  0  0.251182  0.373386  0  3.903467  0
C  C57  1  0.74257680  0.12313762  0.07978310  1  0  0.405035  0  3.655343  0  0  0.385089  0  3.912946  0  0  0.401963  0  3.927217  0  0  0.251232  0.373426  0  3.90347  0
C  C58  1  0.75742416  0.62313719  0.07978184  1  0  0.40504  0  3.655378  0  0  0.385094  0  3.912995  0  0  0.401972  0  3.927264  0  0  0.251179  0.373433  0  3.903517  0
C  C59  1  0.25742485  0.87686293  0.92021781  1  0  0.405051  0  3.655307  0  0  0.385106  0  3.912923  0  0  0.401984  0  3.927192  0  0  0.251196  0.373444  0  3.903443  0
C  C60  1  0.32195295  0.71434493  0.37412735  1  0  -0.027156  0  3.633443  0  0  -0.056722  0  3.880901  0  0  -0.053436  0  3.898121  0  0  -0.048682  -0.058549  0  3.869217  0
C  C61  1  0.82195374  0.78565517  0.62587337  1  0  -0.027189  0  3.633424  0  0  -0.056769  0  3.880858  0  0  -0.053493  0  3.898083  0  0  -0.048704  -0.058593  0  3.86917  0
C  C62  1  0.67804596  0.28565562  0.62587252  1  0  -0.0272  0  3.633375  0  0  -0.056767  0  3.880802  0  0  -0.053493  0  3.898024  0  0  -0.048711  -0.058594  0  3.869117  0
C  C63  1  0.17804609  0.21434445  0.37412738  1  0  -0.027203  0  3.63348  0  0  -0.056787  0  3.880875  0  0  -0.053508  0  3.898098  0  0  -0.048705  -0.058606  0  3.869188  0
C  C64  1  0.41909099  0.85795377  0.50671220  1  0  0.012649  0  3.86181  0  0  0.0368  0  4.094638  0  0  0.031031  0  4.115698  0  0  0.009395  0.040317  0  4.080653  0
C  C65  1  0.91909260  0.64204536  0.49328840  1  0  0.012722  0  3.861758  0  0  0.036838  0  4.09463  0  0  0.03109  0  4.115658  0  0  0.009395  0.040356  0  4.080644  0
C  C66  1  0.58090792  0.14204584  0.49328908  1  0  0.012762  0  3.861714  0  0  0.036915  0  4.094526  0  0  0.031168  0  4.115567  0  0  0.009415  0.040433  0  4.080542  0
C  C67  1  0.08090813  0.35795426  0.50671079  1  0  0.012762  0  3.861746  0  0  0.036923  0  4.094565  0  0  0.031164  0  4.115604  0  0  0.009413  0.040437  0  4.080577  0
C  C68  1  0.49436012  0.57004827  0.36075842  1  0  0.397704  0  3.646726  0  0  0.37867  0  3.903475  0  0  0.395171  0  3.918108  0  0  0.241909  0.366899  0  3.895004  0
C  C69  1  0.99436176  0.92994898  0.63924189  1  0  0.397648  0  3.64664  0  0  0.378577  0  3.903418  0  0  0.395077  0  3.918053  0  0  0.241822  0.366802  0  3.894943  0
C  C70  1  0.50563515  0.42995135  0.63924129  1  0  0.397756  0  3.646676  0  0  0.378719  0  3.903416  0  0  0.395217  0  3.918051  0  0  0.241907  0.366946  0  3.894945  0
C  C71  1  0.00563715  0.07005064  0.36075730  1  0  0.397693  0  3.64673  0  0  0.378597  0  3.903501  0  0  0.395094  0  3.918139  0  0  0.241888  0.366821  0  3.895034  0
C  C72  1  0.39765946  0.47325896  0.09978080  1  0  0.008976  0  3.867744  0  0  0.031794  0  4.102852  0  0  0.026229  0  4.124408  0  0  0.011172  0.035332  0  4.088482  0
C  C73  1  0.89765796  0.02674197  0.90021933  1  0  0.008989  0  3.867717  0  0  0.031821  0  4.102811  0  0  0.026244  0  4.124374  0  0  0.011173  0.035355  0  4.088443  0
C  C74  1  0.60234218  0.52674158  0.90021907  1  0  0.008979  0  3.867767  0  0  0.031814  0  4.102857  0  0  0.02623  0  4.124421  0  0  0.011196  0.035341  0  4.088489  0
C  C75  1  0.10234277  0.97325858  0.09978106  1  0  0.00892  0  3.867908  0  0  0.031761  0  4.102988  0  0  0.026179  0  4.124548  0  0  0.011197  0.03529  0  4.088624  0
C  C76  1  0.33934129  0.58749120  0.13271091  1  0  -0.032822  0  3.661795  0  0  -0.06452  0  3.915277  0  0  -0.061566  0  3.93286  0  0  -0.047271  -0.066265  0  3.903457  0
C  C77  1  0.83933956  0.91250982  0.86728893  1  0  -0.032828  0  3.661803  0  0  -0.064449  0  3.915249  0  0  -0.061502  0  3.93282  0  0  -0.047257  -0.06619  0  3.903423  0
C  C78  1  0.66065944  0.41250748  0.86728865  1  0  -0.032793  0  3.661699  0  0  -0.064475  0  3.915193  0  0  -0.061512  0  3.93277  0  0  -0.047262  -0.066211  0  3.903363  0
C  C79  1  0.16066026  0.08749166  0.13271214  1  0  -0.032736  0  3.661687  0  0  -0.064403  0  3.915149  0  0  -0.06144  0  3.932727  0  0  -0.047223  -0.066138  0  3.903324  0
C  C80  1  0.43188601  0.67946033  0.40072290  1  0  0.014898  0  3.843942  0  0  0.039217  0  4.075621  0  0  0.033354  0  4.096637  0  0  0.013925  0.042819  0  4.061825  0
C  C81  1  0.93188765  0.82053787  0.59927754  1  0  0.014987  0  3.843957  0  0  0.039329  0  4.075613  0  0  0.03347  0  4.09663  0  0  0.013992  0.042937  0  4.061814  0
C  C82  1  0.56811199  0.32053742  0.59927702  1  0  0.014949  0  3.844009  0  0  0.039275  0  4.075662  0  0  0.033418  0  4.096678  0  0  0.013985  0.042884  0  4.061863  0
C  C83  1  0.06811308  0.17946268  0.40072180  1  0  0.014945  0  3.844026  0  0  0.039344  0  4.075602  0  0  0.033482  0  4.096619  0  0  0.013967  0.042945  0  4.061806  0
C  C84  1  0.36854502  0.40308115  0.02833938  1  0  -0.087013  0  3.640488  0  0  -0.119483  0  3.875934  0  0  -0.118437  0  3.89507  0  0  -0.053778  -0.119593  0  3.863001  0
C  C85  1  0.86854539  0.09691886  0.97166059  1  0  -0.087069  0  3.640541  0  0  -0.119558  0  3.875979  0  0  -0.118511  0  3.895119  0  0  -0.053809  -0.119671  0  3.863054  0
C  C86  1  0.63145572  0.59691847  0.97166033  1  0  -0.087069  0  3.640645  0  0  -0.119559  0  3.876094  0  0  -0.118508  0  3.895238  0  0  -0.053842  -0.119669  0  3.863169  0
C  C87  1  0.13145535  0.90308168  0.02834033  1  0  -0.087007  0  3.640666  0  0  -0.119481  0  3.876107  0  0  -0.118434  0  3.895254  0  0  -0.053811  -0.119595  0  3.863182  0
C  C88  1  0.30962366  0.89455935  0.48034236  1  0  -0.0424  0  3.637351  0  0  -0.06851  0  3.878711  0  0  -0.065958  0  3.895823  0  0  -0.055407  -0.0698  0  3.867192  0
C  C89  1  0.80962441  0.60543982  0.51965767  1  0  -0.042436  0  3.637348  0  0  -0.068531  0  3.878706  0  0  -0.065981  0  3.895815  0  0  -0.055404  -0.069819  0  3.867187  0
C  C90  1  0.69037525  0.10544120  0.51965803  1  0  -0.042494  0  3.63744  0  0  -0.068597  0  3.878804  0  0  -0.066052  0  3.895911  0  0  -0.055422  -0.069888  0  3.867286  0
C  C91  1  0.19037633  0.39455887  0.48034136  1  0  -0.04254  0  3.637479  0  0  -0.068656  0  3.87884  0  0  -0.066105  0  3.895948  0  0  -0.055442  -0.069945  0  3.86732  0
C  C92  1  0.21974563  0.56342434  0.02346776  1  0  -0.031827  0  3.633268  0  0  -0.057955  0  3.872113  0  0  -0.055179  0  3.889146  0  0  -0.052816  -0.059301  0  3.860491  0
C  C93  1  0.71974401  0.93657765  0.97653272  1  0  -0.031701  0  3.633158  0  0  -0.05783  0  3.872015  0  0  -0.055049  0  3.889049  0  0  -0.05279  -0.059181  0  3.860375  0
C  C94  1  0.78025602  0.43657621  0.97653211  1  0  -0.031791  0  3.633128  0  0  -0.057929  0  3.871992  0  0  -0.055146  0  3.889026  0  0  -0.052839  -0.059281  0  3.860359  0
C  C95  1  0.28025672  0.06342476  0.02346851  1  0  -0.031807  0  3.633236  0  0  -0.057905  0  3.872085  0  0  -0.055123  0  3.889122  0  0  -0.052819  -0.05926  0  3.860455  0
C  C96  1  0.25196610  0.63230174  0.09398781  1  0  -0.050281  0  3.72737  0  0  -0.064286  0  3.985769  0  0  -0.069792  0  4.00748  0  0  -0.070436  -0.060898  0  3.97143  0
C  C97  1  0.75196352  0.86770024  0.90601269  1  0  -0.050356  0  3.727481  0  0  -0.064379  0  3.985896  0  0  -0.069891  0  4.007614  0  0  -0.070467  -0.060991  0  3.971559  0
C  C98  1  0.74803464  0.36769787  0.90601243  1  0  -0.050267  0  3.727391  0  0  -0.064266  0  3.985775  0  0  -0.069775  0  4.007485  0  0  -0.070417  -0.060877  0  3.971431  0
C  C99  1  0.24803630  0.13230217  0.09398750  1  0  -0.050311  0  3.727424  0  0  -0.064329  0  3.985832  0  0  -0.069839  0  4.007543  0  0  -0.07046  -0.060942  0  3.97149  0
C  C100  1  0.26234153  0.82228258  0.41396723  1  0  -0.052895  0  3.717256  0  0  -0.064901  0  3.973413  0  0  -0.070423  0  3.994563  0  0  -0.072634  -0.061458  0  3.95901  0
C  C101  1  0.76234232  0.67771753  0.58603294  1  0  -0.052871  0  3.717205  0  0  -0.064878  0  3.97337  0  0  -0.070405  0  3.994519  0  0  -0.072631  -0.061433  0  3.958961  0
C  C102  1  0.73765647  0.17771796  0.58603211  1  0  -0.052838  0  3.717202  0  0  -0.064871  0  3.973383  0  0  -0.070389  0  3.994533  0  0  -0.072638  -0.061424  0  3.958975  0
C  C103  1  0.23765751  0.32228209  0.41396729  1  0  -0.052868  0  3.717234  0  0  -0.06488  0  3.973393  0  0  -0.070403  0  3.994545  0  0  -0.072645  -0.061434  0  3.958984  0
N  N104  1  0.54709053  0.48045198  0.32971163  1  0  -0.49808  0  2.854765  0  0  -0.464247  0  3.113701  0  0  -0.482023  0  3.122978  0  0  -0.390499  -0.452044  0  3.109457  0
N  N105  1  0.04709567  0.01954533  0.67028985  1  0  -0.498051  0  2.85469  0  0  -0.464188  0  3.11363  0  0  -0.481967  0  3.122907  0  0  -0.390449  -0.451979  0  3.109384  0
N  N106  1  0.45290564  0.51954670  0.67028792  1  0  -0.498123  0  2.854763  0  0  -0.464295  0  3.113705  0  0  -0.482076  0  3.122982  0  0  -0.390528  -0.452097  0  3.10946  0
N  N107  1  0.95290689  0.98045615  0.32971018  1  0  -0.498046  0  2.854819  0  0  -0.464198  0  3.113783  0  0  -0.481975  0  3.123061  0  0  -0.390497  -0.451993  0  3.109541  0
N  N108  1  0.50001536  0.97847962  0.63456507  1  0  -0.523694  0  2.841247  0  0  -0.485715  0  3.107522  0  0  -0.505966  0  3.118225  0  0  -0.384253  -0.472161  0  3.100377  0
N  N109  1  0.00001649  0.52151964  0.36543590  1  0  -0.523701  0  2.841377  0  0  -0.485719  0  3.107642  0  0  -0.505973  0  3.11835  0  0  -0.384281  -0.472164  0  3.100497  0
N  N110  1  0.49998355  0.02151906  0.36543657  1  0  -0.523754  0  2.841528  0  0  -0.485773  0  3.107795  0  0  -0.506027  0  3.118505  0  0  -0.384308  -0.472222  0  3.100652  0
N  N111  1  0.99998424  0.47847905  0.63456417  1  0  -0.523713  0  2.841404  0  0  -0.485731  0  3.107672  0  0  -0.505979  0  3.118376  0  0  -0.384261  -0.472177  0  3.100526  0
N  N112  1  0.21318051  0.31782917  0.86203523  1  0  -0.520986  0  2.871966  0  0  -0.490124  0  3.13426  0  0  -0.50833  0  3.143264  0  0  -0.391171  -0.477045  0  3.128923  0
N  N113  1  0.71318077  0.18216903  0.13796489  1  0  -0.521005  0  2.871967  0  0  -0.490153  0  3.134264  0  0  -0.508354  0  3.143267  0  0  -0.391223  -0.477076  0  3.128929  0
N  N114  1  0.78682113  0.68217045  0.13796448  1  0  -0.520968  0  2.871952  0  0  -0.49012  0  3.134244  0  0  -0.508323  0  3.143245  0  0  -0.391143  -0.477039  0  3.128906  0
N  N115  1  0.28682087  0.81782873  0.86203555  1  0  -0.521005  0  2.871961  0  0  -0.49015  0  3.134254  0  0  -0.508356  0  3.143253  0  0  -0.391176  -0.477074  0  3.128913  0
N  N116  1  0.55168206  0.38620780  0.17486450  1  0  -0.472887  0  2.83246  0  0  -0.439467  0  3.085524  0  0  -0.456693  0  3.096041  0  0  -0.370464  -0.42683  0  3.078455  0
N  N117  1  0.05168277  0.11378951  0.82513488  1  0  -0.472869  0  2.832466  0  0  -0.439451  0  3.085542  0  0  -0.456675  0  3.096056  0  0  -0.370458  -0.426809  0  3.078471  0
N  N118  1  0.44832049  0.61378995  0.82513384  1  0  -0.472924  0  2.83236  0  0  -0.439521  0  3.085433  0  0  -0.456748  0  3.095946  0  0  -0.370505  -0.426882  0  3.078363  0
N  N119  1  0.94831887  0.88621103  0.17486498  1  0  -0.472908  0  2.832398  0  0  -0.439507  0  3.085477  0  0  -0.456731  0  3.095987  0  0  -0.3705  -0.426866  0  3.078409  0
Cl  Cl120  1  0.78330691  0.51794236  0.24844777  1  0  -0.729064  0  1.141543  0  0  -0.697852  0  1.428387  0  0  -0.720921  0  1.408969  0  0  -0.303772  -0.679178  0  1.44252  0
Cl  Cl121  1  0.28331099  0.98205775  0.75155242  1  0  -0.729084  0  1.141568  0  0  -0.697866  0  1.428412  0  0  -0.720943  0  1.409001  0  0  -0.303774  -0.679196  0  1.442545  0
Cl  Cl122  1  0.21669109  0.48205818  0.75155315  1  0  -0.729047  0  1.141544  0  0  -0.697827  0  1.428377  0  0  -0.720903  0  1.408966  0  0  -0.303771  -0.679159  0  1.442506  0
Cl  Cl123  1  0.71669156  0.01794373  0.24844814  1  0  -0.72905  0  1.141543  0  0  -0.697842  0  1.428402  0  0  -0.720905  0  1.40897  0  0  -0.303764  -0.67917  0  1.442534  0
Cl  Cl124  1  0.24025394  0.41524864  0.25149768  1  0  -0.645891  0  0.855389  0  0  -0.606849  0  1.113529  0  0  -0.627812  0  1.095094  0  0  -0.368542  -0.59175  0  1.126448  0
Cl  Cl125  1  0.74025315  0.08475327  0.74850413  1  0  -0.645892  0  0.855377  0  0  -0.606865  0  1.11352  0  0  -0.627827  0  1.095087  0  0  -0.36855  -0.591766  0  1.126437  0
Cl  Cl126  1  0.75974861  0.58475097  0.74850360  1  0  -0.645886  0  0.855373  0  0  -0.60687  0  1.113545  0  0  -0.627829  0  1.095115  0  0  -0.368552  -0.591769  0  1.126463  0
Cl  Cl127  1  0.25974667  0.91525007  0.25149517  1  0  -0.645896  0  0.8554  0  0  -0.606859  0  1.113551  0  0  -0.627818  0  1.095117  0  0  -0.368544  -0.591764  0  1.126469  0
Cl  Cl128  1  0.71285735  0.31419429  0.39477670  1  0  -0.679673  0  0.792629  0  0  -0.658258  0  1.008778  0  0  -0.676955  0  0.994237  0  0  -0.395526  -0.643093  0  1.020136  0
Cl  Cl129  1  0.21285503  0.18580763  0.60522510  1  0  -0.679679  0  0.7926  0  0  -0.658275  0  1.008777  0  0  -0.676978  0  0.994231  0  0  -0.395547  -0.643113  0  1.02014  0
Cl  Cl130  1  0.28714339  0.68580626  0.60522422  1  0  -0.679668  0  0.792649  0  0  -0.658257  0  1.008796  0  0  -0.676965  0  0.994249  0  0  -0.395537  -0.643097  0  1.020149  0
Cl  Cl131  1  0.78714479  0.81419478  0.39477717  1  0  -0.679668  0  0.792625  0  0  -0.658271  0  1.008776  0  0  -0.676973  0  0.99423  0  0  -0.395535  -0.643109  0  1.020134  0
Cl  Cl132  1  0.01487844  0.37367216  0.09265239  1  0  -0.684477  0  0.786757  0  0  -0.649568  0  1.014239  0  0  -0.669133  0  0.995494  0  0  -0.386514  -0.635029  0  1.027145  0
Cl  Cl133  1  0.51488145  0.12632795  0.90734746  1  0  -0.684488  0  0.786748  0  0  -0.649588  0  1.014233  0  0  -0.669148  0  0.995487  0  0  -0.386511  -0.635048  0  1.027137  0
Cl  Cl134  1  0.98512138  0.62632466  0.90734737  1  0  -0.684488  0  0.786746  0  0  -0.649589  0  1.014236  0  0  -0.669148  0  0.995491  0  0  -0.386509  -0.635046  0  1.027136  0
Cl  Cl135  1  0.48511837  0.87367446  0.09265220  1  0  -0.684469  0  0.786737  0  0  -0.649574  0  1.014243  0  0  -0.669133  0  0.9955  0  0  -0.386507  -0.635034  0  1.027146  0
Cl  Cl136  1  0.03923085  0.69122319  0.25148450  1  0  -0.665195  0  1.002196  0  0  -0.632945  0  1.276984  0  0  -0.654598  0  1.256006  0  0  -0.322791  -0.616708  0  1.292693  0
Cl  Cl137  1  0.53922812  0.80877513  0.74851372  1  0  -0.665214  0  1.002215  0  0  -0.632971  0  1.277012  0  0  -0.654626  0  1.256036  0  0  -0.322797  -0.616738  0  1.292717  0
Cl  Cl138  1  0.96076988  0.30877271  0.74851196  1  0  -0.665237  0  1.002199  0  0  -0.632962  0  1.276968  0  0  -0.654611  0  1.255989  0  0  -0.322783  -0.616726  0  1.292677  0
Cl  Cl139  1  0.46076714  0.19122448  0.25148704  1  0  -0.665218  0  1.002234  0  0  -0.632981  0  1.277066  0  0  -0.654629  0  1.256095  0  0  -0.322777  -0.616745  0  1.292772  0
Cl  Cl140  1  0.92242916  0.24866214  0.25084868  1  0  -0.678063  0  1.025177  0  0  -0.645677  0  1.300508  0  0  -0.667697  0  1.28197  0  0  -0.329408  -0.628738  0  1.313736  0
Cl  Cl141  1  0.42243062  0.25133692  0.74915219  1  0  -0.678067  0  1.025161  0  0  -0.645682  0  1.300507  0  0  -0.667706  0  1.281967  0  0  -0.3294  -0.628738  0  1.313723  0
Cl  Cl142  1  0.07757248  0.75133934  0.74915239  1  0  -0.67807  0  1.025187  0  0  -0.645688  0  1.30051  0  0  -0.667714  0  1.281972  0  0  -0.329411  -0.628748  0  1.313723  0
Cl  Cl143  1  0.57757102  0.74866176  0.25084893  1  0  -0.678063  0  1.025163  0  0  -0.645684  0  1.300499  0  0  -0.667706  0  1.281957  0  0  -0.329416  -0.628744  0  1.313716  0
