# generated using pymatgen
data_Zn2H21C44(N4O7)2
_symmetry_space_group_name_H-M   'P 1'
_cell_length_a   16.45788124
_cell_length_b   17.65729132
_cell_length_c   30.29840469
_cell_angle_alpha   90.68433921
_cell_angle_beta   86.18766579
_cell_angle_gamma   92.11291564
_symmetry_Int_Tables_number   1
_chemical_formula_structural   Zn2H21C44(N4O7)2
_chemical_formula_sum   'Zn4 H42 C88 N16 O28'
_cell_volume   8778.91073760
_cell_formula_units_Z   2
loop_
 _symmetry_equiv_pos_site_id
 _symmetry_equiv_pos_as_xyz
  1  'x, y, z'
loop_
 _atom_site_type_symbol
 _atom_site_label
 _atom_site_symmetry_multiplicity
 _atom_site_fract_x
 _atom_site_fract_y
 _atom_site_fract_z
 _atom_site_occupancy
 _atom_site_pbe_bader_charge
 _atom_site_pbe_bader_spin_density
 _atom_site_pbe_cm5_charge
 _atom_site_pbe_ddec_charge
 _atom_site_pbe_ddec_spin_density
 _atom_site_pbe_ddec_sum_bond_order
 _atom_site_pbe_magmom
Zn  Zn0  1  0.58292990  0.50945635  0.49896420  1  1.2723  0  0.677102  0.826611  0  2.45304  0
Zn  Zn1  1  0.41481111  0.49381704  0.50315349  1  1.298523  0  0.676135  0.827251  0  2.450168  0
Zn  Zn2  1  0.90548897  0.49906105  0.02332074  1  1.300059  0  0.703698  0.869215  0  2.290135  0
Zn  Zn3  1  0.09633345  0.50207511  0.97724593  1  1.305071  0  0.702763  0.869131  0  2.281513  0
H  H4  1  0.29729487  0.58221254  0.46687135  1  0.17995  0  0.134425  0.118373  0  1.000322  0
H  H5  1  0.14731163  0.58788147  0.45939904  1  0.121199  0  0.129491  0.142497  0  0.961271  0
H  H6  1  0.11824916  0.38075213  0.53551692  1  0.125393  0  0.133166  0.155996  0  0.95681  0
H  H7  1  0.88217121  0.56510356  0.43555486  1  0.1343  0  0.133337  0.155632  0  0.960387  0
H  H8  1  0.69589847  0.43943263  0.54825528  1  0.195074  0  0.13545  0.121198  0  0.994736  0
H  H9  1  0.84550442  0.41760884  0.54929098  1  0.121485  0  0.12957  0.141538  0  0.960341  0
H  H10  1  0.61226942  0.73537394  0.50498821  1  0.130885  0  0.11518  0.128205  0  0.996387  0
H  H11  1  0.62066214  0.87768625  0.50101093  1  0.09823  0  0.113632  0.117342  0  0.977818  0
H  H12  1  0.35886887  0.87826463  0.49590966  1  0.099309  0  0.121786  0.137548  0  0.968652  0
H  H13  1  0.63880075  0.12381444  0.50070623  1  0.116384  0  0.121324  0.136491  0  0.968863  0
H  H14  1  0.38259012  0.26360224  0.49535136  1  0.120164  0  0.109342  0.119807  0  1.015657  0
H  H15  1  0.37764163  0.12182151  0.49186779  1  0.08153  0  0.114586  0.118549  0  0.975424  0
H  H16  1  0.64034421  0.50453899  0.35935060  1  0.105303  0  0.100854  0.109481  0  1.021048  0
H  H17  1  0.64878789  0.49764787  0.27657532  1  0.101244  0  0.104928  0.104986  0  1.008497  0
H  H18  1  0.74072105  0.46018259  0.02169863  1  0.17772  0  0.122459  0.097891  0  1.027186  0
H  H19  1  0.61010642  0.45556465  0.06992045  1  0.13669  0  0.116766  0.12354  0  1.002963  0
H  H20  1  0.17137887  0.49967891  0.15731706  1  0.099683  0  0.106066  0.111307  0  0.995479  0
H  H21  1  0.30003820  0.49367592  0.19729039  1  0.059464  0  0.102856  0.101493  0  1.014459  0
H  H22  1  0.31152124  0.48525724  0.03327226  1  0.024851  0  0.099111  0.098732  0  1.033855  0
H  H23  1  0.43905570  0.48082192  0.07244959  1  0.092078  0  0.100724  0.098283  0  1.020544  0
H  H24  1  0.87746847  0.51086988  0.12865475  1  0.100547  0  0.133989  0.108512  0  0.952299  0
H  H25  1  0.75236416  0.50677965  0.18137674  1  0.131338  0  0.117265  0.124958  0  0.992466  0
H  H26  1  0.37944041  0.48198007  0.36149819  1  0.09292  0  0.10295  0.106648  0  0.999432  0
H  H27  1  0.38758218  0.47876482  0.27839496  1  0.103497  0  0.104965  0.104567  0  1.017722  0
H  H28  1  0.36420477  0.50947275  0.64113778  1  0.117446  0  0.106899  0.116498  0  0.996993  0
H  H29  1  0.35503350  0.50575718  0.72431902  1  0.094224  0  0.103975  0.103  0  1.013228  0
H  H30  1  0.26307275  0.51515693  0.97948866  1  0.146715  0  0.119061  0.095726  0  1.063265  0
H  H31  1  0.39400315  0.51148078  0.93138192  1  0.095002  0  0.115648  0.121686  0  1.009107  0
H  H32  1  0.82991975  0.47652677  0.84529808  1  0.111724  0  0.105905  0.111306  0  0.994836  0
H  H33  1  0.70148746  0.47686360  0.80466064  1  0.059452  0  0.103179  0.102055  0  1.013163  0
H  H34  1  0.69134399  0.52065113  0.96711006  1  0.090931  0  0.100532  0.102238  0  1.02306  0
H  H35  1  0.56318943  0.51741889  0.92744423  1  0.110145  0  0.100594  0.097952  0  1.021337  0
H  H36  1  0.12390587  0.50049551  0.87088312  1  0.118641  0  0.13444  0.108733  0  0.952214  0
H  H37  1  0.24900778  0.49746855  0.81832634  1  0.120827  0  0.117294  0.124778  0  0.993172  0
H  H38  1  0.62250481  0.48341693  0.63929218  1  0.07497  0  0.103281  0.106551  0  1.001808  0
H  H39  1  0.61393803  0.48098879  0.72242796  1  0.083322  0  0.104414  0.103017  0  1.019551  0
H  H40  1  0.92877823  0.73166640  0.06027306  1  0.131305  0  0.116295  0.124139  0  0.979418  0
H  H41  1  0.92687415  0.87232173  0.06019140  1  0.090893  0  0.113018  0.117372  0  0.98107  0
H  H42  1  0.06927197  0.87350566  0.93512347  1  0.090334  0  0.121676  0.137308  0  0.967353  0
H  H43  1  0.91235098  0.12473009  0.05568936  1  0.106785  0  0.121687  0.137697  0  0.967524  0
H  H44  1  0.08088675  0.26908497  0.94122964  1  0.121546  0  0.116615  0.124457  0  0.978981  0
H  H45  1  0.07998791  0.12827263  0.93971701  1  0.112073  0  0.112738  0.116799  0  0.980954  0
C  C46  1  0.48358746  0.64423088  0.50313146  1  1.575518  0  0.218976  0.600853  0  4.181883  0
C  C47  1  0.50413896  0.49798327  0.41476976  1  1.519559  0  0.215815  0.597191  0  4.155795  0
C  C48  1  0.51022886  0.35682005  0.50052854  1  1.632533  0  0.217514  0.600951  0  4.184879  0
C  C49  1  0.49903241  0.50007612  0.58626524  1  1.560061  0  0.216613  0.596323  0  4.152668  0
C  C50  1  0.99966397  0.63673554  0.00072479  1  1.606738  0  0.232921  0.61462  0  4.138282  0
C  C51  1  0.15498599  0.49913593  0.06884482  1  1.587988  0  0.199682  0.580907  0  4.220941  0
C  C52  1  0.00078462  0.36299432  0.99793329  1  1.584868  0  0.23379  0.617459  0  4.14185  0
C  C53  1  0.84580153  0.49556100  0.93340084  1  1.599827  0  0.198554  0.57798  0  4.22313  0
C  C54  1  0.25496398  0.53944740  0.48172938  1  0.477138  0  0.073738  0.131514  0  3.865346  0
C  C55  1  0.17181802  0.54186450  0.47739814  1  0.049597  0  -0.05493  -0.152736  0  3.862401  0
C  C56  1  0.12025315  0.48468600  0.49705992  1  0.090142  0  0.03192  0.195668  0  4.097592  0
C  C57  1  0.15512904  0.42689947  0.52022470  1  0.089407  0  -0.058083  -0.210308  0  3.868069  0
C  C58  1  0.23852474  0.43136054  0.52331200  1  0.750842  0  0.224514  0.23345  0  3.950337  0
C  C59  1  0.03518096  0.48504251  0.49446771  1  -0.17631  0  -0.016082  -0.075249  0  4.06295  0
C  C60  1  0.96144608  0.48566049  0.49362789  1  -0.142839  0  -0.015352  -0.073621  0  4.062024  0
C  C61  1  0.87641636  0.49164031  0.49332248  1  0.160042  0  0.032943  0.194831  0  4.095809  0
C  C62  1  0.84384088  0.53706893  0.46151000  1  -0.004994  0  -0.056451  -0.204766  0  3.86503  0
C  C63  1  0.76067434  0.54595940  0.46492817  1  0.799036  0  0.223853  0.232093  0  3.946548  0
C  C64  1  0.74008448  0.46696253  0.52472292  1  0.441744  0  0.073616  0.129888  0  3.861061  0
C  C65  1  0.82282937  0.45485240  0.52491659  1  0.052183  0  -0.053043  -0.147647  0  3.862542  0
C  C66  1  0.48287454  0.72827317  0.50336800  1  0.031275  0  -0.003597  -0.068449  0  3.934591  0
C  C67  1  0.55795055  0.76832154  0.50349941  1  -0.052179  0  -0.069024  -0.060402  0  3.95837  0
C  C68  1  0.56239138  0.84638990  0.50103048  1  0.018304  0  -0.072602  -0.119511  0  3.938026  0
C  C69  1  0.49054707  0.88654676  0.49818419  1  0.079534  0  0.010321  0.161379  0  4.132581  0
C  C70  1  0.41450811  0.84736046  0.49796587  1  0.114834  0  -0.072289  -0.179857  0  3.907217  0
C  C71  1  0.41209831  0.76915246  0.50081408  1  0.17885  0  0.08949  0.073274  0  3.946199  0
C  C72  1  0.49566421  0.96588448  0.49610605  1  -0.27661  0  -0.03658  -0.100623  0  4.134713  0
C  C73  1  0.50385337  0.03458127  0.49534409  1  -0.063244  0  -0.036046  -0.097955  0  4.134633  0
C  C74  1  0.50767158  0.11406426  0.49601428  1  0.089559  0  0.008396  0.157172  0  4.134853  0
C  C75  1  0.58259414  0.15410794  0.49935867  1  0.020595  0  -0.070508  -0.175964  0  3.903031  0
C  C76  1  0.58300851  0.23242978  0.50178069  1  0.169619  0  0.088887  0.072275  0  3.943122  0
C  C77  1  0.51158755  0.27270374  0.50026023  1  0.015667  0  -0.002672  -0.067998  0  3.93725  0
C  C78  1  0.43779461  0.23181455  0.49643710  1  -0.065587  0  -0.07083  -0.061663  0  3.964704  0
C  C79  1  0.43512236  0.15361188  0.49443797  1  0.069915  0  -0.070668  -0.114678  0  3.930596  0
C  C80  1  0.50930819  0.49382926  0.36525146  1  -0.035959  0  -0.010519  -0.019043  0  3.945998  0
C  C81  1  0.23295754  0.49379357  0.09277182  1  -0.008422  0  -0.006968  -0.006597  0  3.912788  0
C  C82  1  0.58531057  0.49821232  0.34137815  1  -0.064383  0  -0.081211  -0.086698  0  3.957009  0
C  C83  1  0.59002628  0.49481773  0.29540296  1  0.030579  0  -0.079849  -0.09758  0  3.959074  0
C  C84  1  0.74004221  0.46990843  0.05726727  1  0.369117  0  0.053262  0.102275  0  3.915588  0
C  C85  1  0.66840405  0.46761480  0.08392916  1  0.058592  0  -0.069894  -0.142324  0  3.934554  0
C  C86  1  0.23050373  0.49546668  0.13915678  1  -0.022923  0  -0.080621  -0.092774  0  3.96448  0
C  C87  1  0.30186108  0.49210779  0.16128413  1  -0.068737  0  -0.081995  -0.100887  0  3.963619  0
C  C88  1  0.30885900  0.48772540  0.06920910  1  0.034578  0  -0.087619  -0.098316  0  3.987841  0
C  C89  1  0.38031455  0.48473333  0.09098146  1  -0.046629  0  -0.086027  -0.104039  0  3.986126  0
C  C90  1  0.81691666  0.49890940  0.11704887  1  0.476207  0  0.061896  0.099312  0  3.919471  0
C  C91  1  0.74752705  0.49663537  0.14611538  1  0.021344  0  -0.067752  -0.146264  0  3.917842  0
C  C92  1  0.43797020  0.48590328  0.34250141  1  0.024302  0  -0.082733  -0.090771  0  3.979946  0
C  C93  1  0.44240941  0.48381216  0.29658755  1  -0.086554  0  -0.082141  -0.102792  0  3.971506  0
C  C94  1  0.51850329  0.48832685  0.27255387  1  -4e-05  0  -0.004924  0.005354  0  3.970525  0
C  C95  1  0.52184797  0.48691652  0.22372930  1  1.054589  0  0.260701  0.389081  0  3.996598  0
C  C96  1  0.67104637  0.48241096  0.12927968  1  -0.080947  0  0.022299  0.063492  0  3.929821  0
C  C97  1  0.59299154  0.48378948  0.15712110  1  1.064668  0  0.259271  0.377427  0  4.019558  0
C  C98  1  0.37785629  0.48710545  0.13742327  1  -0.022637  0  -0.009639  -0.001039  0  3.978802  0
C  C99  1  0.45435827  0.48523132  0.16018353  1  1.091475  0  0.261474  0.38931  0  4.008812  0
C  C100  1  0.49388433  0.49722515  0.63567710  1  -0.081234  0  -0.009614  -0.015396  0  3.941969  0
C  C101  1  0.76853760  0.49749381  0.90874659  1  -0.034953  0  -0.006641  -0.004264  0  3.912836  0
C  C102  1  0.41826735  0.50319856  0.65945102  1  0.040357  0  -0.078399  -0.083801  0  3.951866  0
C  C103  1  0.41328477  0.50099195  0.70540180  1  -0.015365  0  -0.080371  -0.100269  0  3.964627  0
C  C104  1  0.26363020  0.51117314  0.94360752  1  0.431106  0  0.048895  0.091977  0  3.921018  0
C  C105  1  0.33512293  0.50920512  0.91703150  1  0.025705  0  -0.071821  -0.142118  0  3.943316  0
C  C106  1  0.77101653  0.48564172  0.86281378  1  -0.057293  0  -0.080621  -0.093524  0  3.964608  0
C  C107  1  0.69980735  0.48558650  0.84036593  1  0.064876  0  -0.082031  -0.100998  0  3.964732  0
C  C108  1  0.69308773  0.50970816  0.93163803  1  -0.091692  0  -0.088859  -0.101533  0  3.987879  0
C  C109  1  0.62172962  0.50853272  0.90956680  1  -0.063716  0  -0.085872  -0.102897  0  3.986439  0
C  C110  1  0.18498900  0.50272477  0.88292190  1  0.463366  0  0.062204  0.099703  0  3.916541  0
C  C111  1  0.25444258  0.50103722  0.85392204  1  0.005106  0  -0.067439  -0.145164  0  3.917575  0
C  C112  1  0.56442175  0.48847178  0.65832322  1  -0.093595  0  -0.082906  -0.091819  0  3.982418  0
C  C113  1  0.55973228  0.48684471  0.70420163  1  0.059043  0  -0.081721  -0.101126  0  3.975438  0
C  C114  1  0.48416035  0.49334230  0.72817298  1  -0.005681  0  -0.005768  0.004424  0  3.973748  0
C  C115  1  0.48070923  0.49389088  0.77693871  1  1.015275  0  0.260021  0.388305  0  3.998394  0
C  C116  1  0.33151955  0.50356477  0.87114065  1  -0.048578  0  0.021673  0.062186  0  3.935522  0
C  C117  1  0.40942480  0.50019851  0.84335983  1  1.154601  0  0.258473  0.374773  0  4.027186  0
C  C118  1  0.62412731  0.49644739  0.86356669  1  -0.020742  0  -0.010221  -0.00295  0  3.980431  0
C  C119  1  0.54786145  0.49611114  0.84055708  1  1.039149  0  0.262072  0.39179  0  4.011283  0
C  C120  1  0.99887293  0.72200629  0.99852080  1  0.046646  0  -0.000709  -0.068277  0  3.89086  0
C  C121  1  0.95912212  0.76347845  0.03292312  1  0.007801  0  -0.069289  -0.066347  0  3.956491  0
C  C122  1  0.95823259  0.84223680  0.03286648  1  -0.063352  0  -0.07482  -0.124881  0  3.923113  0
C  C123  1  0.99789725  0.88432008  0.99773465  1  0.070872  0  0.013089  0.162574  0  4.081732  0
C  C124  1  0.03812002  0.84348153  0.96291639  1  0.020373  0  -0.070963  -0.176479  0  3.88463  0
C  C125  1  0.03761452  0.76469820  0.96379301  1  0.205988  0  0.090251  0.07527  0  3.918925  0
C  C126  1  0.99736939  0.96503848  0.99741695  1  -0.032273  0  -0.034326  -0.096787  0  4.059645  0
C  C127  1  0.99656712  0.03441929  0.99761160  1  -0.229811  0  -0.03273  -0.093829  0  4.059122  0
C  C128  1  0.99651337  0.11516013  0.99766744  1  0.082945  0  0.013682  0.162525  0  4.081346  0
C  C129  1  0.94963842  0.15535604  0.03023644  1  0.083502  0  -0.071937  -0.178861  0  3.885491  0
C  C130  1  0.95120307  0.23418018  0.03008399  1  0.105665  0  0.089819  0.075505  0  3.917744  0
C  C131  1  0.99824769  0.27753527  0.99851657  1  0.060852  0  -0.000826  -0.070297  0  3.89061  0
C  C132  1  0.04419846  0.23668668  0.96617417  1  0.021982  0  -0.068751  -0.064039  0  3.955747  0
C  C133  1  0.04361678  0.15788241  0.96536567  1  -0.072488  0  -0.075515  -0.12574  0  3.923968  0
N  N134  1  0.28834224  0.48516664  0.50504343  1  -1.230018  0  -0.299955  -0.229146  0  3.457212  0
N  N135  1  0.70928522  0.51365046  0.49558047  1  -1.204515  0  -0.302151  -0.229635  0  3.466351  0
N  N136  1  0.81329343  0.48704750  0.07315207  1  -1.226763  0  -0.316024  -0.218463  0  3.510164  0
N  N137  1  0.59567968  0.48656569  0.20124242  1  -1.18298  0  -0.309214  -0.414661  0  3.184288  0
N  N138  1  0.52503607  0.48277510  0.13501923  1  -1.157037  0  -0.30737  -0.410063  0  3.218387  0
N  N139  1  0.45037520  0.48655263  0.20462112  1  -1.196522  0  -0.303359  -0.402697  0  3.20733  0
N  N140  1  0.18927618  0.50707525  0.92720063  1  -1.213293  0  -0.315425  -0.215914  0  3.504546  0
N  N141  1  0.40691303  0.49726414  0.79926736  1  -1.221704  0  -0.308977  -0.412896  0  3.188496  0
N  N142  1  0.47723467  0.50046700  0.86553423  1  -1.192903  0  -0.308049  -0.410084  0  3.226092  0
N  N143  1  0.55197362  0.49216527  0.79615984  1  -1.16818  0  -0.302949  -0.403055  0  3.205321  0
N  N144  1  0.27386331  0.37240590  0.55027304  1  0.436328  0  0.066205  0.479884  0  4.230542  0
N  N145  1  0.72750477  0.59845161  0.43304209  1  0.44467  0  0.066654  0.482859  0  4.230176  0
N  N146  1  0.33037254  0.73088211  0.50224866  1  0.399395  0  0.060597  0.524827  0  4.228534  0
N  N147  1  0.66264404  0.27116479  0.50843699  1  0.391856  0  0.061411  0.528  0  4.224451  0
N  N148  1  0.07859572  0.72762999  0.92453193  1  0.455316  0  0.059525  0.521249  0  4.23737  0
N  N149  1  0.90108145  0.27034122  0.06653123  1  0.435834  0  0.060217  0.523963  0  4.236858  0
O  O150  1  0.54926911  0.61588686  0.51351761  1  -1.157869  0  -0.308435  -0.531754  0  2.390979  0
O  O151  1  0.42000905  0.60807696  0.49166709  1  -1.165621  0  -0.310771  -0.540387  0  2.367843  0
O  O152  1  0.43610549  0.47973549  0.43510825  1  -1.165243  0  -0.320774  -0.551978  0  2.297456  0
O  O153  1  0.56876072  0.51986868  0.43306568  1  -1.168788  0  -0.322014  -0.554288  0  2.352816  0
O  O154  1  0.44123015  0.38449395  0.51098177  1  -1.162448  0  -0.31468  -0.542068  0  2.382578  0
O  O155  1  0.57628482  0.39313150  0.48963488  1  -1.151415  0  -0.310764  -0.535893  0  2.33703  0
O  O156  1  0.56776082  0.48738493  0.56592834  1  -1.170713  0  -0.31935  -0.555174  0  2.323699  0
O  O157  1  0.43418865  0.51509198  0.56796391  1  -1.159052  0  -0.315843  -0.545843  0  2.360414  0
O  O158  1  0.95079776  0.60446984  0.02959189  1  -1.1639  0  -0.304468  -0.532072  0  2.337397  0
O  O159  1  0.04955356  0.60345426  0.97373349  1  -1.165255  0  -0.302229  -0.535107  0  2.390837  0
O  O160  1  0.16830952  0.49993553  0.02580750  1  -1.170836  0  -0.348764  -0.600784  0  2.403992  0
O  O161  1  0.08772514  0.50258451  0.08957090  1  -1.162372  0  -0.341002  -0.548883  0  2.047746  0
O  O162  1  0.05487173  0.39532781  0.97194408  1  -1.160897  0  -0.303177  -0.531201  0  2.347888  0
O  O163  1  0.94865157  0.39607098  0.02359852  1  -1.154582  0  -0.302663  -0.538331  0  2.407624  0
O  O164  1  0.83291575  0.50961821  0.97572469  1  -1.192356  0  -0.350211  -0.601197  0  2.388865  0
O  O165  1  0.91221491  0.48098791  0.91402114  1  -1.16316  0  -0.340755  -0.549626  0  2.051665  0
O  O166  1  0.30781460  0.39416320  0.58326727  1  -0.397318  0  -0.085692  -0.261578  0  1.934818  0
O  O167  1  0.26202085  0.30609599  0.53778285  1  -0.437385  0  -0.119078  -0.315532  0  1.890505  0
O  O168  1  0.68486466  0.64927770  0.44866150  1  -0.40587  0  -0.095126  -0.27956  0  1.956918  0
O  O169  1  0.74937405  0.58809145  0.39367114  1  -0.44417  0  -0.11463  -0.308673  0  1.888824  0
O  O170  1  0.30216199  0.70666210  0.53834771  1  -0.425626  0  -0.127514  -0.318473  0  1.867888  0
O  O171  1  0.29469715  0.72904836  0.46743975  1  -0.456848  0  -0.140961  -0.343923  0  1.863513  0
O  O172  1  0.67199126  0.29886793  0.54558368  1  -0.450613  0  -0.13126  -0.334282  0  1.89242  0
O  O173  1  0.71532826  0.26939936  0.47745467  1  -0.418878  0  -0.136032  -0.331038  0  1.85314  0
O  O174  1  0.03414788  0.70124227  0.89647984  1  -0.429808  0  -0.125485  -0.31232  0  1.859987  0
O  O175  1  0.15391866  0.72930665  0.92216233  1  -0.464757  0  -0.137191  -0.329777  0  1.853894  0
O  O176  1  0.82742935  0.27435233  0.06152839  1  -0.445776  0  -0.135525  -0.330019  0  1.862693  0
O  O177  1  0.93633189  0.29010664  0.09968903  1  -0.425722  0  -0.125745  -0.31266  0  1.857915  0
