# generated using pymatgen
data_SmH3CSO7
_symmetry_space_group_name_H-M   'P 1'
_cell_length_a   6.93088880
_cell_length_b   6.93085807
_cell_length_c   11.61583556
_cell_angle_alpha   89.99995515
_cell_angle_beta   89.99998828
_cell_angle_gamma   90.00134127
_symmetry_Int_Tables_number   1
_chemical_formula_structural   SmH3CSO7
_chemical_formula_sum   'Sm4 H12 C4 S4 O28'
_cell_volume   557.98996933
_cell_formula_units_Z   4
loop_
 _symmetry_equiv_pos_site_id
 _symmetry_equiv_pos_as_xyz
  1  'x, y, z'
loop_
 _atom_site_type_symbol
 _atom_site_label
 _atom_site_symmetry_multiplicity
 _atom_site_fract_x
 _atom_site_fract_y
 _atom_site_fract_z
 _atom_site_occupancy
 _atom_site_hle17_bader_spin_density
 _atom_site_hle17_ddec_charge
 _atom_site_hle17_ddec_spin_density
 _atom_site_hle17_ddec_sum_bond_order
 _atom_site_hle17_magmom
 _atom_site_hse06_10hf_bader_spin_density
 _atom_site_hse06_10hf_ddec_charge
 _atom_site_hse06_10hf_ddec_spin_density
 _atom_site_hse06_10hf_ddec_sum_bond_order
 _atom_site_hse06_10hf_magmom
 _atom_site_hse06_bader_spin_density
 _atom_site_hse06_ddec_charge
 _atom_site_hse06_ddec_spin_density
 _atom_site_hse06_ddec_sum_bond_order
 _atom_site_hse06_magmom
 _atom_site_pbe_bader_spin_density
 _atom_site_pbe_cm5_charge
 _atom_site_pbe_ddec_charge
 _atom_site_pbe_ddec_spin_density
 _atom_site_pbe_ddec_sum_bond_order
 _atom_site_pbe_magmom
Sm  Sm0  1  0.62356091  0.88114773  0.15447078  1  0  2.385822  0  1.509337  0  0  2.294854  0  1.841041  0  0  2.336172  0  1.801171  0  0  1.517388  2.264604  0  1.869133  0
Sm  Sm1  1  0.37643929  0.11885217  0.65447030  1  0  2.385796  0  1.509383  0  0  2.294821  0  1.841094  0  0  2.336141  0  1.801225  0  0  1.517368  2.264571  0  1.869187  0
Sm  Sm2  1  0.11874958  0.62368148  0.40449507  1  0  2.385914  0  1.510034  0  0  2.294971  0  1.841818  0  0  2.336272  0  1.801934  0  0  1.517537  2.264723  0  1.869913  0
Sm  Sm3  1  0.88124909  0.37631954  0.90449527  1  0  2.38592  0  1.510029  0  0  2.294985  0  1.841816  0  0  2.336285  0  1.801931  0  0  1.517542  2.264739  0  1.869912  0
H  H4  1  0.39631071  0.82042336  0.93228743  1  0  0.456366  0  0.813811  0  0  0.430357  0  0.875491  0  0  0.439438  0  0.862133  0  0  0.319821  0.423839  0  0.885103  0
H  H5  1  0.60368939  0.17957762  0.43228824  1  0  0.456364  0  0.813795  0  0  0.430352  0  0.875493  0  0  0.439432  0  0.862138  0  0  0.319822  0.423836  0  0.885104  0
H  H6  1  0.17948520  0.39644063  0.18231825  1  0  0.456536  0  0.813196  0  0  0.430503  0  0.875219  0  0  0.439588  0  0.861846  0  0  0.319928  0.423986  0  0.884831  0
H  H7  1  0.82051643  0.60355924  0.68231835  1  0  0.456527  0  0.813211  0  0  0.430493  0  0.875233  0  0  0.439578  0  0.861861  0  0  0.319928  0.423976  0  0.884845  0
H  H8  1  0.45239628  0.60951071  0.97420956  1  0  0.450541  0  0.842828  0  0  0.421864  0  0.901782  0  0  0.431968  0  0.887009  0  0  0.310026  0.414725  0  0.912217  0
H  H9  1  0.54760381  0.39049021  0.47420941  1  0  0.450555  0  0.842826  0  0  0.421876  0  0.901783  0  0  0.43198  0  0.887008  0  0  0.310016  0.414737  0  0.912217  0
H  H10  1  0.39042849  0.45260495  0.22420587  1  0  0.450605  0  0.842796  0  0  0.42194  0  0.901712  0  0  0.432055  0  0.886926  0  0  0.310094  0.414804  0  0.91214  0
H  H11  1  0.60957024  0.54739487  0.72420516  1  0  0.450598  0  0.84281  0  0  0.421934  0  0.901726  0  0  0.432049  0  0.886938  0  0  0.310091  0.414798  0  0.912154  0
H  H12  1  0.12967872  0.97266889  0.11349052  1  0  0.043295  0  0.926622  0  0  0.054151  0  0.987302  0  0  0.054662  0  0.983421  0  0  0.135264  0.053425  0  0.990368  0
H  H13  1  0.87032149  0.02733107  0.61349089  1  0  0.043305  0  0.926619  0  0  0.054162  0  0.987298  0  0  0.054672  0  0.983418  0  0  0.135266  0.053435  0  0.990364  0
H  H14  1  0.02736591  0.12988588  0.36349513  1  0  0.043662  0  0.926282  0  0  0.054495  0  0.986953  0  0  0.055007  0  0.983072  0  0  0.135257  0.053809  0  0.989965  0
H  H15  1  0.97263421  0.87011520  0.86349509  1  0  0.043662  0  0.926256  0  0  0.05449  0  0.98693  0  0  0.055006  0  0.983048  0  0  0.135236  0.0538  0  0.989944  0
C  C16  1  0.12644718  0.88188783  0.19123872  1  0  0.627325  0  3.841799  0  0  0.559872  0  4.154505  0  0  0.594463  0  4.140878  0  0  0.166782  0.536456  0  4.163343  0
C  C17  1  0.87355301  0.11811203  0.69123904  1  0  0.627282  0  3.841712  0  0  0.559824  0  4.154425  0  0  0.594414  0  4.1408  0  0  0.166747  0.53641  0  4.163266  0
C  C18  1  0.11815364  0.12667661  0.44123985  1  0  0.626451  0  3.84252  0  0  0.559077  0  4.155095  0  0  0.593669  0  4.14148  0  0  0.166174  0.535641  0  4.16392  0
C  C19  1  0.88184790  0.87332292  0.94124068  1  0  0.626479  0  3.842579  0  0  0.559115  0  4.155134  0  0  0.593702  0  4.141525  0  0  0.166195  0.535683  0  4.163958  0
S  S20  1  0.77241624  0.38588031  0.21263028  1  0  1.713447  0  5.753033  0  0  1.588372  0  6.298825  0  0  1.645574  0  6.257008  0  0  0.624617  1.548561  0  6.327034  0
S  S21  1  0.22758394  0.61411807  0.71263045  1  0  1.713475  0  5.752955  0  0  1.588397  0  6.29874  0  0  1.645603  0  6.25692  0  0  0.624651  1.548585  0  6.326955  0
S  S22  1  0.61405431  0.77249132  0.46256918  1  0  1.714468  0  5.752095  0  0  1.58921  0  6.298065  0  0  1.64638  0  6.256264  0  0  0.625106  1.549416  0  6.326271  0
S  S23  1  0.38594578  0.22750818  0.96256951  1  0  1.714585  0  5.751939  0  0  1.589328  0  6.297912  0  0  1.646495  0  6.256107  0  0  0.625133  1.549534  0  6.326118  0
O  O24  1  0.90091921  0.38154620  0.11087780  1  0  -0.822203  0  2.077856  0  0  -0.774389  0  2.35925  0  0  -0.79481  0  2.338153  0  0  -0.411291  -0.759861  0  2.373404  0
O  O25  1  0.09908245  0.61845376  0.61087799  1  0  -0.822213  0  2.077869  0  0  -0.774367  0  2.359218  0  0  -0.794788  0  2.338118  0  0  -0.411279  -0.75984  0  2.373374  0
O  O26  1  0.61829050  0.90106570  0.36085541  1  0  -0.821968  0  2.077561  0  0  -0.773802  0  2.358543  0  0  -0.794216  0  2.337468  0  0  -0.41111  -0.759278  0  2.372687  0
O  O27  1  0.38170963  0.09893393  0.86085580  1  0  -0.822051  0  2.077539  0  0  -0.773885  0  2.358526  0  0  -0.794299  0  2.337451  0  0  -0.411153  -0.759359  0  2.372671  0
O  O28  1  0.62034662  0.53831854  0.19673127  1  0  -0.835032  0  2.012828  0  0  -0.780197  0  2.281152  0  0  -0.800947  0  2.26008  0  0  -0.406697  -0.765494  0  2.295417  0
O  O29  1  0.37965212  0.46167986  0.69673408  1  0  -0.835042  0  2.012835  0  0  -0.780197  0  2.281151  0  0  -0.800954  0  2.260084  0  0  -0.406709  -0.765492  0  2.295414  0
O  O30  1  0.46166659  0.62040592  0.44660567  1  0  -0.835342  0  2.012904  0  0  -0.780488  0  2.281243  0  0  -0.80116  0  2.260113  0  0  -0.406772  -0.765832  0  2.295588  0
O  O31  1  0.53833351  0.37959360  0.94660591  1  0  -0.835324  0  2.012897  0  0  -0.78048  0  2.281237  0  0  -0.801145  0  2.260102  0  0  -0.406724  -0.765831  0  2.295602  0
O  O32  1  0.67938267  0.19760094  0.23077797  1  0  -0.80026  0  2.05733  0  0  -0.752433  0  2.335843  0  0  -0.773447  0  2.31539  0  0  -0.418144  -0.737459  0  2.349621  0
O  O33  1  0.32061894  0.80239887  0.73077804  1  0  -0.800266  0  2.057324  0  0  -0.752442  0  2.335855  0  0  -0.773458  0  2.315403  0  0  -0.418162  -0.737468  0  2.349635  0
O  O34  1  0.80238981  0.67954398  0.48063332  1  0  -0.801428  0  2.057232  0  0  -0.753422  0  2.335792  0  0  -0.774435  0  2.315316  0  0  -0.419067  -0.7384  0  2.349474  0
O  O35  1  0.19760883  0.32045550  0.98063277  1  0  -0.801456  0  2.057179  0  0  -0.753441  0  2.335732  0  0  -0.774453  0  2.315254  0  0  -0.41907  -0.738418  0  2.349416  0
O  O36  1  0.88746546  0.42891378  0.31597281  1  0  -0.8288  0  2.122547  0  0  -0.779227  0  2.40444  0  0  -0.80222  0  2.386314  0  0  -0.440942  -0.762986  0  2.416567  0
O  O37  1  0.11253324  0.57108736  0.81597302  1  0  -0.828805  0  2.122518  0  0  -0.779258  0  2.404455  0  0  -0.802251  0  2.38633  0  0  -0.440961  -0.763016  0  2.416583  0
O  O38  1  0.57100921  0.88746352  0.56594010  1  0  -0.82886  0  2.122672  0  0  -0.779297  0  2.404554  0  0  -0.802287  0  2.386428  0  0  -0.440854  -0.763069  0  2.416695  0
O  O39  1  0.42898813  0.11253650  0.06594010  1  0  -0.828883  0  2.122614  0  0  -0.779303  0  2.404473  0  0  -0.802292  0  2.386346  0  0  -0.440862  -0.763078  0  2.416617  0
O  O40  1  0.96412412  0.82946975  0.23328817  1  0  -0.761933  0  2.09687  0  0  -0.723343  0  2.369325  0  0  -0.747863  0  2.357446  0  0  -0.385278  -0.706194  0  2.376923  0
O  O41  1  0.03587606  0.17053005  0.73328858  1  0  -0.76194  0  2.096883  0  0  -0.723343  0  2.369333  0  0  -0.747865  0  2.357458  0  0  -0.385285  -0.706193  0  2.376931  0
O  O42  1  0.17029529  0.96439020  0.48344669  1  0  -0.761678  0  2.097064  0  0  -0.723058  0  2.369356  0  0  -0.7476  0  2.357519  0  0  -0.38495  -0.705892  0  2.37693  0
O  O43  1  0.82970480  0.03561071  0.98344706  1  0  -0.761698  0  2.09711  0  0  -0.723081  0  2.369402  0  0  -0.747622  0  2.357567  0  0  -0.384948  -0.705913  0  2.376974  0
O  O44  1  0.28423591  0.83525617  0.23910527  1  0  -0.725748  0  2.116161  0  0  -0.678512  0  2.373858  0  0  -0.703773  0  2.364207  0  0  -0.374779  -0.660891  0  2.379898  0
O  O45  1  0.71576426  0.16474362  0.73910560  1  0  -0.725721  0  2.116083  0  0  -0.678477  0  2.373771  0  0  -0.703737  0  2.364121  0  0  -0.374736  -0.660856  0  2.379813  0
O  O46  1  0.16500806  0.28454214  0.48896518  1  0  -0.725334  0  2.116825  0  0  -0.678112  0  2.374514  0  0  -0.703377  0  2.364857  0  0  -0.374348  -0.660488  0  2.380561  0
O  O47  1  0.83499491  0.71545733  0.98896609  1  0  -0.725362  0  2.116878  0  0  -0.678127  0  2.374544  0  0  -0.703397  0  2.364901  0  0  -0.374344  -0.660501  0  2.380589  0
O  O48  1  0.42329351  0.74212374  0.00077633  1  0  -0.90285  0  1.842513  0  0  -0.861636  0  2.033812  0  0  -0.879496  0  2.004427  0  0  -0.636792  -0.849016  0  2.054382  0
O  O49  1  0.57670675  0.25787781  0.50077576  1  0  -0.902852  0  1.842512  0  0  -0.861628  0  2.033817  0  0  -0.87949  0  2.004431  0  0  -0.63677  -0.84901  0  2.054387  0
O  O50  1  0.25778571  0.42361129  0.25077306  1  0  -0.90298  0  1.842251  0  0  -0.861762  0  2.033811  0  0  -0.879625  0  2.004414  0  0  -0.636984  -0.849143  0  2.054369  0
O  O51  1  0.74221446  0.57638993  0.75077319  1  0  -0.902949  0  1.842245  0  0  -0.861733  0  2.033809  0  0  -0.879595  0  2.004408  0  0  -0.636978  -0.849115  0  2.054368  0
