# generated using pymatgen
data_ZnH22C14N2O5
_symmetry_space_group_name_H-M   'P 1'
_cell_length_a   6.08465235
_cell_length_b   15.45388976
_cell_length_c   17.78874136
_cell_angle_alpha   89.99998540
_cell_angle_beta   89.99980444
_cell_angle_gamma   90.00009583
_symmetry_Int_Tables_number   1
_chemical_formula_structural   ZnH22C14N2O5
_chemical_formula_sum   'Zn4 H88 C56 N8 O20'
_cell_volume   1672.70286285
_cell_formula_units_Z   4
loop_
 _symmetry_equiv_pos_site_id
 _symmetry_equiv_pos_as_xyz
  1  'x, y, z'
loop_
 _atom_site_type_symbol
 _atom_site_label
 _atom_site_symmetry_multiplicity
 _atom_site_fract_x
 _atom_site_fract_y
 _atom_site_fract_z
 _atom_site_occupancy
 _atom_site_pbe_bader_charge
 _atom_site_pbe_bader_spin_density
 _atom_site_pbe_cm5_charge
 _atom_site_pbe_ddec_charge
 _atom_site_pbe_ddec_spin_density
 _atom_site_pbe_ddec_sum_bond_order
 _atom_site_pbe_magmom
Zn  Zn0  1  0.26031311  0.05218886  0.19166939  1  1.251715  0  0.686789  0.790612  0  2.329053  0
Zn  Zn1  1  0.23969176  0.94780990  0.69167038  1  1.251609  0  0.686768  0.790621  0  2.329051  0
Zn  Zn2  1  0.76031146  0.44780973  0.80833045  1  1.251649  0  0.68679  0.790598  0  2.329074  0
Zn  Zn3  1  0.73969184  0.55218869  0.30833049  1  1.251608  0  0.686763  0.790569  0  2.329083  0
H  H4  1  0.12828692  0.90609942  0.01774475  1  0.069498  0  0.104514  0.068848  0  1.013171  0
H  H5  1  0.37171971  0.09389939  0.51774411  1  0.069481  0  0.104473  0.068822  0  1.01309  0
H  H6  1  0.62828527  0.59390039  0.98225456  1  0.069511  0  0.104496  0.068832  0  1.013195  0
H  H7  1  0.87170969  0.40609927  0.48225729  1  0.069472  0  0.104501  0.068799  0  1.013165  0
H  H8  1  0.28179028  0.85995444  0.17467426  1  0.015245  0  0.094901  0.058971  0  0.968937  0
H  H9  1  0.21821641  0.14004433  0.67467435  1  0.01527  0  0.094897  0.058983  0  0.968949  0
H  H10  1  0.78179370  0.64004548  0.82532487  1  0.015218  0  0.094912  0.058984  0  0.968983  0
H  H11  1  0.71820449  0.35995423  0.32532835  1  0.015286  0  0.094915  0.059003  0  0.968909  0
H  H12  1  0.87351178  0.82772261  0.17320615  1  0.017785  0  0.086407  0.117234  0  1.028971  0
H  H13  1  0.62649782  0.17227713  0.67320464  1  0.017738  0  0.086428  0.117218  0  1.028884  0
H  H14  1  0.37351243  0.67227671  0.82679457  1  0.017772  0  0.086381  0.117187  0  1.028968  0
H  H15  1  0.12648614  0.32772461  0.32679310  1  0.017766  0  0.086405  0.117218  0  1.028937  0
H  H16  1  0.03823620  0.73445003  0.18196386  1  0.056121  0  0.089166  0.126114  0  1.023606  0
H  H17  1  0.46176712  0.26554874  0.68196307  1  0.056152  0  0.089126  0.126072  0  1.023573  0
H  H18  1  0.53823860  0.76555102  0.81803612  1  0.05611  0  0.089146  0.126101  0  1.023576  0
H  H19  1  0.96175967  0.23445192  0.31803654  1  0.055963  0  0.089114  0.126058  0  1.023558  0
H  H20  1  0.91491128  0.76039460  0.09396387  1  0.037047  0  0.08606  0.117113  0  1.027798  0
H  H21  1  0.58509255  0.23960645  0.59396296  1  0.037012  0  0.086081  0.117149  0  1.027817  0
H  H22  1  0.41491306  0.73960539  0.90603679  1  0.036998  0  0.08607  0.117128  0  1.027832  0
H  H23  1  0.08508799  0.26039526  0.40603483  1  0.03707  0  0.086087  0.117145  0  1.027852  0
H  H24  1  0.50207617  0.82351257  0.05866144  1  0.042137  0  0.087085  0.084268  0  1.026099  0
H  H25  1  0.99792802  0.17648721  0.55866232  1  0.042162  0  0.087103  0.084291  0  1.026071  0
H  H26  1  0.00208061  0.67648716  0.94133858  1  0.042118  0  0.087077  0.084258  0  1.026033  0
H  H27  1  0.49792501  0.32351024  0.44134175  1  0.04186  0  0.08709  0.084265  0  1.0261  0
H  H28  1  0.27705761  0.76242561  0.02493406  1  0.015745  0  0.08597  0.07769  0  1.007351  0
H  H29  1  0.22294403  0.23757514  0.52493412  1  0.015745  0  0.085965  0.077694  0  1.007281  0
H  H30  1  0.77706157  0.73757430  0.97506564  1  0.015771  0  0.08598  0.077701  0  1.007304  0
H  H31  1  0.72294661  0.26242342  0.47506577  1  0.015701  0  0.085973  0.077682  0  1.007349  0
H  H32  1  0.57660749  0.67169709  0.08700181  1  0.010061  0  0.077815  0.097924  0  1.049906  0
H  H33  1  0.92339641  0.32830203  0.58700386  1  0.010098  0  0.077861  0.098029  0  1.049863  0
H  H34  1  0.07661286  0.82830269  0.91299756  1  0.01004  0  0.077793  0.097933  0  1.049941  0
H  H35  1  0.42339305  0.17169601  0.41299916  1  0.010038  0  0.077812  0.097933  0  1.049909  0
H  H36  1  0.31729744  0.65682954  0.12947489  1  0.032449  0  0.080578  0.105478  0  1.040964  0
H  H37  1  0.18270478  0.34316795  0.62947665  1  0.032455  0  0.080574  0.105497  0  1.040957  0
H  H38  1  0.81730292  0.84316975  0.87052476  1  0.032496  0  0.080575  0.105489  0  1.040938  0
H  H39  1  0.68269974  0.15682865  0.37052609  1  0.032453  0  0.080567  0.105456  0  1.04097  0
H  H40  1  0.51602687  0.72254962  0.17395628  1  0.058224  0  0.086556  0.123487  0  1.007287  0
H  H41  1  0.98397780  0.27744818  0.67395715  1  0.058189  0  0.086568  0.123522  0  1.007237  0
H  H42  1  0.01603126  0.77745076  0.82604316  1  0.058247  0  0.086564  0.123495  0  1.007225  0
H  H43  1  0.48397553  0.22254861  0.32604581  1  0.058277  0  0.086584  0.123515  0  1.007272  0
H  H44  1  0.45575817  0.09986367  0.04219271  1  0.074446  0  0.119656  0.113213  0  0.951999  0
H  H45  1  0.04423672  0.90013837  0.54219337  1  0.074561  0  0.119667  0.113251  0  0.952011  0
H  H46  1  0.95575315  0.40013698  0.95780803  1  0.074488  0  0.119649  0.113177  0  0.951996  0
H  H47  1  0.54423055  0.59986074  0.45780772  1  0.07455  0  0.119661  0.113248  0  0.95195  0
H  H48  1  0.16552629  0.10159712  0.04529540  1  0.071999  0  0.10966  0.094153  0  0.983709  0
H  H49  1  0.33446692  0.89840168  0.54529404  1  0.071673  0  0.109658  0.094162  0  0.983733  0
H  H50  1  0.66552294  0.39840334  0.95470568  1  0.072007  0  0.10964  0.094131  0  0.983712  0
H  H51  1  0.83446079  0.60159956  0.45470559  1  0.071708  0  0.109654  0.094154  0  0.983785  0
H  H52  1  0.00324303  0.10728872  0.92844116  1  0.093475  0  0.111867  0.121038  0  1.005047  0
H  H53  1  0.49675779  0.89271451  0.42844083  1  0.093485  0  0.111854  0.121026  0  1.00513  0
H  H54  1  0.50323712  0.39271293  0.07156010  1  0.093472  0  0.111864  0.121033  0  1.005049  0
H  H55  1  0.99675543  0.60728231  0.57155806  1  0.093525  0  0.111857  0.121046  0  1.005144  0
H  H56  1  0.98791286  0.06259740  0.79434174  1  0.12709  0  0.122919  0.09011  0  0.994038  0
H  H57  1  0.51208237  0.93740555  0.29434251  1  0.12732  0  0.12292  0.090165  0  0.994079  0
H  H58  1  0.48791767  0.43740198  0.20566009  1  0.12691  0  0.122927  0.090145  0  0.99406  0
H  H59  1  0.01208542  0.56259290  0.70565637  1  0.127303  0  0.122927  0.090212  0  0.994075  0
H  H60  1  0.56017118  0.91902177  0.81410607  1  0.130549  0  0.123423  0.092952  0  1.013922  0
H  H61  1  0.93982713  0.08097729  0.31410318  1  0.130529  0  0.123396  0.092841  0  1.013978  0
H  H62  1  0.06017630  0.58097800  0.18589444  1  0.130609  0  0.123412  0.092914  0  1.013938  0
H  H63  1  0.43982205  0.41902142  0.68589645  1  0.130593  0  0.123394  0.092881  0  1.013958  0
H  H64  1  0.59127011  0.95255118  0.95195560  1  0.164875  0  0.112809  0.135056  0  1.025095  0
H  H65  1  0.90872680  0.04744719  0.45195332  1  0.164921  0  0.112834  0.135082  0  1.025049  0
H  H66  1  0.09126662  0.54744990  0.04804432  1  0.164896  0  0.11282  0.135066  0  1.025094  0
H  H67  1  0.40871834  0.45255279  0.54804579  1  0.1649  0  0.112814  0.135061  0  1.025003  0
H  H68  1  0.92784415  0.30522505  0.15980107  1  0.092205  0  0.096185  0.161448  0  0.996124  0
H  H69  1  0.57214916  0.69477081  0.65980006  1  0.09243  0  0.096199  0.161435  0  0.996153  0
H  H70  1  0.42784969  0.19477364  0.84020027  1  0.092263  0  0.096199  0.161478  0  0.996087  0
H  H71  1  0.07215203  0.80522767  0.34019875  1  0.092254  0  0.096189  0.161444  0  0.996162  0
H  H72  1  0.14464612  0.35317390  0.10577015  1  0.022783  0  0.090228  0.138173  0  1.020585  0
H  H73  1  0.35534483  0.64682295  0.60577051  1  0.022787  0  0.090192  0.138115  0  1.020588  0
H  H74  1  0.64465052  0.14682461  0.89422983  1  0.022774  0  0.090208  0.138138  0  1.020604  0
H  H75  1  0.85534533  0.85317442  0.39422910  1  0.022834  0  0.090196  0.138147  0  1.020574  0
H  H76  1  0.13860422  0.36718201  0.20426447  1  0.038496  0  0.094862  0.145009  0  1.01902  0
H  H77  1  0.36138573  0.63281740  0.70426540  1  0.038466  0  0.094869  0.144971  0  1.019082  0
H  H78  1  0.63861120  0.13281779  0.79573551  1  0.03849  0  0.094866  0.145009  0  1.019017  0
H  H79  1  0.86138894  0.86718321  0.29573477  1  0.038432  0  0.094861  0.144975  0  1.019075  0
H  H80  1  0.47339104  0.96272281  0.08699790  1  0.498653  0  0.287434  0.254535  0  1.019835  0
H  H81  1  0.02661325  0.03727857  0.58699991  1  0.498668  0  0.287472  0.254577  0  1.019801  0
H  H82  1  0.97339149  0.53727722  0.91300102  1  0.498654  0  0.287437  0.254523  0  1.019882  0
H  H83  1  0.52660910  0.46272116  0.41300076  1  0.498648  0  0.287441  0.254543  0  1.019854  0
H  H84  1  0.71240636  0.06446229  0.18718146  1  0.659826  0  0.282022  0.383261  0  0.960983  0
H  H85  1  0.78760145  0.93553744  0.68718127  1  0.659807  0  0.281991  0.383237  0  0.961055  0
H  H86  1  0.21240829  0.43553885  0.81281787  1  0.659985  0  0.28203  0.383243  0  0.960985  0
H  H87  1  0.28760028  0.56446247  0.31281954  1  0.659804  0  0.281975  0.383181  0  0.961122  0
H  H88  1  0.56990045  0.15569753  0.19093784  1  0.653928  0  0.281643  0.375397  0  0.970014  0
H  H89  1  0.93010239  0.84430221  0.69093526  1  0.653952  0  0.281622  0.375381  0  0.97003  0
H  H90  1  0.06990202  0.34430287  0.80906334  1  0.653966  0  0.281635  0.375402  0  0.970009  0
H  H91  1  0.43010658  0.65569845  0.30906258  1  0.653957  0  0.281657  0.375406  0  0.969993  0
C  C92  1  0.92157269  0.96041997  0.10233262  1  1.591212  0  0.20513  0.572275  0  4.191456  0
C  C93  1  0.57843763  0.03958173  0.60233345  1  1.590778  0  0.205153  0.572325  0  4.191244  0
C  C94  1  0.42157533  0.53958197  0.89766523  1  1.591194  0  0.205142  0.572343  0  4.191712  0
C  C95  1  0.07843238  0.46041674  0.39766828  1  1.591096  0  0.205073  0.572308  0  4.191328  0
C  C96  1  0.14326368  0.92268295  0.07773943  1  0.274943  0  -0.005687  -0.051743  0  3.831152  0
C  C97  1  0.35674070  0.07731714  0.57773881  1  0.275104  0  -0.005664  -0.051658  0  3.830819  0
C  C98  1  0.64326421  0.57731817  0.92226043  1  0.275055  0  -0.005668  -0.051764  0  3.831175  0
C  C99  1  0.85673465  0.42268280  0.42226092  1  0.274975  0  -0.005691  -0.051668  0  3.831009  0
C  C100  1  0.19981704  0.83932401  0.12214502  1  0.026198  0  -0.082917  0.05118  0  3.820538  0
C  C101  1  0.30018361  0.16067542  0.62214388  1  0.02626  0  -0.082888  0.051136  0  3.820649  0
C  C102  1  0.69981838  0.66067649  0.87785421  1  0.026164  0  -0.082937  0.051126  0  3.820677  0
C  C103  1  0.80018257  0.33932319  0.37785648  1  0.026114  0  -0.082942  0.051111  0  3.820493  0
C  C104  1  0.99516053  0.78760137  0.14395556  1  -0.089707  0  -0.248066  -0.393188  0  3.904884  0
C  C105  1  0.50483951  0.21239774  0.64395418  1  -0.089652  0  -0.248065  -0.393157  0  3.904814  0
C  C106  1  0.49516434  0.71239868  0.85604502  1  -0.089597  0  -0.248031  -0.393135  0  3.904859  0
C  C107  1  0.00483557  0.28760198  0.35604483  1  -0.08951  0  -0.248011  -0.393122  0  3.904842  0
C  C108  1  0.36185928  0.78353876  0.07660489  1  -0.028691  0  -0.170033  -0.143396  0  3.921421  0
C  C109  1  0.13814512  0.21646003  0.57660561  1  -0.02859  0  -0.170055  -0.143407  0  3.921405  0
C  C110  1  0.86186039  0.71646120  0.92339415  1  -0.028464  0  -0.170024  -0.143346  0  3.921316  0
C  C111  1  0.63814338  0.28353847  0.42339718  1  -0.028416  0  -0.170062  -0.143392  0  3.921469  0
C  C112  1  0.44701248  0.70456902  0.11907385  1  -0.096284  0  -0.248943  -0.343365  0  3.946229  0
C  C113  1  0.05299148  0.29542912  0.61907577  1  -0.096485  0  -0.249006  -0.343552  0  3.946151  0
C  C114  1  0.94701766  0.79543035  0.88092622  1  -0.09658  0  -0.248944  -0.343423  0  3.946188  0
C  C115  1  0.55298984  0.20456998  0.38092768  1  -0.096274  0  -0.24894  -0.343368  0  3.946311  0
C  C116  1  0.30786472  0.06015453  0.03296955  1  0.278729  0  -0.06568  -0.093345  0  3.901092  0
C  C117  1  0.19213026  0.93984557  0.53296834  1  0.279027  0  -0.065767  -0.093539  0  3.901264  0
C  C118  1  0.80786306  0.43984668  0.96703080  1  0.278448  0  -0.065667  -0.09327  0  3.901086  0
C  C119  1  0.69212876  0.56015363  0.46703202  1  0.278691  0  -0.065718  -0.093477  0  3.901217  0
C  C120  1  0.29662352  0.03222616  0.95174338  1  -0.036442  0  0.014214  0.142939  0  3.92978  0
C  C121  1  0.20337213  0.96777383  0.45174224  1  -0.035962  0  0.014273  0.143041  0  3.929848  0
C  C122  1  0.79662475  0.46777569  0.04825810  1  -0.03567  0  0.014238  0.142919  0  3.929861  0
C  C123  1  0.70336312  0.53222279  0.54825755  1  -0.036168  0  0.014098  0.142886  0  3.929882  0
C  C124  1  0.12695924  0.06326231  0.90624841  1  -0.029296  0  -0.074655  -0.168621  0  3.933787  0
C  C125  1  0.37304016  0.93673834  0.40624933  1  -0.029305  0  -0.074611  -0.168529  0  3.933744  0
C  C126  1  0.62695658  0.43673749  0.09375215  1  -0.029459  0  -0.074631  -0.168534  0  3.9338  0
C  C127  1  0.87304561  0.56325904  0.59374802  1  -0.029601  0  -0.074583  -0.168448  0  3.933502  0
C  C128  1  0.11912839  0.03986821  0.83099295  1  0.47158  0  0.060043  0.111603  0  3.93961  0
C  C129  1  0.38087013  0.96013246  0.33099161  1  0.471364  0  0.059981  0.111413  0  3.939709  0
C  C130  1  0.61912507  0.46013158  0.16900649  1  0.471853  0  0.06002  0.111482  0  3.939776  0
C  C131  1  0.88087471  0.53986557  0.66900741  1  0.471721  0  0.060036  0.111307  0  3.939559  0
C  C132  1  0.43819044  0.95884730  0.84276134  1  0.471485  0  0.055324  0.100451  0  3.923882  0
C  C133  1  0.06180796  0.04115337  0.34276170  1  0.471459  0  0.05538  0.100644  0  3.923976  0
C  C134  1  0.93819037  0.54115401  0.15723874  1  0.471434  0  0.055347  0.100524  0  3.923811  0
C  C135  1  0.56181282  0.45884574  0.65724061  1  0.471728  0  0.055402  0.100536  0  3.924161  0
C  C136  1  0.45514423  0.97824435  0.91877682  1  -0.058787  0  -0.078461  -0.179412  0  3.903357  0
C  C137  1  0.04485669  0.02175435  0.41877271  1  -0.059287  0  -0.078548  -0.179554  0  3.903681  0
C  C138  1  0.95514156  0.52175697  0.08122492  1  -0.059276  0  -0.078508  -0.179473  0  3.90355  0
C  C139  1  0.54485583  0.47824604  0.58122850  1  -0.058753  0  -0.078506  -0.179493  0  3.903705  0
C  C140  1  0.24331841  0.24093034  0.16861097  1  1.53271  0  0.205629  0.679767  0  4.151065  0
C  C141  1  0.25667683  0.75906843  0.66860918  1  1.532677  0  0.205506  0.679647  0  4.151322  0
C  C142  1  0.74332229  0.25906953  0.83138945  1  1.532682  0  0.205585  0.679729  0  4.151188  0
C  C143  1  0.75667913  0.74093081  0.33138717  1  1.532848  0  0.2056  0.679708  0  4.151161  0
C  C144  1  0.10308219  0.32105963  0.15889029  1  -0.087568  0  -0.251534  -0.529701  0  3.908225  0
C  C145  1  0.39691151  0.67893655  0.65889060  1  -0.087803  0  -0.251512  -0.529568  0  3.908279  0
C  C146  1  0.60308562  0.17893885  0.84111086  1  -0.087611  0  -0.251555  -0.52971  0  3.908175  0
C  C147  1  0.89691406  0.82106279  0.34110840  1  -0.087632  0  -0.251501  -0.529617  0  3.908289  0
N  N148  1  0.31565324  0.98903264  0.08904647  1  -1.127403  0  -0.47914  -0.360807  0  3.51407  0
N  N149  1  0.18435268  0.01096809  0.58904606  1  -1.127555  0  -0.479131  -0.360767  0  3.513965  0
N  N150  1  0.81565359  0.51096665  0.91095375  1  -1.127503  0  -0.479123  -0.360762  0  3.514124  0
N  N151  1  0.68434866  0.48903109  0.41095386  1  -1.127401  0  -0.479113  -0.360758  0  3.514004  0
N  N152  1  0.27226342  0.98870252  0.79964540  1  -1.266132  0  -0.331651  -0.231774  0  3.584409  0
N  N153  1  0.22773378  0.01129751  0.29964277  1  -1.266192  0  -0.33162  -0.231707  0  3.584273  0
N  N154  1  0.77226113  0.51129609  0.20035544  1  -1.266125  0  -0.331646  -0.231713  0  3.584249  0
N  N155  1  0.72773505  0.48870041  0.70035486  1  -1.266628  0  -0.331608  -0.231553  0  3.584365  0
O  O156  1  0.75417133  0.94246458  0.06416363  1  -1.206866  0  -0.318082  -0.544237  0  2.201604  0
O  O157  1  0.74583773  0.05753843  0.56416483  1  -1.206491  0  -0.318092  -0.544267  0  2.201528  0
O  O158  1  0.25417531  0.55753596  0.93583441  1  -1.206785  0  -0.318101  -0.544293  0  2.201772  0
O  O159  1  0.24582873  0.44245950  0.43583727  1  -1.206484  0  -0.318051  -0.544288  0  2.201494  0
O  O160  1  0.92469294  0.00657597  0.16241681  1  -1.197545  0  -0.315971  -0.55962  0  2.311999  0
O  O161  1  0.57531513  0.99342313  0.66241629  1  -1.197467  0  -0.315941  -0.559658  0  2.312057  0
O  O162  1  0.42469650  0.49342596  0.83758172  1  -1.197581  0  -0.315958  -0.559611  0  2.312124  0
O  O163  1  0.07531346  0.50657730  0.33758702  1  -1.197738  0  -0.315903  -0.559604  0  2.312048  0
O  O164  1  0.58367258  0.09482224  0.21076049  1  -1.307906  0  -0.589658  -0.775957  0  2.145301  0
O  O165  1  0.91633171  0.90517684  0.71076016  1  -1.307915  0  -0.589619  -0.775924  0  2.145391  0
O  O166  1  0.08367297  0.40517817  0.78923955  1  -1.308056  0  -0.589651  -0.775939  0  2.145313  0
O  O167  1  0.41633255  0.59482251  0.28923938  1  -1.307913  0  -0.58964  -0.775913  0  2.145394  0
O  O168  1  0.13566866  0.17047555  0.18134269  1  -1.182761  0  -0.342748  -0.569825  0  2.291895  0
O  O169  1  0.36433138  0.82952387  0.68134357  1  -1.182688  0  -0.342726  -0.569806  0  2.291905  0
O  O170  1  0.63567133  0.32952425  0.81865842  1  -1.18273  0  -0.342733  -0.569797  0  2.291929  0
O  O171  1  0.86433187  0.67047545  0.31865603  1  -1.182741  0  -0.342747  -0.569801  0  2.291855  0
O  O172  1  0.44973616  0.24752939  0.16376397  1  -1.165799  0  -0.335665  -0.585329  0  2.110783  0
O  O173  1  0.05026406  0.75247132  0.66375960  1  -1.165823  0  -0.335568  -0.585246  0  2.111015  0
O  O174  1  0.94973832  0.25247256  0.83623790  1  -1.165804  0  -0.335617  -0.585304  0  2.110975  0
O  O175  1  0.55026470  0.74752844  0.33623474  1  -1.165938  0  -0.335637  -0.585292  0  2.11094  0
