# generated using pymatgen
data_CdH11C13I2N3
_symmetry_space_group_name_H-M   'P 1'
_cell_length_a   12.88192890
_cell_length_b   16.77804270
_cell_length_c   17.31915253
_cell_angle_alpha   117.66399775
_cell_angle_beta   90.00001238
_cell_angle_gamma   89.99996581
_symmetry_Int_Tables_number   1
_chemical_formula_structural   CdH11C13I2N3
_chemical_formula_sum   'Cd8 H88 C104 I16 N24'
_cell_volume   3315.34236841
_cell_formula_units_Z   8
loop_
 _symmetry_equiv_pos_site_id
 _symmetry_equiv_pos_as_xyz
  1  'x, y, z'
loop_
 _atom_site_type_symbol
 _atom_site_label
 _atom_site_symmetry_multiplicity
 _atom_site_fract_x
 _atom_site_fract_y
 _atom_site_fract_z
 _atom_site_occupancy
 _atom_site_pbe_bader_charge
 _atom_site_pbe_bader_spin_density
 _atom_site_pbe_cm5_charge
 _atom_site_pbe_ddec_charge
 _atom_site_pbe_ddec_spin_density
 _atom_site_pbe_ddec_sum_bond_order
 _atom_site_pbe_magmom
Cd  Cd0  1  0.46453105  0.86936161  0.18943051  1  0.893456  0  0.520555  0.582301  0  2.563987  0
Cd  Cd1  1  0.96453011  0.63063740  0.81056841  1  0.893438  0  0.520563  0.582313  0  2.563998  0
Cd  Cd2  1  0.53546801  0.13063728  0.81056830  1  0.89345  0  0.520562  0.582309  0  2.564006  0
Cd  Cd3  1  0.03546817  0.36936150  0.18943098  1  0.893461  0  0.520551  0.582315  0  2.56397  0
Cd  Cd4  1  0.52096994  0.54328983  0.26522037  1  0.880157  0  0.522326  0.55891  0  2.607845  0
Cd  Cd5  1  0.02096632  0.95670874  0.73478174  1  0.88021  0  0.522328  0.558948  0  2.607804  0
Cd  Cd6  1  0.47903378  0.45670840  0.73478161  1  0.880205  0  0.522334  0.558961  0  2.607807  0
Cd  Cd7  1  0.97903353  0.04329150  0.26521883  1  0.880214  0  0.522339  0.558962  0  2.607805  0
H  H8  1  0.66492887  0.79307497  0.22706249  1  0.09453  0  0.095319  0.061448  0  1.062038  0
H  H9  1  0.16493088  0.70692621  0.77293735  1  0.094537  0  0.095318  0.061464  0  1.062062  0
H  H10  1  0.33506864  0.20692594  0.77293781  1  0.094559  0  0.095313  0.061425  0  1.062065  0
H  H11  1  0.83506896  0.29307336  0.22706176  1  0.094561  0  0.095298  0.061445  0  1.062087  0
H  H12  1  0.77206194  0.65440441  0.17430944  1  0.070764  0  0.100187  0.104728  0  1.056114  0
H  H13  1  0.27206386  0.84559605  0.82569124  1  0.070752  0  0.100193  0.104736  0  1.056054  0
H  H14  1  0.22793712  0.34559651  0.82569143  1  0.070763  0  0.100184  0.104752  0  1.056053  0
H  H15  1  0.72793520  0.15440419  0.17430875  1  0.070737  0  0.10021  0.104748  0  1.056093  0
H  H16  1  0.57707112  0.53682276  0.94539354  1  0.1214  0  0.089691  0.101669  0  1.058895  0
H  H17  1  0.07707039  0.96317644  0.05460656  1  0.121405  0  0.089705  0.101686  0  1.058852  0
H  H18  1  0.42293106  0.46317747  0.05460588  1  0.121407  0  0.08972  0.101706  0  1.058838  0
H  H19  1  0.92292790  0.03682179  0.94539369  1  0.121396  0  0.089678  0.101658  0  1.058902  0
H  H20  1  0.47440307  0.67973759  0.00983379  1  0.111598  0  0.094902  0.06652  0  1.054901  0
H  H21  1  0.97440204  0.82026141  0.99016340  1  0.111609  0  0.094889  0.066483  0  1.054872  0
H  H22  1  0.52559832  0.32026197  0.99016359  1  0.111628  0  0.094908  0.066506  0  1.054879  0
H  H23  1  0.02559936  0.17973479  0.00983652  1  0.110897  0  0.094922  0.066527  0  1.054854  0
H  H24  1  0.70048266  0.43947278  0.00216733  1  0.105491  0  0.117559  0.114207  0  0.972063  0
H  H25  1  0.20048252  0.06052726  0.99783254  1  0.105483  0  0.117554  0.114201  0  0.972069  0
H  H26  1  0.29951718  0.56052813  0.99783296  1  0.105479  0  0.117565  0.11422  0  0.972002  0
H  H27  1  0.79951577  0.93947230  0.00216715  1  0.105497  0  0.117575  0.114222  0  0.972026  0
H  H28  1  0.77259077  0.48822147  0.94872771  1  0.093719  0  0.110277  0.108569  0  1.008513  0
H  H29  1  0.27259039  0.01177854  0.05127274  1  0.093708  0  0.110313  0.108626  0  1.008444  0
H  H30  1  0.22740985  0.51177810  0.05127256  1  0.093709  0  0.110307  0.108624  0  1.00845  0
H  H31  1  0.72740790  0.98822103  0.94872637  1  0.093928  0  0.110305  0.108616  0  1.008424  0
H  H32  1  0.80731374  0.38173533  0.07992482  1  0.155209  0  0.120225  0.096614  0  1.036709  0
H  H33  1  0.30731276  0.11826398  0.92007476  1  0.155188  0  0.120225  0.096591  0  1.036768  0
H  H34  1  0.19268610  0.61826423  0.92007488  1  0.155219  0  0.120201  0.096567  0  1.036797  0
H  H35  1  0.69268553  0.88173559  0.07992551  1  0.155217  0  0.120199  0.096544  0  1.036826  0
H  H36  1  0.89342496  0.65199006  0.03516569  1  0.108485  0  0.087069  0.10671  0  1.053632  0
H  H37  1  0.39342459  0.84801033  0.96483441  1  0.108482  0  0.087081  0.106738  0  1.053595  0
H  H38  1  0.10657566  0.34801018  0.96483488  1  0.10848  0  0.08708  0.106718  0  1.053588  0
H  H39  1  0.60657525  0.15198990  0.03516558  1  0.108478  0  0.087088  0.106739  0  1.053627  0
H  H40  1  0.05816959  0.73454754  0.09900814  1  0.090162  0  0.080931  0.093388  0  1.045284  0
H  H41  1  0.55816857  0.76545235  0.90099226  1  0.090155  0  0.080929  0.093396  0  1.045288  0
H  H42  1  0.94183103  0.26545203  0.90099213  1  0.090406  0  0.080924  0.093374  0  1.045302  0
H  H43  1  0.44183049  0.23454790  0.09900832  1  0.090154  0  0.08093  0.0934  0  1.045275  0
H  H44  1  0.17564426  0.68848034  0.18268150  1  0.100329  0  0.08148  0.097333  0  1.047548  0
H  H45  1  0.67564396  0.81151882  0.81731859  1  0.100316  0  0.081494  0.097333  0  1.047528  0
H  H46  1  0.82435636  0.31151856  0.81731789  1  0.100315  0  0.081486  0.097335  0  1.047522  0
H  H47  1  0.32435588  0.18848142  0.18268256  1  0.100311  0  0.081488  0.097367  0  1.04754  0
H  H48  1  0.13612927  0.55520104  0.20572101  1  0.080384  0  0.092781  0.10305  0  1.036992  0
H  H49  1  0.63612964  0.94479813  0.79427908  1  0.080483  0  0.092774  0.103047  0  1.036917  0
H  H50  1  0.86386979  0.44479786  0.79427896  1  0.080478  0  0.092783  0.103059  0  1.036949  0
H  H51  1  0.36387020  0.05520211  0.20572207  1  0.080461  0  0.092783  0.103054  0  1.036979  0
H  H52  1  0.57194671  0.75101158  0.36041361  1  0.132223  0  0.104053  0.076112  0  1.030028  0
H  H53  1  0.07194555  0.74898965  0.63958739  1  0.132195  0  0.104051  0.076123  0  1.030031  0
H  H54  1  0.42805313  0.24898866  0.63958639  1  0.132163  0  0.104056  0.076113  0  1.030042  0
H  H55  1  0.92805274  0.25101194  0.36041436  1  0.132203  0  0.104057  0.076121  0  1.030019  0
H  H56  1  0.71787902  0.85676650  0.39467357  1  0.150375  0  0.101693  0.115984  0  1.04648  0
H  H57  1  0.21787792  0.64323465  0.60532627  1  0.150375  0  0.101686  0.115954  0  1.046518  0
H  H58  1  0.28212083  0.14323373  0.60532585  1  0.150367  0  0.101685  0.115973  0  1.046501  0
H  H59  1  0.78212037  0.35676627  0.39467403  1  0.150378  0  0.101684  0.115951  0  1.046505  0
H  H60  1  0.92681287  0.62955871  0.31776486  1  0.096175  0  0.10327  0.116514  0  1.027742  0
H  H61  1  0.42681239  0.87044099  0.68223437  1  0.09619  0  0.103272  0.116514  0  1.027721  0
H  H62  1  0.07318775  0.37044220  0.68223486  1  0.096121  0  0.103271  0.116512  0  1.027717  0
H  H63  1  0.57318745  0.12955858  0.31776533  1  0.096181  0  0.103276  0.116535  0  1.027729  0
H  H64  1  0.77075087  0.53257023  0.28876960  1  0.097955  0  0.09782  0.066936  0  1.057841  0
H  H65  1  0.27075111  0.96743022  0.71123109  1  0.097955  0  0.097817  0.066918  0  1.057843  0
H  H66  1  0.22924975  0.46743001  0.71123039  1  0.097962  0  0.097822  0.066927  0  1.057841  0
H  H67  1  0.72924951  0.03257069  0.28876978  1  0.097983  0  0.097811  0.066914  0  1.057869  0
H  H68  1  0.00103065  0.77627036  0.35609604  1  0.095873  0  0.12001  0.111009  0  0.96868  0
H  H69  1  0.50102882  0.72372955  0.64390379  1  0.095609  0  0.120018  0.111013  0  0.968706  0
H  H70  1  0.99896997  0.22372988  0.64390338  1  0.095587  0  0.12001  0.111007  0  0.96869  0
H  H71  1  0.49896947  0.27627069  0.35609678  1  0.09587  0  0.12001  0.111009  0  0.968664  0
H  H72  1  0.92232665  0.84614571  0.32939400  1  0.111939  0  0.104841  0.104096  0  1.016756  0
H  H73  1  0.42232712  0.65385467  0.67060668  1  0.111943  0  0.104846  0.104107  0  1.016746  0
H  H74  1  0.07767319  0.15385520  0.67060629  1  0.11195  0  0.104849  0.104109  0  1.016755  0
H  H75  1  0.57767272  0.34614490  0.32939359  1  0.111952  0  0.104842  0.10409  0  1.016765  0
H  H76  1  0.02788145  0.81693792  0.51608593  1  0.140897  0  0.141947  0.110287  0  0.971909  0
H  H77  1  0.52788581  0.68305929  0.48391442  1  0.140988  0  0.141946  0.110277  0  0.971968  0
H  H78  1  0.97211839  0.18306165  0.48391376  1  0.140891  0  0.141952  0.11028  0  0.971902  0
H  H79  1  0.47211869  0.31693893  0.51608640  1  0.140909  0  0.141958  0.110285  0  0.971893  0
H  H80  1  0.79943896  0.97921505  0.39574152  1  0.082123  0  0.094212  0.101019  0  1.047692  0
H  H81  1  0.29943951  0.52078539  0.60425859  1  0.082129  0  0.09423  0.101019  0  1.047702  0
H  H82  1  0.20056088  0.02078452  0.60425817  1  0.08212  0  0.094207  0.101007  0  1.047702  0
H  H83  1  0.70056110  0.47921552  0.39574229  1  0.082123  0  0.094227  0.101026  0  1.047715  0
H  H84  1  0.71675138  0.12302653  0.50057220  1  0.076731  0  0.095133  0.100448  0  1.004828  0
H  H85  1  0.21675085  0.37697350  0.49942710  1  0.076737  0  0.095131  0.100447  0  1.00483  0
H  H86  1  0.28324846  0.87697303  0.49942692  1  0.076738  0  0.095123  0.100444  0  1.004858  0
H  H87  1  0.78324899  0.62302741  0.50057262  1  0.076725  0  0.095121  0.100417  0  1.004848  0
H  H88  1  0.74661647  0.18767971  0.65928754  1  0.111204  0  0.086296  0.094842  0  1.044154  0
H  H89  1  0.24661672  0.31232098  0.34071206  1  0.111295  0  0.086288  0.094843  0  1.044152  0
H  H90  1  0.25338259  0.81231986  0.34071158  1  0.111269  0  0.08628  0.094827  0  1.044147  0
H  H91  1  0.75338312  0.68767993  0.65928766  1  0.111211  0  0.086277  0.094821  0  1.04416  0
H  H92  1  0.86035491  0.10995420  0.72021502  1  0.131659  0  0.091794  0.106442  0  1.044369  0
H  H93  1  0.36035508  0.39004643  0.27978457  1  0.131643  0  0.091795  0.106451  0  1.044363  0
H  H94  1  0.13964493  0.89004671  0.27978527  1  0.131655  0  0.091798  0.106444  0  1.04438  0
H  H95  1  0.63964476  0.60995380  0.72021485  1  0.131652  0  0.091798  0.106461  0  1.044367  0
C  C96  1  0.64763179  0.73426586  0.16520200  1  0.462109  0  0.033474  0.095343  0  3.977186  0
C  C97  1  0.14763299  0.76573532  0.83479785  1  0.462103  0  0.033466  0.095268  0  3.977298  0
C  C98  1  0.35236728  0.26573639  0.83479775  1  0.462069  0  0.033473  0.095323  0  3.977222  0
C  C99  1  0.85236840  0.23426425  0.16520242  1  0.462083  0  0.033476  0.095316  0  3.977291  0
C  C100  1  0.70678134  0.65627201  0.13545094  1  0.00385  0  -0.094594  -0.184356  0  3.960251  0
C  C101  1  0.20678172  0.84372915  0.86454947  1  0.003789  0  -0.094592  -0.1843  0  3.96026  0
C  C102  1  0.29321850  0.34372891  0.86454993  1  0.003775  0  -0.094594  -0.184356  0  3.960288  0
C  C103  1  0.79321735  0.15627109  0.13545110  1  0.003838  0  -0.094594  -0.184337  0  3.960289  0
C  C104  1  0.68312729  0.58332923  0.05509456  1  -0.025438  0  0.011663  0.146089  0  3.923308  0
C  C105  1  0.18312764  0.91667059  0.94490641  1  -0.025391  0  0.011632  0.146019  0  3.92338  0
C  C106  1  0.31687333  0.41667168  0.94490516  1  -0.025393  0  0.011655  0.146059  0  3.923315  0
C  C107  1  0.81687143  0.08332898  0.05509386  1  -0.025581  0  0.011676  0.146099  0  3.923411  0
C  C108  1  0.59791644  0.59164446  0.00896122  1  -0.026325  0  -0.089242  -0.165268  0  3.931934  0
C  C109  1  0.09791680  0.90835473  0.99103887  1  -0.026325  0  -0.08927  -0.165294  0  3.931912  0
C  C110  1  0.40208573  0.40835510  0.99103673  1  -0.026334  0  -0.089274  -0.165316  0  3.931871  0
C  C111  1  0.90208149  0.09164349  0.00896080  1  -0.026216  0  -0.08924  -0.165292  0  3.93202  0
C  C112  1  0.54141323  0.67116478  0.04391184  1  0.479616  0  0.036449  0.098067  0  3.955691  0
C  C113  1  0.04141365  0.82883511  0.95608740  1  0.479612  0  0.036512  0.098191  0  3.955577  0
C  C114  1  0.45858739  0.32883613  0.95608672  1  0.479588  0  0.0365  0.098165  0  3.955581  0
C  C115  1  0.95858697  0.17116311  0.04391227  1  0.480362  0  0.036439  0.098113  0  3.955579  0
C  C116  1  0.74759825  0.49861173  0.01358158  1  0.302011  0  -0.041929  -0.108592  0  3.872084  0
C  C117  1  0.24759816  0.00138896  0.98641917  1  0.302009  0  -0.041937  -0.108631  0  3.871998  0
C  C118  1  0.25240159  0.50138918  0.98641929  1  0.302014  0  -0.041958  -0.108666  0  3.871951  0
C  C119  1  0.75240091  0.99861128  0.01358082  1  0.301774  0  -0.041966  -0.108691  0  3.871992  0
C  C120  1  0.85980586  0.43692824  0.09182082  1  0.994982  0  0.155364  0.131172  0  3.927419  0
C  C121  1  0.35980570  0.06307172  0.90817905  1  0.994994  0  0.155326  0.131137  0  3.927355  0
C  C122  1  0.14019320  0.56307200  0.90817975  1  0.994987  0  0.155369  0.131181  0  3.927464  0
C  C123  1  0.64019337  0.93692851  0.09182094  1  0.994997  0  0.155335  0.13113  0  3.927433  0
C  C124  1  0.99053703  0.52954375  0.13389381  1  0.347912  0  0.076212  0.128522  0  4.074892  0
C  C125  1  0.49053731  0.97045660  0.86610629  1  0.348088  0  0.076194  0.128521  0  4.074921  0
C  C126  1  0.00946204  0.47045649  0.86610676  1  0.348089  0  0.076241  0.128513  0  4.074868  0
C  C127  1  0.50946253  0.02954364  0.13389370  1  0.347954  0  0.076195  0.128498  0  4.074996  0
C  C128  1  0.92237253  0.55799297  0.08730094  1  0.319821  0  0.088405  0.083619  0  3.992397  0
C  C129  1  0.42237285  0.94200741  0.91269974  1  0.319827  0  0.088404  0.083628  0  3.992406  0
C  C130  1  0.07762653  0.44200728  0.91270021  1  0.319814  0  0.088384  0.083609  0  3.992373  0
C  C131  1  0.57762622  0.05799215  0.08729995  1  0.319524  0  0.08836  0.083556  0  3.992404  0
C  C132  1  0.94471776  0.63131044  0.07273633  1  -0.027632  0  -0.101835  -0.152958  0  3.985681  0
C  C133  1  0.44471736  0.86868925  0.92726347  1  -0.027645  0  -0.101838  -0.152955  0  3.98568  0
C  C134  1  0.05528209  0.36868913  0.92726336  1  -0.027636  0  -0.101836  -0.152942  0  3.985604  0
C  C135  1  0.55528171  0.13130964  0.07273534  1  -0.027337  0  -0.101808  -0.152913  0  3.985606  0
C  C136  1  0.03697481  0.67685620  0.10848995  1  -0.045967  0  -0.105751  -0.081341  0  4.01414  0
C  C137  1  0.53697452  0.82314370  0.89151045  1  -0.045922  0  -0.105781  -0.081433  0  4.014203  0
C  C138  1  0.96302504  0.32314337  0.89151032  1  -0.046188  0  -0.105742  -0.081341  0  4.014186  0
C  C139  1  0.46302455  0.17685654  0.10849012  1  -0.045957  0  -0.10577  -0.081407  0  4.014157  0
C  C140  1  0.10393607  0.65084161  0.15703622  1  -0.039193  0  -0.108083  -0.095231  0  4.019689  0
C  C141  1  0.60393575  0.84915758  0.84296388  1  -0.039245  0  -0.108069  -0.095156  0  4.019754  0
C  C142  1  0.89606377  0.34915729  0.84296375  1  -0.03925  0  -0.10809  -0.09521  0  4.019704  0
C  C143  1  0.39606410  0.15084266  0.15703669  1  -0.039223  0  -0.10809  -0.095239  0  4.019792  0
C  C144  1  0.08248900  0.57660984  0.17015752  1  -0.082466  0  -0.101777  -0.168566  0  4.001283  0
C  C145  1  0.58248862  0.92338936  0.82984258  1  -0.082722  0  -0.101778  -0.168602  0  4.001308  0
C  C146  1  0.91751084  0.42338906  0.82984245  1  -0.082721  0  -0.101809  -0.168605  0  4.001242  0
C  C147  1  0.41751123  0.07661088  0.17015857  1  -0.082582  0  -0.101764  -0.168561  0  4.001315  0
C  C148  1  0.65189981  0.72679214  0.35394051  1  0.474895  0  0.041146  0.091497  0  3.958845  0
C  C149  1  0.15190018  0.77320836  0.64605903  1  0.47493  0  0.041146  0.09144  0  3.958881  0
C  C150  1  0.34810081  0.27320809  0.64605890  1  0.47494  0  0.041152  0.091482  0  3.958837  0
C  C151  1  0.84810044  0.22679255  0.35394127  1  0.474922  0  0.041108  0.091419  0  3.958951  0
C  C152  1  0.73461644  0.78571383  0.37173188  1  -0.145262  0  -0.083208  -0.167188  0  3.917517  0
C  C153  1  0.23461608  0.71428663  0.62826765  1  -0.145239  0  -0.083185  -0.167109  0  3.917425  0
C  C154  1  0.26538418  0.21428640  0.62826753  1  -0.145241  0  -0.083203  -0.167171  0  3.917478  0
C  C155  1  0.76538299  0.28571428  0.37173264  1  -0.145269  0  -0.083182  -0.167106  0  3.917509  0
C  C156  1  0.83612299  0.75187425  0.35703451  1  0.017052  0  0.013242  0.142967  0  3.919853  0
C  C157  1  0.33612338  0.74812549  0.64296472  1  0.017025  0  0.013241  0.14301  0  3.919761  0
C  C158  1  0.16387685  0.24812599  0.64296548  1  0.017044  0  0.013227  0.142955  0  3.919797  0
C  C159  1  0.66387646  0.25187407  0.35703440  1  0.017041  0  0.013246  0.143005  0  3.919742  0
C  C160  1  0.84978945  0.65976763  0.32857163  1  -0.018839  0  -0.082111  -0.173079  0  3.925693  0
C  C161  1  0.34978823  0.84023211  0.67142760  1  -0.01884  0  -0.082123  -0.173136  0  3.925697  0
C  C162  1  0.15021194  0.34023193  0.67142749  1  -0.018756  0  -0.082094  -0.173076  0  3.925681  0
C  C163  1  0.65021084  0.15976813  0.32857239  1  -0.018834  0  -0.082115  -0.173139  0  3.925688  0
C  C164  1  0.76277766  0.60508712  0.31277770  1  0.491675  0  0.043364  0.100504  0  3.947723  0
C  C165  1  0.26277795  0.89491333  0.68722241  1  0.491649  0  0.043365  0.100542  0  3.947686  0
C  C166  1  0.23722296  0.39491311  0.68722171  1  0.491648  0  0.043365  0.100536  0  3.947745  0
C  C167  1  0.73722267  0.10508691  0.31277816  1  0.491661  0  0.043375  0.100554  0  3.947717  0
C  C168  1  0.92759452  0.81363562  0.37183096  1  0.280258  0  -0.042579  -0.108072  0  3.872189  0
C  C169  1  0.42759417  0.68636476  0.62816856  1  0.280534  0  -0.042571  -0.108076  0  3.872189  0
C  C170  1  0.07240532  0.18636530  0.62816933  1  0.280667  0  -0.042588  -0.108098  0  3.872199  0
C  C171  1  0.57240489  0.31363548  0.37183085  1  0.280247  0  -0.042562  -0.108057  0  3.872137  0
C  C172  1  0.97898045  0.87426003  0.52812715  1  1.021723  0  0.15924  0.126034  0  3.935874  0
C  C173  1  0.47898322  0.62573965  0.47187380  1  1.021568  0  0.159285  0.126128  0  3.935841  0
C  C174  1  0.02101939  0.12574020  0.47187284  1  1.0217  0  0.15926  0.12611  0  3.935857  0
C  C175  1  0.52101973  0.37426060  0.52812735  1  1.021723  0  0.159258  0.126108  0  3.935799  0
C  C176  1  0.87618991  0.96402740  0.50042590  1  0.335919  0  0.08961  0.08773  0  3.984936  0
C  C177  1  0.37619120  0.53597232  0.49957333  1  0.336076  0  0.089634  0.087772  0  3.984887  0
C  C178  1  0.12380993  0.03597284  0.49957409  1  0.335939  0  0.089645  0.087805  0  3.984891  0
C  C179  1  0.62381020  0.46402724  0.50042579  1  0.336016  0  0.08962  0.087761  0  3.984935  0
C  C180  1  0.81347684  0.00729167  0.46557227  1  -0.040676  0  -0.101933  -0.168434  0  4.01952  0
C  C181  1  0.31347701  0.49270899  0.53442790  1  -0.04079  0  -0.101949  -0.168411  0  4.019475  0
C  C182  1  0.18652300  0.99270857  0.53442830  1  -0.04067  0  -0.101933  -0.168419  0  4.019492  0
C  C183  1  0.68652361  0.50729192  0.46557181  1  -0.040683  0  -0.101965  -0.168487  0  4.019558  0
C  C184  1  0.76838031  0.08826003  0.52489160  1  0.022214  0  -0.097962  -0.080243  0  4.012194  0
C  C185  1  0.26837975  0.41174065  0.47510857  1  0.022233  0  -0.097978  -0.080263  0  4.012222  0
C  C186  1  0.23161953  0.91173954  0.47510809  1  0.022219  0  -0.097963  -0.080263  0  4.012228  0
C  C187  1  0.73161932  0.58826026  0.52489172  1  0.022216  0  -0.097943  -0.080167  0  4.012186  0
C  C188  1  0.78551129  0.12506768  0.61545184  1  -0.066736  0  -0.099104  -0.08786  0  4.016627  0
C  C189  1  0.28551150  0.37493299  0.38454776  1  -0.06679  0  -0.09913  -0.08791  0  4.016597  0
C  C190  1  0.21448856  0.87493188  0.38454785  1  -0.066807  0  -0.099094  -0.087827  0  4.016604  0
C  C191  1  0.71448834  0.62506859  0.61545226  1  -0.066747  0  -0.099108  -0.087872  0  4.016525  0
C  C192  1  0.84869750  0.08222696  0.65006483  1  -0.063616  0  -0.095118  -0.153902  0  3.976472  0
C  C193  1  0.34869844  0.41777300  0.34993446  1  -0.063649  0  -0.09509  -0.153862  0  3.976517  0
C  C194  1  0.15130235  0.91777327  0.34993458  1  -0.063624  0  -0.095141  -0.153949  0  3.97653  0
C  C195  1  0.65130217  0.58222724  0.65006553  1  -0.063637  0  -0.095103  -0.153911  0  3.976458  0
C  C196  1  0.89423340  0.00071786  0.59126970  1  0.329365  0  0.083062  0.142252  0  4.039786  0
C  C197  1  0.39423508  0.49928074  0.40872899  1  0.32922  0  0.083049  0.142228  0  4.039781  0
C  C198  1  0.10576722  0.99928171  0.40872999  1  0.32936  0  0.083054  0.142236  0  4.039773  0
C  C199  1  0.60576709  0.50071883  0.59127013  1  0.329359  0  0.083048  0.142259  0  4.039821  0
I  I200  1  0.51691916  0.95517279  0.36251315  1  -0.515345  0  -0.277253  -0.429731  0  1.243097  0
I  I201  1  0.01691893  0.54482711  0.63748667  1  -0.515412  0  -0.277258  -0.429742  0  1.243112  0
I  I202  1  0.48307990  0.04482610  0.63748624  1  -0.515423  0  -0.27726  -0.429736  0  1.243104  0
I  I203  1  0.98308013  0.45517380  0.36251305  1  -0.515352  0  -0.277259  -0.429742  0  1.243106  0
I  I204  1  0.27638843  0.82256703  0.10555535  1  -0.513877  0  -0.24302  -0.414204  0  1.315512  0
I  I205  1  0.77638825  0.67743208  0.89444473  1  -0.513854  0  -0.243021  -0.414203  0  1.315518  0
I  I206  1  0.72361064  0.17743321  0.89444464  1  -0.513864  0  -0.243021  -0.414206  0  1.315512  0
I  I207  1  0.22361159  0.32256682  0.10555581  1  -0.513887  0  -0.243021  -0.414213  0  1.3155  0
I  I208  1  0.38778100  0.64047861  0.22047864  1  -0.492937  0  -0.234316  -0.41819  0  1.40407  0
I  I209  1  0.88777599  0.85952314  0.77952611  1  -0.49295  0  -0.234314  -0.418189  0  1.404073  0
I  I210  1  0.61222428  0.35952298  0.77952600  1  -0.492943  0  -0.234313  -0.418186  0  1.404056  0
I  I211  1  0.11222463  0.14047710  0.22047388  1  -0.492948  0  -0.234311  -0.418186  0  1.404051  0
I  I212  1  0.61800670  0.38107547  0.17853361  1  -0.491883  0  -0.202753  -0.390919  0  1.429186  0
I  I213  1  0.11800492  0.11892259  0.82146536  1  -0.491914  0  -0.202754  -0.390914  0  1.429194  0
I  I214  1  0.38199547  0.61892207  0.82146575  1  -0.491915  0  -0.202762  -0.390936  0  1.429204  0
I  I215  1  0.88199493  0.88107765  0.17853405  1  -0.491925  0  -0.20277  -0.390945  0  1.429205  0
N  N216  1  0.56657870  0.74197537  0.12054766  1  -1.274338  0  -0.344557  -0.220334  0  3.543081  0
N  N217  1  0.06657837  0.75802383  0.87945013  1  -1.274301  0  -0.344563  -0.220343  0  3.543085  0
N  N218  1  0.43342192  0.25802487  0.87945002  1  -1.274282  0  -0.344589  -0.220357  0  3.542999  0
N  N219  1  0.93342147  0.24197372  0.12054982  1  -1.27428  0  -0.344565  -0.220383  0  3.543052  0
N  N220  1  0.83878259  0.49846318  0.06309853  1  -1.209561  0  -0.238786  -0.013009  0  3.713527  0
N  N221  1  0.33878247  0.00153680  0.93690192  1  -1.209549  0  -0.238765  -0.012978  0  3.713485  0
N  N222  1  0.16121726  0.50153706  0.93690204  1  -1.20955  0  -0.238749  -0.012942  0  3.713482  0
N  N223  1  0.66121659  0.99846277  0.06309777  1  -1.209558  0  -0.23873  -0.012836  0  3.713342  0
N  N224  1  0.94919775  0.45319277  0.13448118  1  -1.218141  0  -0.361779  -0.327014  0  3.491368  0
N  N225  1  0.44919759  0.04680647  0.86551838  1  -1.218146  0  -0.361765  -0.326984  0  3.491388  0
N  N226  1  0.05080209  0.54680680  0.86551909  1  -1.218141  0  -0.361805  -0.327021  0  3.491389  0
N  N227  1  0.55080148  0.95319377  0.13448219  1  -1.218162  0  -0.361779  -0.327004  0  3.491404  0
N  N228  1  0.66550029  0.63774296  0.32404792  1  -1.260777  0  -0.339249  -0.229791  0  3.527622  0
N  N229  1  0.16549982  0.86225754  0.67595220  1  -1.260781  0  -0.339257  -0.229818  0  3.527632  0
N  N230  1  0.33450033  0.36225727  0.67595150  1  -1.260792  0  -0.33925  -0.229814  0  3.527687  0
N  N231  1  0.83450002  0.13774337  0.32404867  1  -1.260779  0  -0.339237  -0.2298  0  3.527669  0
N  N232  1  0.93176236  0.88348785  0.46244335  1  -1.234834  0  -0.237022  -0.015811  0  3.723226  0
N  N233  1  0.43176204  0.61651185  0.53755645  1  -1.234819  0  -0.237059  -0.015894  0  3.723257  0
N  N234  1  0.06823826  0.11651239  0.53755722  1  -1.234942  0  -0.237028  -0.015854  0  3.723222  0
N  N235  1  0.56823780  0.38348838  0.46244297  1  -1.234911  0  -0.237036  -0.015862  0  3.723226  0
N  N236  1  0.95943368  0.94277171  0.60568396  1  -1.222353  0  -0.361649  -0.318859  0  3.519042  0
N  N237  1  0.45943647  0.55722797  0.39431584  1  -1.222215  0  -0.361645  -0.318878  0  3.518892  0
N  N238  1  0.04056616  0.05722853  0.39431603  1  -1.222342  0  -0.361639  -0.318874  0  3.519048  0
N  N239  1  0.54056648  0.44277226  0.60568416  1  -1.222329  0  -0.361659  -0.318917  0  3.518985  0
