# generated using pymatgen
data_CdH10C12(N3O)2
_symmetry_space_group_name_H-M   'P 1'
_cell_length_a   7.76850894
_cell_length_b   9.80500562
_cell_length_c   10.79305880
_cell_angle_alpha   85.54816015
_cell_angle_beta   72.43332701
_cell_angle_gamma   87.04414076
_symmetry_Int_Tables_number   1
_chemical_formula_structural   CdH10C12(N3O)2
_chemical_formula_sum   'Cd2 H20 C24 N12 O4'
_cell_volume   781.06506498
_cell_formula_units_Z   2
loop_
 _symmetry_equiv_pos_site_id
 _symmetry_equiv_pos_as_xyz
  1  'x, y, z'
loop_
 _atom_site_type_symbol
 _atom_site_label
 _atom_site_symmetry_multiplicity
 _atom_site_fract_x
 _atom_site_fract_y
 _atom_site_fract_z
 _atom_site_occupancy
 _atom_site_hle17_bader_spin_density
 _atom_site_hle17_ddec_charge
 _atom_site_hle17_ddec_spin_density
 _atom_site_hle17_ddec_sum_bond_order
 _atom_site_hle17_magmom
 _atom_site_hse06_10hf_bader_spin_density
 _atom_site_hse06_10hf_ddec_charge
 _atom_site_hse06_10hf_ddec_spin_density
 _atom_site_hse06_10hf_ddec_sum_bond_order
 _atom_site_hse06_10hf_magmom
 _atom_site_hse06_bader_spin_density
 _atom_site_hse06_ddec_charge
 _atom_site_hse06_ddec_spin_density
 _atom_site_hse06_ddec_sum_bond_order
 _atom_site_hse06_magmom
 _atom_site_pbe_bader_spin_density
 _atom_site_pbe_cm5_charge
 _atom_site_pbe_ddec_charge
 _atom_site_pbe_ddec_spin_density
 _atom_site_pbe_ddec_sum_bond_order
 _atom_site_pbe_magmom
Cd  Cd0  1  0.09794753  0.15822686  0.60012038  1  0  1.015761  0  1.741424  0  0  0.799258  0  2.193599  0  0  0.854239  0  2.150487  0  0  0.784348  0.763357  0  2.221555  0
Cd  Cd1  1  0.90203817  0.84177852  0.39988282  1  0  1.015814  0  1.741408  0  0  0.79927  0  2.19364  0  0  0.854248  0  2.150524  0  0  0.784375  0.763369  0  2.221596  0
H  H2  1  0.35813743  0.26808365  0.76898028  1  0  0.082135  0  0.927794  0  0  0.091613  0  0.98789  0  0  0.094466  0  0.985381  0  0  0.118987  0.089507  0  0.989853  0
H  H3  1  0.64185496  0.73192057  0.23101959  1  0  0.082078  0  0.927803  0  0  0.09159  0  0.987866  0  0  0.09444  0  0.98536  0  0  0.118973  0.089479  0  0.989825  0
H  H4  1  0.57996145  0.17633720  0.88396561  1  0  0.106814  0  0.943727  0  0  0.121872  0  0.994921  0  0  0.124209  0  0.995206  0  0  0.114166  0.120105  0  0.995045  0
H  H5  1  0.42003095  0.82366909  0.11603501  1  0  0.106837  0  0.943787  0  0  0.121901  0  0.994981  0  0  0.124228  0  0.995264  0  0  0.114158  0.120133  0  0.995105  0
H  H6  1  0.69787263  0.93447317  0.85347922  1  0  0.115363  0  0.937822  0  0  0.125958  0  0.991636  0  0  0.129599  0  0.988799  0  0  0.115123  0.123169  0  0.993994  0
H  H7  1  0.30213986  0.06553480  0.14651284  1  0  0.11532  0  0.937939  0  0  0.125964  0  0.991685  0  0  0.129608  0  0.988839  0  0  0.115134  0.123179  0  0.994038  0
H  H8  1  0.58368692  0.79014648  0.71761737  1  0  0.116857  0  0.990803  0  0  0.117435  0  1.064702  0  0  0.122405  0  1.061197  0  0  0.106626  0.113871  0  1.067461  0
H  H9  1  0.41631495  0.20985658  0.28238037  1  0  0.116849  0  0.990788  0  0  0.117424  0  1.064682  0  0  0.122394  0  1.061177  0  0  0.106603  0.113863  0  1.06744  0
H  H10  1  0.26267998  0.44894454  0.64421146  1  0  0.102808  0  0.941971  0  0  0.117246  0  0.999737  0  0  0.119834  0  0.997011  0  0  0.117236  0.115076  0  1.001813  0
H  H11  1  0.73731818  0.55105255  0.35579505  1  0  0.102815  0  0.941968  0  0  0.117233  0  0.999753  0  0  0.119824  0  0.997023  0  0  0.117232  0.115062  0  1.001828  0
H  H12  1  0.19882448  0.57765499  0.26634699  1  0  0.108292  0  0.965441  0  0  0.117819  0  1.026709  0  0  0.1209  0  1.023914  0  0  0.111268  0.115588  0  1.028934  0
H  H13  1  0.80118976  0.42234900  0.73365426  1  0  0.108311  0  0.965515  0  0  0.11784  0  1.026765  0  0  0.120905  0  1.023985  0  0  0.111283  0.115607  0  1.028989  0
H  H14  1  0.74968415  0.10309314  0.04504508  1  0  0.116077  0  0.980746  0  0  0.133243  0  1.047081  0  0  0.13408  0  1.049512  0  0  0.085827  0.132674  0  1.045337  0
H  H15  1  0.25034010  0.89689138  0.95496377  1  0  0.116005  0  0.980428  0  0  0.133221  0  1.046734  0  0  0.134062  0  1.049158  0  0  0.085808  0.132654  0  1.044992  0
H  H16  1  0.82176660  0.27536064  0.04144867  1  0  0.129114  0  0.933255  0  0  0.148818  0  0.987718  0  0  0.151234  0  0.986732  0  0  0.09147  0.147009  0  0.98859  0
H  H17  1  0.17823875  0.72462417  0.95856459  1  0  0.129227  0  0.933234  0  0  0.148935  0  0.987687  0  0  0.151347  0  0.986706  0  0  0.09154  0.147131  0  0.98855  0
H  H18  1  0.96384447  0.13001939  0.05974902  1  0  0.156084  0  0.940882  0  0  0.173538  0  1.000815  0  0  0.177228  0  0.998736  0  0  0.099963  0.170926  0  1.002264  0
H  H19  1  0.03617013  0.86997034  0.94025796  1  0  0.156263  0  0.94067  0  0  0.173714  0  1.000587  0  0  0.177409  0  0.9985  0  0  0.100032  0.171096  0  1.002043  0
H  H20  1  0.47539839  0.69059121  0.57357256  1  0  0.317114  0  0.894105  0  0  0.297045  0  0.957894  0  0  0.30448  0  0.953274  0  0  0.324621  0.291889  0  0.961027  0
H  H21  1  0.52461422  0.30942092  0.42642376  1  0  0.31714  0  0.894134  0  0  0.29708  0  0.957882  0  0  0.304513  0  0.953264  0  0  0.324723  0.291921  0  0.961024  0
C  C22  1  0.41133844  0.16292768  0.75974867  1  0  0.137663  0  3.705755  0  0  0.105989  0  3.964817  0  0  0.112649  0  3.981879  0  0  0.052191  0.10177  0  3.952813  0
C  C23  1  0.58864874  0.83707259  0.24025645  1  0  0.137748  0  3.705301  0  0  0.106041  0  3.964355  0  0  0.112697  0  3.981417  0  0  0.05215  0.101833  0  3.952338  0
C  C24  1  0.53353244  0.11082291  0.82430826  1  0  -0.110298  0  3.710218  0  0  -0.128306  0  3.967966  0  0  -0.133809  0  3.988575  0  0  -0.077224  -0.125024  0  3.954172  0
C  C25  1  0.46646785  0.88918214  0.17568412  1  0  -0.110366  0  3.709699  0  0  -0.12841  0  3.967503  0  0  -0.133898  0  3.988096  0  0  -0.077201  -0.125127  0  3.953707  0
C  C26  1  0.59692922  0.97564241  0.80829713  1  0  0.012771  0  3.690791  0  0  -0.006416  0  3.943734  0  0  -0.002792  0  3.959983  0  0  -0.059312  -0.008561  0  3.932877  0
C  C27  1  0.40307781  0.02437282  0.19169653  1  0  0.012926  0  3.690759  0  0  -0.006282  0  3.943667  0  0  -0.002658  0  3.959913  0  0  -0.059297  -0.008428  0  3.932813  0
C  C28  1  0.53343218  0.89581376  0.73107708  1  0  -0.135546  0  3.674787  0  0  -0.155376  0  3.925682  0  0  -0.160902  0  3.943388  0  0  -0.077751  -0.152096  0  3.914397  0
C  C29  1  0.46656642  0.10419632  0.26890787  1  0  -0.135608  0  3.675016  0  0  -0.155456  0  3.925892  0  0  -0.160983  0  3.943601  0  0  -0.077754  -0.152176  0  3.91461  0
C  C30  1  0.40831857  0.95578603  0.67168721  1  0  0.14641  0  3.808036  0  0  0.145952  0  4.052968  0  0  0.150697  0  4.072682  0  0  0.119768  0.142787  0  4.040066  0
C  C31  1  0.59167376  0.04422023  0.32831158  1  0  0.14644  0  3.808071  0  0  0.145977  0  4.052888  0  0  0.150723  0  4.0726  0  0  0.119794  0.142812  0  4.039988  0
C  C32  1  0.32501296  0.87928531  0.59540195  1  0  0.295821  0  3.7482  0  0  0.260286  0  4.013879  0  0  0.274256  0  4.027126  0  0  0.233244  0.250916  0  4.005456  0
C  C33  1  0.67498200  0.12072191  0.40459428  1  0  0.295628  0  3.748501  0  0  0.260166  0  4.014036  0  0  0.274138  0  4.027283  0  0  0.233176  0.250796  0  4.005614  0
C  C34  1  0.24680573  0.71098949  0.50207242  1  0  0.378708  0  3.742683  0  0  0.339461  0  4.011273  0  0  0.357869  0  4.024436  0  0  0.242884  0.328015  0  4.001222  0
C  C35  1  0.75320003  0.28900934  0.49791919  1  0  0.378509  0  3.742811  0  0  0.339335  0  4.011334  0  0  0.35774  0  4.024502  0  0  0.242818  0.32789  0  4.001284  0
C  C36  1  0.24084734  0.57400726  0.46531826  1  0  -0.160684  0  3.895694  0  0  -0.141762  0  4.155889  0  0  -0.154077  0  4.182791  0  0  -0.050683  -0.133902  0  4.137162  0
C  C37  1  0.75914796  0.42599187  0.53468505  1  0  -0.16072  0  3.895609  0  0  -0.141849  0  4.155821  0  0  -0.154162  0  4.182723  0  0  -0.050727  -0.133989  0  4.137094  0
C  C38  1  0.25640447  0.45663041  0.54466885  1  0  0.006289  0  3.751117  0  0  -0.04659  0  4.022413  0  0  -0.038001  0  4.039531  0  0  -0.001152  -0.050452  0  4.009  0
C  C39  1  0.74359350  0.54336557  0.45533224  1  0  0.006403  0  3.750982  0  0  -0.046443  0  4.022255  0  0  -0.037854  0  4.039369  0  0  -0.001123  -0.050302  0  4.00884  0
C  C40  1  0.21913930  0.52160814  0.35208242  1  0  0.013853  0  3.739187  0  0  -0.02436  0  4.011306  0  0  -0.018708  0  4.027297  0  0  0.003297  -0.028865  0  4.001563  0
C  C41  1  0.78086166  0.47838688  0.64792547  1  0  0.013821  0  3.739173  0  0  -0.024377  0  4.011287  0  0  -0.01871  0  4.027279  0  0  0.003273  -0.028882  0  4.001543  0
C  C42  1  0.94451604  0.16973573  0.86576891  1  0  0.714996  0  3.880079  0  0  0.6776  0  4.169757  0  0  0.710826  0  4.164957  0  0  0.183524  0.655053  0  4.171983  0
C  C43  1  0.05548352  0.83026546  0.13423972  1  0  0.714957  0  3.880053  0  0  0.677625  0  4.169636  0  0  0.710852  0  4.164837  0  0  0.183518  0.655077  0  4.171862  0
C  C44  1  0.86418244  0.17152211  0.01163044  1  0  -0.454191  0  3.671227  0  0  -0.525267  0  3.900515  0  0  -0.53297  0  3.903706  0  0  -0.254364  -0.51967  0  3.897879  0
C  C45  1  0.13581727  0.82846475  0.98837841  1  0  -0.454442  0  3.670806  0  0  -0.525574  0  3.90009  0  0  -0.533283  0  3.90327  0  0  -0.254463  -0.519978  0  3.897462  0
N  N46  1  0.35122428  0.08765287  0.68402144  1  0  -0.344038  0  3.228426  0  0  -0.28247  0  3.492132  0  0  -0.298739  0  3.510254  0  0  -0.321721  -0.270824  0  3.479194  0
N  N47  1  0.64876045  0.91234650  0.31599081  1  0  -0.344095  0  3.228115  0  0  -0.28249  0  3.491797  0  0  -0.298759  0  3.509917  0  0  -0.321666  -0.270843  0  3.478855  0
N  N48  1  0.19594462  0.92742021  0.54513615  1  0  -0.269968  0  3.079109  0  0  -0.216213  0  3.35557  0  0  -0.230522  0  3.371927  0  0  -0.224329  -0.207997  0  3.345066  0
N  N49  1  0.80404759  0.07257572  0.45485610  1  0  -0.269895  0  3.078854  0  0  -0.216151  0  3.355287  0  0  -0.230462  0  3.371641  0  0  -0.224296  -0.207931  0  3.344785  0
N  N50  1  0.14619084  0.82281026  0.48692665  1  0  -0.289218  0  3.05399  0  0  -0.228232  0  3.336574  0  0  -0.24606  0  3.352093  0  0  -0.22618  -0.216528  0  3.325708  0
N  N51  1  0.85381211  0.17718754  0.51306200  1  0  -0.289104  0  3.054113  0  0  -0.228185  0  3.336717  0  0  -0.246015  0  3.352238  0  0  -0.226144  -0.216473  0  3.325828  0
N  N52  1  0.35988996  0.74501399  0.57007199  1  0  -0.380127  0  3.340802  0  0  -0.316655  0  3.56589  0  0  -0.335102  0  3.575829  0  0  -0.358847  -0.304735  0  3.558945  0
N  N53  1  0.64010886  0.25499207  0.42991787  1  0  -0.379983  0  3.340873  0  0  -0.316525  0  3.565859  0  0  -0.334969  0  3.575796  0  0  -0.358893  -0.304606  0  3.558912  0
N  N54  1  0.22353950  0.38475122  0.36238354  1  0  -0.256579  0  2.9864  0  0  -0.237741  0  3.263622  0  0  -0.244918  0  3.280426  0  0  -0.268948  -0.232852  0  3.252723  0
N  N55  1  0.77645036  0.61524077  0.63761793  1  0  -0.256523  0  2.98657  0  0  -0.237687  0  3.263801  0  0  -0.244862  0  3.280597  0  0  -0.268906  -0.2328  0  3.252901  0
N  N56  1  0.24524362  0.34437377  0.48246311  1  0  -0.342065  0  3.291927  0  0  -0.258688  0  3.578963  0  0  -0.279577  0  3.600442  0  0  -0.293856  -0.245598  0  3.563685  0
N  N57  1  0.75474626  0.65562131  0.51753995  1  0  -0.342186  0  3.29206  0  0  -0.258819  0  3.579119  0  0  -0.279703  0  3.600578  0  0  -0.293895  -0.245725  0  3.563836  0
O  O58  1  0.95263017  0.05608477  0.81325394  1  0  -0.661232  0  1.951836  0  0  -0.597656  0  2.18461  0  0  -0.627304  0  2.177591  0  0  -0.340817  -0.576972  0  2.188894  0
O  O59  1  0.04737052  0.94391735  0.18674878  1  0  -0.661162  0  1.951781  0  0  -0.597634  0  2.184562  0  0  -0.627283  0  2.177539  0  0  -0.340825  -0.576962  0  2.188874  0
O  O60  1  0.00243314  0.28013117  0.79844892  1  0  -0.669018  0  1.912981  0  0  -0.607429  0  2.141063  0  0  -0.635525  0  2.131396  0  0  -0.349378  -0.587672  0  2.147208  0
O  O61  1  0.99755420  0.71987533  0.20156213  1  0  -0.668974  0  1.912877  0  0  -0.607404  0  2.140959  0  0  -0.635494  0  2.131272  0  0  -0.349383  -0.587643  0  2.147103  0
