# generated using pymatgen
data_NiH14C14(NO)8
_symmetry_space_group_name_H-M   'P 1'
_cell_length_a   7.11055131
_cell_length_b   8.46201527
_cell_length_c   13.84808223
_cell_angle_alpha   90.00063815
_cell_angle_beta   97.60624194
_cell_angle_gamma   90.00033149
_symmetry_Int_Tables_number   1
_chemical_formula_structural   NiH14C14(NO)8
_chemical_formula_sum   'Ni2 H28 C28 N16 O16'
_cell_volume   825.90196530
_cell_formula_units_Z   2
loop_
 _symmetry_equiv_pos_site_id
 _symmetry_equiv_pos_as_xyz
  1  'x, y, z'
loop_
 _atom_site_type_symbol
 _atom_site_label
 _atom_site_symmetry_multiplicity
 _atom_site_fract_x
 _atom_site_fract_y
 _atom_site_fract_z
 _atom_site_occupancy
 _atom_site_hle17_ddec_charge
 _atom_site_hle17_ddec_spin_density
 _atom_site_hle17_ddec_sum_bond_order
 _atom_site_hle17_magmom
 _atom_site_hse06_10hf_ddec_charge
 _atom_site_hse06_10hf_ddec_spin_density
 _atom_site_hse06_10hf_ddec_sum_bond_order
 _atom_site_hse06_10hf_magmom
 _atom_site_hse06_ddec_charge
 _atom_site_hse06_ddec_spin_density
 _atom_site_hse06_ddec_sum_bond_order
 _atom_site_hse06_magmom
 _atom_site_pbe_cm5_charge
 _atom_site_pbe_ddec_charge
 _atom_site_pbe_ddec_spin_density
 _atom_site_pbe_ddec_sum_bond_order
 _atom_site_pbe_magmom
Ni  Ni0  1  0.99999969  0.00000099  0.99999994  1  0.884879  -1.764698  1.872112  -1.528  0.888014  -1.829112  2.257512  -1.653  0.979144  -1.879653  2.187136  -1.736  0.619676  0.816357  -1.78161  2.314135  -1.578
Ni  Ni1  1  0.50000117  0.50000136  0.49999889  1  0.884794  -1.764695  1.872117  -1.528  0.888057  -1.82912  2.257335  -1.653  0.979076  -1.879653  2.187115  -1.736  0.619682  0.816354  -1.781612  2.313997  -1.578
H  H2  1  0.37904495  0.45847850  0.18102913  1  0.33952  -0.000163  0.914352  0.0  0.314939  -0.00016  0.980718  0.0  0.324895  -0.000126  0.972275  0.0  0.31389  0.307863  -0.000193  0.986814  0.0
H  H3  1  0.12096025  0.95847819  0.31897821  1  0.339399  -0.000163  0.914447  0.0  0.31499  -0.00016  0.980558  0.0  0.324951  -0.000126  0.972102  0.0  0.313874  0.307911  -0.000193  0.986657  0.0
H  H4  1  0.62096591  0.54151950  0.81896987  1  0.339553  -0.000162  0.914348  0.0  0.315033  -0.00016  0.980605  0.0  0.324989  -0.000126  0.972163  0.0  0.31393  0.307956  -0.000193  0.986703  0.0
H  H5  1  0.87903363  0.04152453  0.68102122  1  0.339327  -0.000163  0.914461  0.0  0.314914  -0.00016  0.980581  0.0  0.324869  -0.000125  0.972134  0.0  0.313844  0.307837  -0.000193  0.986679  0.0
H  H6  1  0.20357227  0.18664213  0.18501476  1  0.111958  -0.00016  0.952183  -0.001  0.116864  -0.000148  1.017501  0.0  0.120497  -8.7e-05  1.012752  0.0  0.13946  0.113956  -0.000216  1.021343  0.0
H  H7  1  0.29642055  0.68664501  0.31498492  1  0.111915  -0.000158  0.952319  -0.001  0.116797  -0.000148  1.017647  0.0  0.120456  -8.7e-05  1.012862  0.0  0.139442  0.113889  -0.000216  1.021487  0.0
H  H8  1  0.79643572  0.81335350  0.81498263  1  0.111926  -0.000155  0.952249  -0.001  0.116807  -0.000148  1.017582  0.0  0.120469  -8.7e-05  1.012793  0.0  0.139437  0.113898  -0.000216  1.021423  0.0
H  H9  1  0.70357052  0.31335653  0.68501507  1  0.111929  -0.000154  0.952265  -0.001  0.116811  -0.000148  1.017594  0.0  0.120468  -8.7e-05  1.012819  0.0  0.139451  0.113904  -0.000216  1.021435  0.0
H  H10  1  0.32126592  0.73501569  0.87308005  1  0.087702  0.000155  0.934403  0.0  0.098711  9.1e-05  0.994923  0.0  0.101007  7.5e-05  0.991819  0.0  0.140778  0.097064  9e-05  0.996757  0.0
H  H11  1  0.17874230  0.23501518  0.62692764  1  0.087668  0.000164  0.934377  0.0  0.098681  9.1e-05  0.99489  0.0  0.100981  7.4e-05  0.991785  0.0  0.140761  0.097045  9e-05  0.996712  0.0
H  H12  1  0.67873368  0.26498231  0.12692117  1  0.087672  0.000162  0.934419  0.0  0.098681  9.1e-05  0.99493  0.0  0.100977  7.4e-05  0.991825  0.0  0.140792  0.097034  9e-05  0.996763  0.0
H  H13  1  0.82125440  0.76498519  0.37307124  1  0.087699  0.000157  0.934404  0.0  0.098722  9.1e-05  0.994908  0.0  0.101022  7.4e-05  0.991804  0.0  0.140771  0.09709  9e-05  0.996732  0.0
H  H14  1  0.14454689  0.68651129  0.72785623  1  0.123139  0.000237  0.937918  0.0  0.133394  9e-06  1.002615  0.0  0.13587  5e-06  1.001038  0.0  0.119044  0.131357  1.6e-05  1.004066  0.0
H  H15  1  0.35545935  0.18650250  0.77214594  1  0.123203  0.00023  0.937845  0.0  0.133357  9e-06  1.002655  0.0  0.135831  5e-06  1.001076  0.0  0.119034  0.131307  1.7e-05  1.004121  0.0
H  H16  1  0.85545397  0.31349144  0.27214001  1  0.123177  0.000218  0.937839  0.0  0.133358  9e-06  1.002665  0.0  0.135835  6e-06  1.001086  0.0  0.119017  0.131314  1.6e-05  1.004126  0.0
H  H17  1  0.64453316  0.81349787  0.22785485  1  0.123256  0.000216  0.937842  0.0  0.133368  9e-06  1.002704  0.0  0.135841  6e-06  1.001127  0.0  0.119038  0.131317  1.7e-05  1.004171  0.0
H  H18  1  0.02001454  0.50759120  0.70336910  1  0.131977  0.000361  0.931102  0.0  0.141393  -9.1e-05  0.99445  0.0  0.145538  -4.9e-05  0.990062  0.0  0.120449  0.138111  -0.000136  0.998136  0.0
H  H19  1  0.47999173  0.00758821  0.79663618  1  0.131875  0.000351  0.931134  0.0  0.141296  -9.1e-05  0.994477  0.0  0.145439  -4.9e-05  0.990087  0.0  0.120404  0.138013  -0.000136  0.998158  0.0
H  H20  1  0.97999349  0.49240562  0.29662974  1  0.131925  0.00034  0.93108  0.0  0.14137  -9.1e-05  0.994435  0.0  0.145515  -4.9e-05  0.990046  0.0  0.120427  0.138087  -0.000136  0.998123  0.0
H  H21  1  0.52000638  0.99241216  0.20336278  1  0.131843  0.000333  0.931175  0.0  0.141273  -9.1e-05  0.994518  0.0  0.145416  -4.9e-05  0.990127  0.0  0.120395  0.13799  -0.000136  0.998197  0.0
H  H22  1  0.13896440  0.82813297  0.14091256  1  0.403675  0.001015  0.908049  0.001  0.373734  0.000325  0.97527  0.0  0.38504  0.000426  0.959288  0.0  0.288507  0.365828  0.00019  0.986267  0.0
H  H23  1  0.36103109  0.32813169  0.35908969  1  0.40369  0.001016  0.908086  0.001  0.373646  0.000325  0.975416  0.0  0.384967  0.000426  0.959426  0.0  0.288458  0.36574  0.00019  0.986413  0.0
H  H24  1  0.86103377  0.17186621  0.85908785  1  0.403721  0.001017  0.907993  0.001  0.373673  0.000325  0.975364  0.0  0.384993  0.000426  0.959375  0.0  0.288484  0.365769  0.00019  0.98636  0.0
H  H25  1  0.63896429  0.67187340  0.64091200  1  0.403659  0.001016  0.908027  0.001  0.373735  0.000325  0.975272  0.0  0.385035  0.000426  0.959289  0.0  0.288511  0.365831  0.00019  0.986267  0.0
H  H26  1  0.28429024  0.81846356  0.06564220  1  0.406141  0.00075  0.863883  0.001  0.378502  -2e-05  0.943581  0.0  0.389446  0.000134  0.931162  0.0  0.297233  0.370855  -3.6e-05  0.95169  0.0
H  H27  1  0.21571369  0.31845937  0.43436122  1  0.406077  0.000752  0.863914  0.001  0.37844  -1.9e-05  0.943607  0.0  0.389388  0.000134  0.931226  0.0  0.297211  0.370796  -3.6e-05  0.951716  0.0
H  H28  1  0.71570934  0.18153798  0.93435830  1  0.406106  0.000753  0.863917  0.001  0.378467  -2e-05  0.943605  0.0  0.389411  0.000134  0.931207  0.0  0.297214  0.370819  -3.6e-05  0.951716  0.0
H  H29  1  0.78428452  0.68154454  0.56564064  1  0.406046  0.000751  0.863962  0.001  0.378415  -2e-05  0.943653  0.0  0.389358  0.000134  0.931274  0.0  0.297209  0.370772  -3.6e-05  0.951763  0.0
C  C30  1  0.20385138  0.26153034  0.12155037  1  0.280618  0.013045  3.575876  0.008  0.216991  0.005135  3.861925  0.003  0.234744  0.005423  3.870653  0.003  0.166844  0.204855  0.004998  3.855824  0.002
C  C31  1  0.29615207  0.76152610  0.37845262  1  0.280524  0.013047  3.576026  0.008  0.216892  0.005137  3.862151  0.003  0.234634  0.005425  3.870856  0.003  0.166756  0.204756  0.004999  3.856042  0.002
C  C32  1  0.79615529  0.73847121  0.87845055  1  0.280585  0.012957  3.575902  0.007  0.216973  0.005136  3.861974  0.003  0.23471  0.005428  3.870688  0.003  0.166812  0.204836  0.004999  3.855875  0.002
C  C33  1  0.70384749  0.23847545  0.62154715  1  0.280537  0.012936  3.576006  0.007  0.216909  0.005136  3.862124  0.003  0.234645  0.005425  3.87083  0.003  0.166739  0.204769  0.004998  3.856018  0.002
C  C34  1  0.25882774  0.46500364  0.03063419  1  0.327708  -0.001021  3.840202  -0.002  0.289123  -0.00091  4.117581  -0.001  0.303909  -0.000593  4.134349  -0.001  0.215039  0.278338  -0.001195  4.107225  -0.002
C  C35  1  0.24117316  0.96500195  0.46936933  1  0.327722  -0.001033  3.840481  -0.002  0.28916  -0.000909  4.117776  -0.001  0.303944  -0.000591  4.134542  -0.001  0.215027  0.278384  -0.001196  4.107434  -0.002
C  C36  1  0.74117182  0.53499790  0.96936559  1  0.327753  -0.001026  3.840326  -0.002  0.289144  -0.000908  4.117668  -0.001  0.303928  -0.000591  4.134439  -0.001  0.215033  0.278347  -0.001195  4.107322  -0.002
C  C37  1  0.75882780  0.03499959  0.53062980  1  0.327727  -0.001035  3.840473  -0.002  0.28915  -0.000909  4.117764  -0.001  0.303939  -0.000591  4.13453  -0.001  0.214994  0.278366  -0.001195  4.107418  -0.002
C  C38  1  0.15148364  0.35091264  0.97398805  1  -0.071782  -2.5e-05  3.788559  -0.001  -0.068198  -0.000637  4.048973  -0.001  -0.075451  -0.000275  4.072464  0.0  0.075089  -0.064262  -0.000764  4.03299  -0.001
C  C39  1  0.34851409  0.85091053  0.52601547  1  -0.071824  -1.4e-05  3.788688  -0.001  -0.068112  -0.000636  4.048886  -0.001  -0.075358  -0.000276  4.072365  0.0  0.075105  -0.06422  -0.000764  4.032967  -0.001
C  C40  1  0.84851455  0.64908418  0.02601308  1  -0.071822  -2.8e-05  3.788624  -0.001  -0.068125  -0.000638  4.048867  -0.001  -0.075379  -0.000276  4.072359  0.0  0.075121  -0.064186  -0.000764  4.032887  -0.001
C  C41  1  0.65148691  0.14908865  0.47398511  1  -0.071856  -2.3e-05  3.788739  -0.001  -0.06812  -0.000636  4.048893  -0.001  -0.075376  -0.000271  4.072376  0.0  0.075093  -0.064213  -0.000764  4.032949  -0.001
C  C42  1  0.10008573  0.37979123  0.87240082  1  0.472203  -0.000662  3.822731  -0.001  0.419167  -0.000409  4.11153  -0.001  0.44734  -0.000293  4.114811  -0.001  0.232027  0.400901  -0.000597  4.107948  -0.001
C  C43  1  0.39990932  0.87979005  0.62759985  1  0.472059  -0.000665  3.82289  -0.001  0.419044  -0.000409  4.111698  -0.001  0.447215  -0.000294  4.114982  -0.001  0.23199  0.400794  -0.000598  4.108123  -0.001
C  C44  1  0.89991379  0.62020441  0.12759751  1  0.472195  -0.000664  3.822682  -0.001  0.419132  -0.000409  4.111464  -0.001  0.447304  -0.000293  4.114743  -0.001  0.232005  0.400867  -0.000597  4.107881  -0.001
C  C45  1  0.60009751  0.12020086  0.37240613  1  0.472054  -0.000676  3.822873  -0.001  0.419022  -0.000409  4.111614  -0.001  0.4472  -0.000292  4.114894  -0.001  0.232002  0.400765  -0.000597  4.108031  -0.001
C  C46  1  0.27621384  0.62668943  0.90542506  1  0.277977  -0.000244  3.66913  0.0  0.207664  -0.000238  3.960878  0.0  0.228128  -0.000143  3.967536  0.0  0.185098  0.194899  -0.000354  3.955516  -0.001
C  C47  1  0.22379626  0.12669092  0.59458055  1  0.278006  -0.000274  3.668962  0.0  0.207746  -0.000238  3.960739  0.0  0.228206  -0.000142  3.967399  0.0  0.185112  0.194974  -0.000354  3.955375  -0.001
C  C48  1  0.72378858  0.37330621  0.09457561  1  0.277993  -0.000246  3.669091  0.0  0.207697  -0.000239  3.960785  0.0  0.228159  -0.000143  3.967438  0.0  0.185095  0.194933  -0.000354  3.955425  -0.001
C  C49  1  0.77620899  0.87330944  0.40542029  1  0.277908  -0.000244  3.669009  0.0  0.2076  -0.000238  3.960833  0.0  0.228062  -0.000143  3.967493  0.0  0.185059  0.194825  -0.000354  3.955478  -0.001
C  C50  1  0.15369871  0.55805147  0.73824563  1  -0.170732  -0.005695  3.603767  -0.007  -0.236423  -0.003141  3.861248  -0.004  -0.236009  -0.002087  3.864591  -0.003  -0.067482  -0.236255  -0.004237  3.859475  -0.005
C  C51  1  0.34630655  0.05804598  0.76175921  1  -0.17057  -0.005684  3.603605  -0.007  -0.236147  -0.00314  3.861161  -0.004  -0.235719  -0.002085  3.864483  -0.003  -0.067345  -0.235976  -0.004236  3.859389  -0.005
C  C52  1  0.84630508  0.44194890  0.26175367  1  -0.170607  -0.005655  3.603609  -0.007  -0.236322  -0.003141  3.861242  -0.004  -0.235916  -0.002086  3.864593  -0.003  -0.067393  -0.236154  -0.004238  3.859472  -0.005
C  C53  1  0.65368873  0.94195320  0.23823958  1  -0.170576  -0.005651  3.603637  -0.007  -0.23611  -0.00314  3.861247  -0.004  -0.235682  -0.002086  3.864569  -0.003  -0.067347  -0.235934  -0.004237  3.859474  -0.005
C  C54  1  0.32122639  0.49416478  0.68972326  1  0.674119  0.005689  3.877193  0.005  0.627224  0.000771  4.199845  0.001  0.661773  0.000837  4.193009  0.0  0.206887  0.603142  0.000664  4.202607  0.001
C  C55  1  0.17877094  0.99416579  0.81027472  1  0.674287  0.005698  3.877115  0.005  0.627303  0.00077  4.199912  0.001  0.661854  0.000834  4.193072  0.0  0.206918  0.603223  0.000663  4.202675  0.001
C  C56  1  0.67877893  0.50583440  0.31027974  1  0.674179  0.005661  3.877084  0.005  0.627164  0.000772  4.19998  0.001  0.661713  0.000838  4.19314  0.0  0.206872  0.603082  0.000664  4.202744  0.001
C  C57  1  0.82122142  0.00583457  0.18972101  1  0.674381  0.005689  3.877027  0.005  0.627247  0.000771  4.200064  0.001  0.661799  0.000834  4.193223  0.0  0.206913  0.603165  0.000664  4.202826  0.001
N  N58  1  0.11711259  0.22462558  0.03334363  1  -0.354514  -0.041693  3.216124  -0.067  -0.324355  -0.027726  3.518889  -0.045  -0.352042  -0.021763  3.538729  -0.038  -0.334906  -0.303725  -0.032844  3.50459  -0.051
N  N59  1  0.38288634  0.72462456  0.46666028  1  -0.354412  -0.041697  3.216074  -0.067  -0.324288  -0.027727  3.518754  -0.045  -0.351959  -0.021764  3.5386  -0.038  -0.334858  -0.303635  -0.032844  3.504462  -0.051
N  N60  1  0.88288843  0.77537360  0.96665767  1  -0.354429  -0.041665  3.215925  -0.067  -0.324289  -0.027726  3.518622  -0.045  -0.35198  -0.021764  3.538473  -0.038  -0.334884  -0.303658  -0.032844  3.504323  -0.051
N  N61  1  0.61711469  0.27537817  0.53334102  1  -0.354431  -0.041657  3.216015  -0.067  -0.324322  -0.027726  3.518693  -0.045  -0.351985  -0.021764  3.538534  -0.038  -0.334891  -0.303674  -0.032844  3.504396  -0.051
N  N62  1  0.28941931  0.40609543  0.12338468  1  -0.363921  -0.000625  3.326559  -0.002  -0.297416  -0.000471  3.565832  -0.001  -0.31617  -0.000281  3.574201  -0.001  -0.366628  -0.284725  -0.000749  3.560583  -0.001
N  N63  1  0.21058822  0.90609190  0.37662028  1  -0.363747  -0.000623  3.326727  -0.002  -0.297383  -0.000472  3.565878  -0.001  -0.316139  -0.000282  3.574247  -0.001  -0.366528  -0.284681  -0.000749  3.560621  -0.001
N  N64  1  0.71059020  0.59390376  0.87661642  1  -0.364  -0.000621  3.326602  -0.002  -0.297555  -0.000472  3.565863  -0.001  -0.3163  -0.000283  3.574207  -0.001  -0.366673  -0.284857  -0.000749  3.560618  -0.001
N  N65  1  0.78940850  0.09391083  0.62337932  1  -0.363695  -0.000614  3.326749  -0.002  -0.297324  -0.000472  3.565913  -0.001  -0.316079  -0.000282  3.574287  -0.001  -0.366476  -0.284625  -0.000749  3.560657  -0.001
N  N66  1  0.31914004  0.60573676  0.99967855  1  -0.40934  -0.000751  3.076033  -0.001  -0.372098  -0.000433  3.360389  -0.001  -0.388263  -0.000167  3.368579  0.0  -0.321794  -0.361323  -0.001019  3.354924  -0.001
N  N67  1  0.18086560  0.10573868  0.50032592  1  -0.409429  -0.000736  3.076012  -0.001  -0.372201  -0.000432  3.360316  -0.001  -0.388369  -0.000165  3.368513  0.0  -0.321805  -0.361424  -0.001019  3.354858  -0.001
N  N68  1  0.68086098  0.39426243  0.00032275  1  -0.409333  -0.000757  3.075949  -0.001  -0.372102  -0.000432  3.360302  -0.001  -0.388267  -0.000162  3.368495  0.0  -0.321775  -0.361323  -0.001019  3.35484  -0.001
N  N69  1  0.81913396  0.89426405  0.49967385  1  -0.40931  -0.00075  3.076062  -0.001  -0.372075  -0.000432  3.360388  -0.001  -0.388241  -0.000166  3.368583  0.0  -0.321743  -0.361296  -0.001019  3.354934  -0.001
N  N70  1  0.17500953  0.52419174  0.84273359  1  -0.164515  -4.2e-05  3.457657  0.0  -0.076079  -1e-05  3.687879  0.0  -0.096989  0.000133  3.709692  0.0  -0.233623  -0.062919  -0.000194  3.672879  0.0
N  N71  1  0.32499540  0.02419252  0.65726956  1  -0.164474  -3.6e-05  3.457655  0.0  -0.076156  -1.2e-05  3.688007  0.0  -0.09707  0.000131  3.70982  0.0  -0.233641  -0.062994  -0.000193  3.673  0.0
N  N72  1  0.82499287  0.47580508  0.15726635  1  -0.164559  -5e-05  3.45766  0.0  -0.076077  -1.1e-05  3.687896  0.0  -0.096975  0.000132  3.709683  0.0  -0.233657  -0.062918  -0.000194  3.672894  0.0
N  N73  1  0.67500414  0.97580666  0.34272949  1  -0.164412  -4.9e-05  3.457707  0.0  -0.076056  -9e-06  3.687997  0.0  -0.096973  0.000141  3.709815  0.0  -0.233585  -0.062895  -0.000193  3.672994  0.0
O  O74  1  0.00110665  0.29631975  0.81033057  1  -0.550562  -0.000365  2.021555  -0.001  -0.494057  -0.000144  2.244715  -0.001  -0.517786  -6.6e-05  2.239631  0.0  -0.286799  -0.477848  -0.000204  2.247225  -0.001
O  O75  1  0.49888627  0.79631784  0.68966939  1  -0.550363  -0.000363  2.021469  -0.001  -0.494002  -0.000144  2.24472  -0.001  -0.517724  -6.7e-05  2.239627  0.0  -0.286775  -0.477793  -0.000204  2.247227  -0.001
O  O76  1  0.99888867  0.70368061  0.18966967  1  -0.550491  -0.000357  2.021392  -0.001  -0.494031  -0.000145  2.244524  -0.001  -0.517756  -6.9e-05  2.239434  0.0  -0.28677  -0.477821  -0.000204  2.247034  -0.001
O  O77  1  0.50111187  0.20368016  0.31033029  1  -0.550541  -0.00035  2.0212  -0.001  -0.494051  -0.000146  2.244347  -0.001  -0.517781  -7.6e-05  2.239263  0.0  -0.286805  -0.477842  -0.000203  2.246852  -0.001
O  O78  1  0.46710387  0.44363275  0.74275229  1  -0.631901  -0.000101  1.985333  -0.002  -0.584091  0.000208  2.218103  -0.001  -0.608145  0.00049  2.209059  0.0  -0.32445  -0.567016  -0.00029  2.223663  -0.001
O  O79  1  0.03289593  0.94363442  0.75724766  1  -0.631908  -0.0001  1.985324  -0.002  -0.584143  0.000209  2.218164  -0.001  -0.608197  0.00049  2.209117  0.0  -0.324475  -0.567072  -0.00029  2.22373  -0.001
O  O80  1  0.53289706  0.55636761  0.25724612  1  -0.631928  -9.5e-05  1.985188  -0.002  -0.584049  0.000208  2.218053  -0.001  -0.608099  0.000487  2.209005  0.0  -0.32442  -0.566973  -0.000291  2.223613  -0.001
O  O81  1  0.96709937  0.05636121  0.24275186  1  -0.631958  -9.9e-05  1.985369  -0.002  -0.584104  0.000209  2.218242  -0.001  -0.608164  0.000491  2.209198  0.0  -0.324426  -0.567029  -0.00029  2.223804  -0.001
O  O82  1  0.29285550  0.49803410  0.59726848  1  -0.596852  -0.046341  2.034198  -0.08  -0.571085  -0.028064  2.301766  -0.05  -0.608956  -0.020032  2.294404  -0.038  -0.312875  -0.542029  -0.035681  2.304554  -0.06
O  O83  1  0.20714196  0.99802985  0.90273315  1  -0.596976  -0.046342  2.034136  -0.08  -0.571131  -0.028065  2.301729  -0.05  -0.609017  -0.020034  2.294349  -0.038  -0.312891  -0.54208  -0.035682  2.304514  -0.06
O  O84  1  0.70714548  0.50196862  0.40273138  1  -0.596856  -0.046329  2.034257  -0.08  -0.571065  -0.028061  2.301922  -0.05  -0.608938  -0.020031  2.294567  -0.038  -0.312895  -0.542013  -0.035676  2.304711  -0.06
O  O85  1  0.79285753  0.00196579  0.09726445  1  -0.597026  -0.046343  2.034112  -0.08  -0.571149  -0.028064  2.301808  -0.05  -0.609027  -0.020034  2.294415  -0.038  -0.31294  -0.5421  -0.03568  2.304593  -0.06
O  O86  1  0.21668445  0.89589445  0.10178744  1  -0.76513  -0.040981  1.933463  -0.069  -0.737956  -0.029381  2.147187  -0.05  -0.767993  -0.021735  2.117986  -0.039  -0.561652  -0.715285  -0.036445  2.16702  -0.058
O  O87  1  0.28331438  0.39588876  0.39821331  1  -0.765042  -0.040984  1.933544  -0.069  -0.737798  -0.029382  2.147308  -0.05  -0.767836  -0.021736  2.118112  -0.039  -0.561587  -0.715113  -0.036446  2.167126  -0.058
O  O88  1  0.78331372  0.10410710  0.89821297  1  -0.765123  -0.040982  1.933436  -0.069  -0.737866  -0.02938  2.147279  -0.05  -0.767923  -0.021735  2.118055  -0.039  -0.561619  -0.715187  -0.036445  2.167093  -0.058
O  O89  1  0.71668232  0.60411397  0.60178557  1  -0.765044  -0.040982  1.933533  -0.069  -0.737888  -0.029381  2.147185  -0.05  -0.767893  -0.021736  2.11806  -0.039  -0.56164  -0.715213  -0.036445  2.16702  -0.058
