# generated using pymatgen
data_Zn2H12C41N5(O7F3)2
_symmetry_space_group_name_H-M   'P 1'
_cell_length_a   13.24631082
_cell_length_b   13.87751292
_cell_length_c   28.53187581
_cell_angle_alpha   89.83951160
_cell_angle_beta   89.77879022
_cell_angle_gamma   89.84068292
_symmetry_Int_Tables_number   1
_chemical_formula_structural   Zn2H12C41N5(O7F3)2
_chemical_formula_sum   'Zn4 H24 C82 N10 O28 F12'
_cell_volume   5244.81652566
_cell_formula_units_Z   2
loop_
 _symmetry_equiv_pos_site_id
 _symmetry_equiv_pos_as_xyz
  1  'x, y, z'
loop_
 _atom_site_type_symbol
 _atom_site_label
 _atom_site_symmetry_multiplicity
 _atom_site_fract_x
 _atom_site_fract_y
 _atom_site_fract_z
 _atom_site_occupancy
 _atom_site_pbe_bader_charge
 _atom_site_pbe_bader_spin_density
 _atom_site_pbe_cm5_charge
 _atom_site_pbe_ddec_charge
 _atom_site_pbe_ddec_spin_density
 _atom_site_pbe_ddec_sum_bond_order
 _atom_site_pbe_magmom
Zn  Zn0  1  0.50947237  0.40291498  0.49661143  1  1.271276  0  0.670851  0.81875  0  2.408531  0
Zn  Zn1  1  0.48760071  0.60550491  0.50150631  1  1.268366  0  0.673257  0.820351  0  2.447095  0
Zn  Zn2  1  0.50962919  0.59771730  0.03726838  1  1.275928  0  0.670646  0.818829  0  2.407754  0
Zn  Zn3  1  0.48898571  0.39525573  0.03243882  1  1.30096  0  0.672939  0.819237  0  2.449005  0
H  H4  1  0.39949032  0.25814617  0.54729956  1  0.158888  0  0.131214  0.114324  0  0.98605  0
H  H5  1  0.62209874  0.24457819  0.44487910  1  0.150264  0  0.137254  0.119078  0  0.962246  0
H  H6  1  0.59975911  0.74977190  0.45055982  1  0.145872  0  0.131158  0.113735  0  0.986525  0
H  H7  1  0.37663959  0.76364586  0.55268766  1  0.150193  0  0.136758  0.118919  0  0.963821  0
H  H8  1  0.50690016  0.62455865  0.18961498  1  0.150091  0  0.114033  0.127874  0  1.025402  0
H  H9  1  0.49754510  0.31703066  0.17719275  1  0.171456  0  0.120224  0.135645  0  0.995111  0
H  H10  1  0.50712024  0.37482747  0.34425508  1  0.17603  0  0.114078  0.128656  0  1.024707  0
H  H11  1  0.49763889  0.68238637  0.35669103  1  0.135128  0  0.120467  0.136239  0  0.995068  0
H  H12  1  0.49876021  0.65378774  0.64752438  1  0.128343  0  0.106569  0.118381  0  1.010436  0
H  H13  1  0.49991079  0.34421940  0.64809971  1  0.152613  0  0.106989  0.118469  0  1.007382  0
H  H14  1  0.49731478  0.34570385  0.88638088  1  0.1275  0  0.106701  0.118544  0  1.010033  0
H  H15  1  0.50403533  0.65519766  0.88579425  1  0.108271  0  0.106939  0.118312  0  1.007056  0
H  H16  1  0.83432035  0.37354215  0.49984305  1  0.127322  0  0.11435  0.131272  0  1.021634  0
H  H17  1  0.80257082  0.68088178  0.49878307  1  0.140059  0  0.11998  0.135361  0  0.994401  0
H  H18  1  0.16334700  0.62606215  0.50178473  1  0.168709  0  0.113963  0.127749  0  1.025792  0
H  H19  1  0.19550397  0.31886629  0.49792836  1  0.151038  0  0.11982  0.134516  0  0.99563  0
H  H20  1  0.39979119  0.74328673  0.98685703  1  0.151844  0  0.131365  0.114247  0  0.985106  0
H  H21  1  0.62232064  0.75527656  0.08854178  1  0.122807  0  0.13674  0.118728  0  0.962315  0
H  H22  1  0.60090923  0.25023796  0.08297831  1  0.149246  0  0.131181  0.113733  0  0.986877  0
H  H23  1  0.37879187  0.23801432  0.98116257  1  0.126516  0  0.136542  0.119093  0  0.963928  0
H  H24  1  0.83440315  0.62812438  0.03445510  1  0.153888  0  0.114266  0.129174  0  1.024461  0
H  H25  1  0.80444369  0.32079555  0.03562461  1  0.117484  0  0.119955  0.135119  0  0.993828  0
H  H26  1  0.16503338  0.37569028  0.03311910  1  0.151443  0  0.11438  0.128554  0  1.026323  0
H  H27  1  0.19515981  0.68291495  0.03683373  1  0.130088  0  0.120176  0.135891  0  0.99402  0
C  C28  1  0.49809984  0.50036875  0.59064596  1  1.594148  0  0.217128  0.596497  0  4.161387  0
C  C29  1  0.30209346  0.48637856  0.49927791  1  1.557644  0  0.218951  0.592563  0  4.170973  0
C  C30  1  0.50013815  0.51739213  0.40760835  1  1.5743  0  0.218666  0.592779  0  4.172876  0
C  C31  1  0.69582744  0.51442457  0.49801121  1  1.584776  0  0.218883  0.594331  0  4.169345  0
C  C32  1  0.49935794  0.49921264  0.94324947  1  1.505059  0  0.217136  0.597142  0  4.162782  0
C  C33  1  0.30286547  0.51543134  0.03516683  1  1.60605  0  0.218639  0.593626  0  4.171632  0
C  C34  1  0.50020812  0.48200714  0.12627621  1  1.611773  0  0.21767  0.591667  0  4.173696  0
C  C35  1  0.69670101  0.48726001  0.03576362  1  1.600407  0  0.217883  0.591739  0  4.174064  0
C  C36  1  0.44600284  0.21125017  0.52556326  1  0.566573  0  0.065876  0.07187  0  3.848323  0
C  C37  1  0.43836018  0.11075102  0.52789985  1  -0.003063  0  0.001778  -0.039865  0  4.053338  0
C  C38  1  0.37024164  0.06155216  0.55863073  1  0.521369  0  0.10751  0.137279  0  4.068582  0
C  C39  1  0.57172811  0.20380952  0.46771495  1  0.563441  0  0.07195  0.074969  0  3.84194  0
C  C40  1  0.57013072  0.10272849  0.46737616  1  -0.008933  0  0.004448  -0.036634  0  4.041113  0
C  C41  1  0.63340001  0.04519651  0.43781128  1  0.636353  0  0.110125  0.13877  0  4.066471  0
C  C42  1  0.55313146  0.79681677  0.47218304  1  0.561175  0  0.066582  0.073186  0  3.846956  0
C  C43  1  0.56059290  0.89734406  0.46964907  1  0.011188  0  0.00166  -0.040919  0  4.052118  0
C  C44  1  0.62873490  0.94651842  0.43891572  1  0.508215  0  0.10943  0.139524  0  4.063825  0
C  C45  1  0.42714605  0.80443085  0.52991360  1  0.52522  0  0.069547  0.070407  0  3.850208  0
C  C46  1  0.42871646  0.90544818  0.53013296  1  0.054719  0  0.002935  -0.038352  0  4.04913  0
C  C47  1  0.36559749  0.96293957  0.55975367  1  0.580436  0  0.108292  0.136633  0  4.072344  0
C  C48  1  0.50178056  0.05489432  0.49815406  1  -0.002425  0  0.014892  0.033733  0  3.970704  0
C  C49  1  0.49695878  0.95324226  0.49929077  1  0.061863  0  0.015389  0.034901  0  3.969288  0
C  C50  1  0.50569833  0.55437041  0.20653210  1  0.028238  0  -0.065138  -0.112262  0  3.895939  0
C  C51  1  0.50130061  0.38061866  0.19929268  1  0.017464  0  -0.064853  -0.121767  0  3.938356  0
C  C52  1  0.50543391  0.37130170  0.24721138  1  0.18886  0  0.082959  0.028081  0  3.894911  0
C  C53  1  0.50784532  0.45258717  0.27785303  1  -0.034049  0  0.010236  0.044988  0  3.948622  0
C  C54  1  0.50586629  0.44501125  0.32733140  1  -0.011846  0  -0.065091  -0.113717  0  3.897639  0
C  C55  1  0.50144860  0.61878517  0.33457470  1  0.037168  0  -0.065277  -0.123497  0  3.940543  0
C  C56  1  0.50554188  0.62807581  0.28664160  1  0.099964  0  0.082796  0.028301  0  3.894803  0
C  C57  1  0.50782998  0.54676909  0.25599873  1  0.0118  0  0.010672  0.044722  0  3.946989  0
C  C58  1  0.50242122  0.47309068  0.17874422  1  -0.033103  0  -0.006205  -0.003383  0  3.956598  0
C  C59  1  0.50259957  0.52631909  0.35513039  1  0.103535  0  -0.006033  -0.002195  0  3.956726  0
C  C60  1  0.49914005  0.58677073  0.66736402  1  0.005674  0  -0.08072  -0.125548  0  3.923793  0
C  C61  1  0.50017225  0.58810074  0.71641517  1  -0.027674  0  -0.012089  -0.003534  0  4.070616  0
C  C62  1  0.50128181  0.67579134  0.74261274  1  0.437201  0  0.089916  0.116597  0  4.088072  0
C  C63  1  0.49950559  0.41149853  0.66759989  1  0.035448  0  -0.0801  -0.125098  0  3.923136  0
C  C64  1  0.49939576  0.41076617  0.71673330  1  0.015901  0  -0.01194  -0.00655  0  4.069272  0
C  C65  1  0.49865158  0.32337018  0.74339555  1  0.479551  0  0.090171  0.117996  0  4.090252  0
C  C66  1  0.49864487  0.41271615  0.86654174  1  0.05187  0  -0.080637  -0.124995  0  3.92186  0
C  C67  1  0.49913691  0.41137644  0.81748547  1  -0.071851  0  -0.011687  -0.004273  0  4.073546  0
C  C68  1  0.49835423  0.32368940  0.79127786  1  0.536673  0  0.089535  0.116613  0  4.089296  0
C  C69  1  0.50218921  0.58795799  0.86628502  1  0.075709  0  -0.080509  -0.126213  0  3.923559  0
C  C70  1  0.50163695  0.58869481  0.81715382  1  -0.085716  0  -0.011035  -0.003157  0  4.068206  0
C  C71  1  0.50217354  0.67608437  0.79049124  1  0.600256  0  0.089836  0.117001  0  4.089362  0
C  C72  1  0.49896016  0.49908891  0.64326283  1  -0.080923  0  -0.014938  -0.018563  0  3.982058  0
C  C73  1  0.49995148  0.49954591  0.74207926  1  0.040312  0  0.001981  0.014656  0  3.951623  0
C  C74  1  0.50019042  0.50040635  0.89063213  1  0.061079  0  -0.014837  -0.017867  0  3.981162  0
C  C75  1  0.50024174  0.49991884  0.79181459  1  0.050991  0  0.000802  0.009821  0  3.957006  0
C  C76  1  0.86978017  0.44400365  0.49986362  1  -0.0637  0  -0.064944  -0.114097  0  3.891554  0
C  C77  1  0.85131782  0.61770619  0.49943104  1  0.015881  0  -0.065042  -0.122962  0  3.941553  0
C  C78  1  0.95441367  0.62779807  0.50130787  1  0.14177  0  0.082871  0.028332  0  3.89486  0
C  C79  1  0.02161398  0.54700668  0.50193933  1  -0.002514  0  0.010349  0.045005  0  3.949522  0
C  C80  1  0.12797566  0.55558846  0.50114225  1  -0.006763  0  -0.064578  -0.11132  0  3.895864  0
C  C81  1  0.14679438  0.38203110  0.49926654  1  0.104807  0  -0.064101  -0.12083  0  3.936557  0
C  C82  1  0.04358975  0.37173582  0.50064040  1  0.102986  0  0.081946  0.026998  0  3.890567  0
C  C83  1  0.97616531  0.45239668  0.50144640  1  0.06105  0  0.010622  0.045317  0  3.94672  0
C  C84  1  0.80864312  0.52484280  0.49889544  1  0.122045  0  -0.005648  -0.002748  0  3.955108  0
C  C85  1  0.18935264  0.47496071  0.49982824  1  0.021628  0  -0.005698  -0.002591  0  3.954388  0
C  C86  1  0.44653830  0.78985104  0.00837511  1  0.516353  0  0.06622  0.073684  0  3.845766  0
C  C87  1  0.43947851  0.89041383  0.00590617  1  0.051977  0  0.001461  -0.040847  0  4.053069  0
C  C88  1  0.37177388  0.94011159  0.97527770  1  0.588427  0  0.107441  0.137735  0  4.068654  0
C  C89  1  0.57210607  0.79641280  0.06585256  1  0.603006  0  0.072346  0.076649  0  3.841252  0
C  C90  1  0.57094943  0.89751137  0.06609628  1  -0.037748  0  0.004243  -0.038252  0  4.042899  0
C  C91  1  0.63424208  0.95457988  0.09548589  1  0.620735  0  0.11006  0.138577  0  4.070325  0
C  C92  1  0.55460605  0.20352999  0.06133165  1  0.563967  0  0.066141  0.071602  0  3.847551  0
C  C93  1  0.56200637  0.10294776  0.06377372  1  0.028477  0  0.002362  -0.037706  0  4.05051  0
C  C94  1  0.62981546  0.05328816  0.09437774  1  0.518618  0  0.109659  0.138551  0  4.066072  0
C  C95  1  0.42909750  0.19684444  0.00380579  1  0.493756  0  0.069266  0.06975  0  3.850837  0
C  C96  1  0.43059897  0.09581584  0.00352007  1  0.096985  0  0.002705  -0.037922  0  4.049371  0
C  C97  1  0.36750373  0.03875317  0.97407258  1  0.539114  0  0.107988  0.13588  0  4.072451  0
C  C98  1  0.50299895  0.94584320  0.03542413  1  0.034849  0  0.015791  0.035974  0  3.968401  0
C  C99  1  0.49852063  0.04753288  0.03423185  1  0.028657  0  0.015059  0.033191  0  3.968967  0
C  C100  1  0.87027461  0.55766719  0.03452158  1  -0.044479  0  -0.064553  -0.113271  0  3.892525  0
C  C101  1  0.85282406  0.38396620  0.03499851  1  0.069025  0  -0.064638  -0.122051  0  3.938957  0
C  C102  1  0.95605347  0.37386824  0.03355014  1  0.197099  0  0.082971  0.028706  0  3.893084  0
C  C103  1  0.02279194  0.45466433  0.03293643  1  0.0285  0  0.010168  0.043847  0  3.95049  0
C  C104  1  0.12919427  0.44614138  0.03373707  1  -0.049411  0  -0.065408  -0.112182  0  3.896773  0
C  C105  1  0.14688404  0.61971885  0.03552251  1  0.068152  0  -0.06449  -0.123241  0  3.939396  0
C  C106  1  0.04363891  0.62995801  0.03418939  1  0.187376  0  0.082579  0.027795  0  3.892534  0
C  C107  1  0.97674494  0.54926618  0.03327906  1  0.050924  0  0.010342  0.046316  0  3.946781  0
C  C108  1  0.80958601  0.47681639  0.03523780  1  -0.021473  0  -0.005838  -0.002285  0  3.955644  0
C  C109  1  0.19004684  0.52680663  0.03490452  1  -0.015475  0  -0.005896  -0.002619  0  3.955672  0
N  N110  1  0.51098956  0.25480846  0.49616417  1  -1.21501  0  -0.310305  -0.176717  0  3.538931  0
N  N111  1  0.48801371  0.75341933  0.50154723  1  -1.212861  0  -0.3122  -0.17701  0  3.542077  0
N  N112  1  0.51120796  0.74583560  0.03764782  1  -1.229308  0  -0.310906  -0.179691  0  3.538312  0
N  N113  1  0.48973679  0.24737230  0.03211966  1  -1.251758  0  -0.311737  -0.176029  0  3.542407  0
N  N114  1  0.50730040  0.72804905  0.26848729  1  0.401604  0  0.057846  0.520112  0  4.200762  0
N  N115  1  0.50708542  0.27132698  0.26536111  1  0.366184  0  0.059391  0.52253  0  4.195877  0
N  N116  1  0.00601758  0.27142822  0.50131267  1  0.392262  0  0.058262  0.520079  0  4.200287  0
N  N117  1  0.99204461  0.72798922  0.50294561  1  0.386434  0  0.058495  0.521399  0  4.19509  0
N  N118  1  0.00540229  0.73025394  0.03355745  1  0.387902  0  0.057415  0.519228  0  4.199013  0
N  N119  1  0.99430154  0.27365365  0.03241312  1  0.395292  0  0.059375  0.521456  0  4.196191  0
O  O120  1  0.50558436  0.42032381  0.56924372  1  -1.170939  0  -0.314952  -0.548084  0  2.30756  0
O  O121  1  0.48991735  0.58312014  0.57143552  1  -1.171061  0  -0.318543  -0.545543  0  2.345152  0
O  O122  1  0.33624802  0.57183258  0.50001761  1  -1.156324  0  -0.312654  -0.534552  0  2.308054  0
O  O123  1  0.35373005  0.40895325  0.49814758  1  -1.166309  0  -0.312523  -0.545327  0  2.339204  0
O  O124  1  0.49296517  0.59632879  0.42999266  1  -1.164333  0  -0.314183  -0.544277  0  2.349414  0
O  O125  1  0.50534013  0.43334945  0.42521138  1  -1.157306  0  -0.311861  -0.537061  0  2.300376  0
O  O126  1  0.66096602  0.42915505  0.49591242  1  -1.15602  0  -0.313792  -0.535084  0  2.314081  0
O  O127  1  0.64481470  0.59199048  0.49967732  1  -1.168879  0  -0.312013  -0.547951  0  2.328981  0
O  O128  1  0.50776366  0.57910412  0.96463831  1  -1.166129  0  -0.314876  -0.548398  0  2.307961  0
O  O129  1  0.49009737  0.41659414  0.96247919  1  -1.164148  0  -0.318538  -0.545799  0  2.345247  0
O  O130  1  0.33758476  0.42999941  0.03493415  1  -1.165012  0  -0.312082  -0.534693  0  2.308826  0
O  O131  1  0.35402804  0.59291165  0.03552783  1  -1.158725  0  -0.312546  -0.545679  0  2.339887  0
O  O132  1  0.49473927  0.40296807  0.10391690  1  -1.160955  0  -0.313366  -0.54323  0  2.350991  0
O  O133  1  0.50401696  0.56607241  0.10863634  1  -1.159665  0  -0.311451  -0.536671  0  2.298483  0
O  O134  1  0.66138086  0.57250131  0.03833624  1  -1.153751  0  -0.313361  -0.533918  0  2.315917  0
O  O135  1  0.64610266  0.40980828  0.03343994  1  -1.16984  0  -0.311484  -0.546246  0  2.327174  0
O  O136  1  0.55781750  0.74501807  0.23265113  1  -0.453825  0  -0.138273  -0.33808  0  1.890631  0
O  O137  1  0.45958968  0.78941552  0.29102867  1  -0.443182  0  -0.138564  -0.333942  0  1.858862  0
O  O138  1  0.55775884  0.25405036  0.30096474  1  -0.441754  0  -0.13929  -0.339491  0  1.88924  0
O  O139  1  0.45912945  0.21027400  0.24306537  1  -0.445388  0  -0.13912  -0.335042  0  1.856795  0
O  O140  1  0.92787091  0.25371387  0.52389822  1  -0.448407  0  -0.138109  -0.336852  0  1.889169  0
O  O141  1  0.05670070  0.21046628  0.47990321  1  -0.443911  0  -0.140394  -0.336899  0  1.858625  0
O  O142  1  0.06835713  0.74490543  0.52666740  1  -0.45987  0  -0.138713  -0.3384  0  1.887691  0
O  O143  1  0.94308965  0.78964661  0.48114521  1  -0.445417  0  -0.140459  -0.337179  0  1.859231  0
O  O144  1  0.92800000  0.74807195  0.01064533  1  -0.449969  0  -0.137853  -0.336581  0  1.887903  0
O  O145  1  0.05483940  0.79107358  0.05532147  1  -0.445385  0  -0.139841  -0.335867  0  1.85743  0
O  O146  1  0.07164003  0.25635492  0.00913247  1  -0.464029  0  -0.139273  -0.33866  0  1.88964  0
O  O147  1  0.94485316  0.21233150  0.05419547  1  -0.441235  0  -0.140489  -0.337036  0  1.859963  0
F  F148  1  0.30117005  0.91829010  0.58917476  1  -0.607797  0  -0.072422  -0.089996  0  1.354032  0
F  F149  1  0.31010701  0.11428030  0.58690312  1  -0.607464  0  -0.075565  -0.093344  0  1.35078  0
F  F150  1  0.68893077  0.89375020  0.41076416  1  -0.608636  0  -0.072221  -0.088719  0  1.350975  0
F  F151  1  0.69831762  0.08974477  0.40865084  1  -0.610458  0  -0.069878  -0.087159  0  1.354656  0
F  F152  1  0.50327432  0.76102966  0.81385865  1  -0.618063  0  -0.095954  -0.115109  0  1.347366  0
F  F153  1  0.50151630  0.76047358  0.71877803  1  -0.618476  0  -0.096178  -0.115044  0  1.347422  0
F  F154  1  0.49734211  0.23902315  0.81512550  1  -0.614895  0  -0.095991  -0.114991  0  1.347845  0
F  F155  1  0.49794191  0.23840676  0.72003552  1  -0.617602  0  -0.096086  -0.115064  0  1.347243  0
F  F156  1  0.30332575  0.08382275  0.94478971  1  -0.610875  0  -0.072491  -0.089839  0  1.353672  0
F  F157  1  0.31148962  0.88778472  0.94725362  1  -0.611958  0  -0.075632  -0.093724  0  1.350702  0
F  F158  1  0.68988219  0.10565611  0.12241199  1  -0.615248  0  -0.072449  -0.088788  0  1.351995  0
F  F159  1  0.69881869  0.90951688  0.12451746  1  -0.606544  0  -0.069906  -0.086809  0  1.356706  0
