# generated using pymatgen
data_CuH6C6BrNO4
_symmetry_space_group_name_H-M   'P 1'
_cell_length_a   9.66259411
_cell_length_b   9.60078664
_cell_length_c   9.81189635
_cell_angle_alpha   90.00043762
_cell_angle_beta   89.99953399
_cell_angle_gamma   110.46065224
_symmetry_Int_Tables_number   1
_chemical_formula_structural   CuH6C6BrNO4
_chemical_formula_sum   'Cu4 H24 C24 Br4 N4 O16'
_cell_volume   852.81047814
_cell_formula_units_Z   4
loop_
 _symmetry_equiv_pos_site_id
 _symmetry_equiv_pos_as_xyz
  1  'x, y, z'
loop_
 _atom_site_type_symbol
 _atom_site_label
 _atom_site_symmetry_multiplicity
 _atom_site_fract_x
 _atom_site_fract_y
 _atom_site_fract_z
 _atom_site_occupancy
 _atom_site_hle17_bader_charge
 _atom_site_hle17_bader_spin_density
 _atom_site_hle17_ddec_charge
 _atom_site_hle17_ddec_spin_density
 _atom_site_hle17_ddec_sum_bond_order
 _atom_site_hle17_magmom
 _atom_site_hse06_10hf_ddec_charge
 _atom_site_hse06_10hf_ddec_spin_density
 _atom_site_hse06_10hf_ddec_sum_bond_order
 _atom_site_hse06_10hf_magmom
 _atom_site_hse06_ddec_charge
 _atom_site_hse06_ddec_spin_density
 _atom_site_hse06_ddec_sum_bond_order
 _atom_site_hse06_magmom
 _atom_site_pbe_cm5_charge
 _atom_site_pbe_ddec_charge
 _atom_site_pbe_ddec_spin_density
 _atom_site_pbe_ddec_sum_bond_order
 _atom_site_pbe_magmom
Cu  Cu0  1  0.41163096  0.49236591  0.34224797  1  1.093576  -0.479475  0.92153  -0.667007  1.7531  -0.48  0.928314  -0.782436  2.144787  -0.619  1.028065  -0.865748  2.063582  -0.712  0.621559  0.867261  -0.720734  2.204262  -0.557
Cu  Cu1  1  0.08837101  0.50763538  0.84225159  1  1.093413  0.479488  0.92154  0.667024  1.753033  0.48  0.92832  0.782423  2.144711  0.619  1.028126  0.865734  2.063374  0.712  0.621573  0.867238  0.720735  2.204241  0.557
Cu  Cu2  1  0.58836990  0.50762785  0.65775308  1  1.093477  0.479476  0.921544  0.667014  1.752993  0.48  0.928342  0.782409  2.144569  0.619  1.028001  0.865728  2.063507  0.712  0.621575  0.867263  0.720727  2.204136  0.557
Cu  Cu3  1  0.91163149  0.49237174  0.15776373  1  1.093399  -0.479476  0.921593  -0.66701  1.752873  -0.48  0.928429  -0.782429  2.144484  -0.619  1.028112  -0.865715  2.063375  -0.712  0.621593  0.867345  -0.720722  2.204023  -0.557
H  H4  1  0.50688185  0.00603235  0.25807241  1  0.077441  -0.00041  0.11885  -0.000288  0.944797  0.0  0.126024  -0.000129  1.006514  0.0  0.129871  -0.000106  1.005381  0.0  0.109406  0.123123  -0.000193  1.007784  0.0
H  H5  1  0.99312558  0.99397777  0.75807534  1  0.077359  0.000409  0.118816  0.000288  0.944857  0.0  0.126022  0.000128  1.006548  0.0  0.129868  0.000105  1.00542  0.0  0.109423  0.123125  0.000192  1.00782  0.0
H  H6  1  0.49312004  0.99396139  0.74192966  1  0.077468  0.000411  0.118826  0.000288  0.944801  0.0  0.126001  0.000128  1.006526  0.0  0.129851  0.000105  1.00538  0.0  0.109391  0.123102  0.000192  1.007794  0.0
H  H7  1  0.00687684  0.00603493  0.24193080  1  0.077435  -0.000407  0.118888  -0.000286  0.944753  0.0  0.126056  -0.000129  1.00649  0.0  0.129898  -0.000105  1.005354  0.0  0.109407  0.123154  -0.000192  1.007758  0.0
H  H8  1  0.30664903  0.80260925  0.37961952  1  0.103593  0.001233  0.11748  0.000801  0.96607  0.001  0.12182  0.00016  1.035083  0.0  0.125982  0.000152  1.031352  0.0  0.101188  0.118177  8.4e-05  1.038918  0.0
H  H9  1  0.19335247  0.19739448  0.87963215  1  0.104145  -0.001237  0.117488  -0.000803  0.966185  -0.001  0.121793  -0.000159  1.035201  0.0  0.125955  -0.000152  1.031467  0.0  0.101175  0.118154  -8.4e-05  1.039038  0.0
H  H10  1  0.69334079  0.19739130  0.62037236  1  0.103672  -0.001239  0.117517  -0.000804  0.96599  -0.001  0.121863  -0.00016  1.035007  0.0  0.126025  -0.000152  1.031274  0.0  0.101211  0.118219  -8.5e-05  1.038842  0.0
H  H11  1  0.80665194  0.80260928  0.12037399  1  0.103659  0.001239  0.117546  0.000804  0.965962  0.001  0.121869  0.000159  1.035011  0.0  0.12603  0.000152  1.031282  0.0  0.10121  0.118227  8.5e-05  1.038847  0.0
H  H12  1  0.16296364  0.87454851  0.56232614  1  0.065702  -0.001342  0.122791  -0.000954  0.929431  -0.001  0.132231  -0.000677  0.983844  0.0  0.135598  -0.000515  0.982468  0.0  0.112495  0.129723  -0.000776  0.984987  0.0
H  H13  1  0.33704303  0.12545677  0.06233362  1  0.065216  0.001344  0.122839  0.000955  0.929223  0.001  0.132301  0.000677  0.983623  0.0  0.135668  0.000516  0.982249  0.0  0.112507  0.129793  0.000776  0.984764  0.0
H  H14  1  0.83703467  0.12544973  0.43767490  1  0.065728  0.001341  0.122806  0.000953  0.929429  0.001  0.132233  0.000677  0.983841  0.0  0.135599  0.000515  0.982466  0.0  0.112503  0.129725  0.000776  0.984982  0.0
H  H15  1  0.66296763  0.87455586  0.93767354  1  0.065251  -0.001341  0.122819  -0.000953  0.929423  -0.001  0.132228  -0.000676  0.983856  0.0  0.135594  -0.000515  0.982478  0.0  0.112508  0.12972  -0.000776  0.985001  0.0
H  H16  1  0.21992051  0.15106029  0.60896961  1  0.140696  0.001543  0.11201  0.001131  0.967571  0.001  0.119138  0.000613  1.033985  0.0  0.123712  0.000486  1.029131  0.0  0.118922  0.116034  0.000726  1.037209  0.0
H  H17  1  0.28007954  0.84894196  0.10896162  1  0.140736  -0.001541  0.112067  -0.00113  0.967597  -0.001  0.119216  -0.000613  1.034016  0.0  0.123774  -0.000486  1.029205  0.0  0.118979  0.116117  -0.000726  1.037215  0.0
H  H18  1  0.78008359  0.84893678  0.39102940  1  0.140651  -0.001543  0.111971  -0.001131  0.967614  -0.001  0.119179  -0.000614  1.033945  0.0  0.123754  -0.000487  1.029093  0.0  0.11896  0.116075  -0.000727  1.037167  0.0
H  H19  1  0.71991526  0.15106970  0.89102923  1  0.140677  0.001538  0.112  0.001128  0.967567  0.001  0.119125  0.000613  1.033987  0.0  0.123701  0.000487  1.029138  0.0  0.11894  0.116016  0.000726  1.03721  0.0
H  H20  1  0.17454074  0.51988706  0.36334181  1  0.664412  0.001184  0.417907  0.000472  0.885655  0.002  0.38992  -0.000162  0.953071  0.0  0.402705  2.4e-05  0.934925  0.001  0.286064  0.380676  -0.00031  0.966378  0.0
H  H21  1  0.32546292  0.48011656  0.86333511  1  0.664236  -0.001186  0.417882  -0.000472  0.885595  -0.002  0.389901  0.000162  0.953081  0.0  0.402688  -2.4e-05  0.934933  -0.001  0.286073  0.380661  0.00031  0.966383  0.0
H  H22  1  0.82546501  0.48012338  0.63666433  1  0.664703  -0.001184  0.417825  -0.000473  0.885645  -0.002  0.389842  0.000162  0.953158  0.0  0.402626  -2.4e-05  0.935012  -0.001  0.286039  0.380601  0.00031  0.966459  0.0
H  H23  1  0.67453730  0.51987831  0.13665880  1  0.664353  0.001186  0.417925  0.000473  0.88551  0.002  0.389907  -0.000162  0.953057  0.0  0.402687  2.3e-05  0.934917  0.001  0.286102  0.38066  -0.000311  0.966367  0.0
H  H24  1  0.21321386  0.48433165  0.51224750  1  0.630496  0.000337  0.403929  -0.000381  0.877962  0.0  0.37879  -0.000728  0.95538  -0.001  0.391164  -0.000512  0.937881  0.0  0.271303  0.369726  -0.000918  0.965651  -0.001
H  H25  1  0.28679027  0.51567114  0.01224305  1  0.630149  -0.000339  0.403699  0.00038  0.878082  0.0  0.378584  0.000728  0.955465  0.001  0.390958  0.000512  0.938112  0.0  0.271217  0.369523  0.000918  0.965732  0.001
H  H26  1  0.78678184  0.51566215  0.48775151  1  0.630597  -0.00034  0.403734  0.00038  0.878011  0.0  0.378606  0.000729  0.955433  0.001  0.390981  0.000511  0.938084  0.0  0.271185  0.369544  0.000918  0.965694  0.001
H  H27  1  0.71321717  0.48432367  0.98775189  1  0.630101  0.000339  0.403904  -0.00038  0.877876  0.0  0.37875  -0.000729  0.95532  -0.001  0.391126  -0.000512  0.937903  0.0  0.271297  0.369674  -0.000918  0.965572  -0.001
C  C28  1  0.46485404  0.18037917  0.36433812  1  0.316393  -0.014721  0.014968  -0.010998  3.604489  -0.011  0.010806  -0.00657  3.8436  -0.007  0.012151  -0.004915  3.858708  -0.006  0.114168  0.008511  -0.008718  3.835224  -0.009
C  C29  1  0.03514303  0.81962340  0.86432925  1  0.316942  0.01477  0.01459  0.011036  3.604749  0.011  0.010607  0.006573  3.843674  0.007  0.011947  0.004921  3.858811  0.006  0.114055  0.008311  0.008723  3.835307  0.009
C  C30  1  0.53514888  0.81961456  0.63566497  1  0.316559  0.014745  0.01482  0.011018  3.604745  0.011  0.010779  0.006567  3.843717  0.007  0.01213  0.004916  3.858822  0.006  0.114184  0.008488  0.008718  3.83535  0.009
C  C31  1  0.96484646  0.18038496  0.13566671  1  0.316647  -0.014727  0.014823  -0.011005  3.604847  -0.011  0.010788  -0.006567  3.843779  -0.007  0.012141  -0.004914  3.858884  -0.006  0.114156  0.008501  -0.008715  3.835408  -0.009
C  C32  1  0.43779386  0.03124638  0.33496414  1  0.151636  0.010754  -0.106686  0.007778  3.739856  0.008  -0.124373  0.002295  3.990024  0.003  -0.130044  0.002551  4.010896  0.003  -0.072781  -0.121383  0.001673  3.977747  0.003
C  C33  1  0.06220964  0.96876489  0.83496433  1  0.151363  -0.010794  -0.106413  -0.007807  3.739805  -0.008  -0.124221  -0.002295  3.98991  -0.003  -0.129907  -0.002553  4.010805  -0.003  -0.072799  -0.121233  -0.001673  3.977642  -0.003
C  C34  1  0.56220184  0.96874742  0.66503487  1  0.151502  -0.010783  -0.106626  -0.007799  3.739903  -0.008  -0.12434  -0.002292  3.99005  -0.003  -0.130017  -0.002551  4.010934  -0.003  -0.07281  -0.121348  -0.001673  3.977774  -0.003
C  C35  1  0.93779824  0.03125445  0.16503672  1  0.151552  0.010759  -0.106691  0.007781  3.739849  0.008  -0.124428  0.002295  3.990021  0.003  -0.130101  0.00255  4.010895  0.003  -0.072796  -0.121432  0.001672  3.977743  0.003
C  C36  1  0.32809883  0.91913084  0.40313215  1  0.030305  -0.026678  -0.014692  -0.018959  3.698298  -0.018  -0.043832  -0.009157  3.961164  -0.009  -0.03904  -0.00656  3.976023  -0.007  -0.073419  -0.047789  -0.011352  3.953087  -0.01
C  C37  1  0.17190704  0.08087409  0.90313694  1  0.029985  0.026727  -0.014841  0.018995  3.698408  0.018  -0.04386  0.009158  3.961189  0.009  -0.039056  0.00656  3.976038  0.007  -0.073411  -0.047821  0.011354  3.953117  0.011
C  C38  1  0.67189480  0.08086298  0.59686381  1  0.030273  0.026715  -0.01473  0.018985  3.698218  0.018  -0.043898  0.009154  3.96112  0.009  -0.039102  0.006559  3.975973  0.007  -0.073437  -0.047856  0.011352  3.95304  0.01
C  C39  1  0.82810220  0.91913743  0.09686513  1  0.03026  -0.026695  -0.014743  -0.018971  3.698193  -0.018  -0.043889  -0.009155  3.961092  -0.009  -0.039097  -0.006558  3.975952  -0.007  -0.07344  -0.047841  -0.01135  3.953016  -0.01
C  C40  1  0.24770442  0.95900331  0.50475824  1  0.152215  0.013067  -0.071422  0.00904  3.717878  0.01  -0.082059  0.001779  3.971093  0.003  -0.085659  0.002189  3.987123  0.003  -0.069474  -0.079797  0.001339  3.960929  0.002
C  C41  1  0.25229699  0.04099167  0.00476374  1  0.152661  -0.013102  -0.071582  -0.009065  3.71762  -0.01  -0.082236  -0.00178  3.970881  -0.003  -0.085835  -0.002188  3.986904  -0.003  -0.069548  -0.079979  -0.001338  3.960717  -0.002
C  C42  1  0.75229325  0.04099606  0.49524077  1  0.152405  -0.013089  -0.071476  -0.009056  3.717898  -0.01  -0.082052  -0.001778  3.971136  -0.003  -0.085652  -0.002187  3.98716  -0.003  -0.069507  -0.079792  -0.001338  3.96097  -0.002
C  C43  1  0.74770578  0.95899873  0.99524139  1  0.152803  0.013073  -0.071463  0.009044  3.717934  0.01  -0.082061  0.001777  3.971132  0.003  -0.085658  0.002184  3.987163  0.003  -0.069529  -0.079801  0.001337  3.960972  0.002
C  C44  1  0.27649025  0.10732222  0.53342113  1  0.340547  -0.021967  0.031095  -0.016838  3.566411  -0.016  -0.010314  -0.008734  3.820974  -0.009  -0.002821  -0.00662  3.830979  -0.007  0.04739  -0.015301  -0.009981  3.814053  -0.01
C  C45  1  0.22350662  0.89267519  0.03342617  1  0.340213  0.022002  0.031186  0.016865  3.566081  0.016  -0.010332  0.008737  3.820761  0.009  -0.00284  0.006625  3.83076  0.007  0.047345  -0.015308  0.009983  3.81384  0.01
C  C46  1  0.72351028  0.89267935  0.46657585  1  0.340282  0.021992  0.031191  0.016856  3.566192  0.016  -0.010335  0.008733  3.820821  0.009  -0.002843  0.006622  3.830833  0.007  0.047385  -0.015314  0.009981  3.813895  0.01
C  C47  1  0.77649011  0.10731861  0.96658202  1  0.340411  -0.021967  0.031112  -0.016838  3.566359  -0.016  -0.010272  -0.008733  3.82087  -0.009  -0.002774  -0.006621  3.830863  -0.007  0.047439  -0.015253  -0.009981  3.813953  -0.01
C  C48  1  0.58198713  0.30027766  0.28747731  1  1.61373  0.003814  0.644366  0.002139  3.882408  0.004  0.605082  -0.000754  4.17088  0.0  0.642561  -0.000654  4.160991  0.0  0.218027  0.579619  -0.000839  4.176707  0.001
C  C49  1  0.91801442  0.69972822  0.78746947  1  1.613691  -0.003814  0.644292  -0.00214  3.882832  -0.004  0.604968  0.000752  4.171271  0.0  0.642452  0.00065  4.161381  0.0  0.217982  0.579507  0.000839  4.177097  -0.001
C  C50  1  0.41801570  0.69972165  0.71252476  1  1.613518  -0.003808  0.644248  -0.002135  3.882214  -0.004  0.604901  0.000754  4.170732  0.0  0.642385  0.000653  4.160834  0.0  0.217986  0.57944  0.000839  4.176559  -0.001
C  C51  1  0.08199079  0.30027776  0.21252546  1  1.613618  0.00381  0.644171  0.002137  3.882283  0.004  0.604904  -0.000755  4.170677  0.0  0.642381  -0.000656  4.160795  0.0  0.218024  0.579433  -0.00084  4.176506  0.001
Br  Br52  1  0.44643958  0.67641734  0.16648230  1  -0.559404  -0.187087  -0.464124  -0.151853  0.924484  -0.144  -0.468285  -0.091183  1.214376  -0.09  -0.504308  -0.069141  1.188495  -0.07  -0.234606  -0.44472  -0.101213  1.235272  -0.097
Br  Br53  1  0.05355547  0.32356632  0.66648175  1  -0.559431  0.187063  -0.464169  0.151828  0.924393  0.144  -0.468299  0.091229  1.214287  0.09  -0.504362  0.069147  1.188403  0.07  -0.234601  -0.444723  0.101209  1.235189  0.097
Br  Br54  1  0.55354732  0.32357209  0.83352079  1  -0.559257  0.187091  -0.464152  0.151847  0.924477  0.144  -0.468288  0.091211  1.214368  0.09  -0.504309  0.069156  1.188521  0.07  -0.234602  -0.44472  0.101219  1.235258  0.097
Br  Br55  1  0.94642454  0.67641536  0.33351726  1  -0.559283  -0.187082  -0.464166  -0.151846  0.924624  -0.144  -0.468297  -0.091215  1.214499  -0.09  -0.504313  -0.069157  1.188639  -0.07  -0.234608  -0.444724  -0.101218  1.235404  -0.097
N  N56  1  0.38199271  0.21479033  0.46268655  1  -0.677347  0.008067  0.264328  0.007235  3.636249  0.013  0.317107  0.002181  3.897573  0.006  0.318771  0.002965  3.921088  0.006  -0.107918  0.315079  0.000982  3.881937  0.004
N  N57  1  0.11800591  0.78520720  0.96267470  1  -0.677565  -0.008099  0.264467  -0.007262  3.636099  -0.013  0.317238  -0.002181  3.897389  -0.006  0.318901  -0.002971  3.92092  -0.006  -0.107852  0.315209  -0.000983  3.881757  -0.004
N  N58  1  0.61800751  0.78520455  0.53731144  1  -0.677257  -0.008092  0.264477  -0.007255  3.636016  -0.013  0.317235  -0.002179  3.897341  -0.006  0.318895  -0.002969  3.920855  -0.006  -0.107833  0.315207  -0.000982  3.88171  -0.004
N  N59  1  0.88200247  0.21479318  0.03731005  1  -0.677487  0.008078  0.264473  0.007244  3.636369  0.013  0.317212  0.00218  3.897663  0.006  0.318875  0.002967  3.921179  0.006  -0.107916  0.315183  0.000982  3.882032  0.004
O  O60  1  0.40363551  0.35507720  0.49656424  1  -0.620911  -0.110042  -0.520942  -0.078118  1.983406  -0.101  -0.519009  -0.051331  2.290759  -0.072  -0.562374  -0.039892  2.291937  -0.059  -0.24247  -0.489578  -0.057894  2.29182  -0.078
O  O61  1  0.09636124  0.64492164  0.99655456  1  -0.620509  0.110043  -0.520844  0.078118  1.983517  0.101  -0.519011  0.051328  2.29092  0.072  -0.562392  0.039896  2.292089  0.059  -0.242393  -0.489582  0.057891  2.291989  0.078
O  O62  1  0.59636432  0.64491656  0.50343477  1  -0.620938  0.110025  -0.521053  0.078105  1.983338  0.101  -0.519144  0.051324  2.290714  0.072  -0.562512  0.039888  2.291908  0.059  -0.242557  -0.489716  0.057889  2.291787  0.078
O  O63  1  0.90364199  0.35507879  0.00343324  1  -0.620841  -0.110032  -0.52097  -0.07811  1.983313  -0.101  -0.519122  -0.051326  2.290723  -0.072  -0.562497  -0.039888  2.291905  -0.059  -0.242469  -0.489686  -0.05789  2.291791  -0.078
O  O64  1  0.56087530  0.42368837  0.26048207  1  -1.136163  -0.08561  -0.630186  -0.060825  2.184354  -0.082  -0.587666  -0.044821  2.459664  -0.065  -0.630454  -0.035573  2.448872  -0.054  -0.323891  -0.559008  -0.051054  2.46859  -0.072
O  O65  1  0.93912149  0.57631517  0.76048433  1  -1.136134  0.085583  -0.630118  0.060807  2.184382  0.082  -0.58762  0.044812  2.459688  0.065  -0.630414  0.03557  2.44888  0.054  -0.323869  -0.558957  0.051043  2.468608  0.072
O  O66  1  0.43912334  0.57630206  0.73951185  1  -1.136139  0.085602  -0.630137  0.06082  2.184054  0.082  -0.587614  0.044819  2.459366  0.065  -0.630388  0.035575  2.448584  0.054  -0.323878  -0.55895  0.05105  2.468296  0.072
O  O67  1  0.06088162  0.42370533  0.23951265  1  -1.136008  -0.085625  -0.630147  -0.060834  2.184006  -0.082  -0.587681  -0.044826  2.459302  -0.065  -0.630463  -0.035577  2.44853  -0.054  -0.323893  -0.55901  -0.05106  2.468226  -0.072
O  O68  1  0.69134978  0.27129821  0.24775456  1  -1.1557  -0.011994  -0.577991  -0.008396  1.946331  -0.012  -0.550748  -0.004096  2.182619  -0.007  -0.577906  -0.001609  2.17403  -0.003  -0.302738  -0.530725  -0.007282  2.187698  -0.011
O  O69  1  0.80865097  0.72870746  0.74775498  1  -1.1557  0.011986  -0.577915  0.00839  1.946482  0.012  -0.550674  0.004093  2.182809  0.007  -0.577827  0.001604  2.17422  0.003  -0.302708  -0.53065  0.007278  2.187889  0.011
O  O70  1  0.30865290  0.72869776  0.75224954  1  -1.155632  0.011992  -0.57787  0.008395  1.946356  0.012  -0.550614  0.004095  2.182676  0.007  -0.577787  0.001608  2.174082  0.003  -0.302712  -0.530589  0.007281  2.18775  0.011
O  O71  1  0.19135660  0.27130520  0.25225321  1  -1.155774  -0.011994  -0.577817  -0.008396  1.946522  -0.012  -0.550595  -0.004096  2.182832  -0.007  -0.577758  -0.00161  2.174247  -0.003  -0.302713  -0.530576  -0.007284  2.187906  -0.011
O  O72  1  0.25536722  0.55129768  0.43371332  1  -1.231253  -0.08218  -0.783208  -0.059179  2.008098  -0.076  -0.742931  -0.045567  2.226537  -0.063  -0.77792  -0.036877  2.191549  -0.054  -0.573213  -0.719625  -0.050372  2.250237  -0.067
O  O73  1  0.24462135  0.44869420  0.93370603  1  -1.230732  0.082203  -0.782986  0.059194  2.008107  0.076  -0.742733  0.045575  2.226561  0.063  -0.777737  0.036883  2.191689  0.054  -0.573179  -0.71942  0.050381  2.250262  0.067
O  O74  1  0.74463181  0.44869386  0.56629894  1  -1.231593  0.082189  -0.782939  0.059187  2.008012  0.076  -0.742682  0.045569  2.226492  0.063  -0.777653  0.036879  2.191649  0.054  -0.573086  -0.719373  0.050375  2.250201  0.067
O  O75  1  0.75535763  0.55128749  0.06629502  1  -1.230794  -0.082174  -0.783238  -0.059175  2.007762  -0.076  -0.742916  -0.045564  2.226351  -0.063  -0.777889  -0.036875  2.191449  -0.054  -0.57329  -0.719567  -0.050366  2.250127  -0.067
