# generated using pymatgen
data_CdH20C28(NO4)2
_symmetry_space_group_name_H-M   'P 1'
_cell_length_a   8.97840116
_cell_length_b   11.87159949
_cell_length_c   11.87128398
_cell_angle_alpha   88.31887925
_cell_angle_beta   76.79983966
_cell_angle_gamma   76.79952454
_symmetry_Int_Tables_number   1
_chemical_formula_structural   CdH20C28(NO4)2
_chemical_formula_sum   'Cd2 H40 C56 N4 O16'
_cell_volume   1199.00591897
_cell_formula_units_Z   2
loop_
 _symmetry_equiv_pos_site_id
 _symmetry_equiv_pos_as_xyz
  1  'x, y, z'
loop_
 _atom_site_type_symbol
 _atom_site_label
 _atom_site_symmetry_multiplicity
 _atom_site_fract_x
 _atom_site_fract_y
 _atom_site_fract_z
 _atom_site_occupancy
 _atom_site_hle17_bader_spin_density
 _atom_site_hle17_ddec_charge
 _atom_site_hle17_ddec_spin_density
 _atom_site_hle17_ddec_sum_bond_order
 _atom_site_hle17_magmom
 _atom_site_hse06_10hf_bader_spin_density
 _atom_site_hse06_10hf_ddec_charge
 _atom_site_hse06_10hf_ddec_spin_density
 _atom_site_hse06_10hf_ddec_sum_bond_order
 _atom_site_hse06_10hf_magmom
 _atom_site_hse06_bader_spin_density
 _atom_site_hse06_ddec_charge
 _atom_site_hse06_ddec_spin_density
 _atom_site_hse06_ddec_sum_bond_order
 _atom_site_hse06_magmom
 _atom_site_pbe_bader_spin_density
 _atom_site_pbe_cm5_charge
 _atom_site_pbe_ddec_charge
 _atom_site_pbe_ddec_spin_density
 _atom_site_pbe_ddec_sum_bond_order
 _atom_site_pbe_magmom
Cd  Cd0  1  0.24324942  0.64988512  0.39096595  1  0  1.208712  0  1.572206  0  0  1.040577  0  2.004015  0  0  1.104265  0  1.944531  0  0  0.740206  0.993356  0  2.04536  0
Cd  Cd1  1  0.74326466  0.39095718  0.64988344  1  0  1.208682  0  1.571974  0  0  1.040543  0  2.003733  0  0  1.104234  0  1.944252  0  0  0.740301  0.993315  0  2.045063  0
H  H2  1  0.91558129  0.04892132  0.46672528  1  0  0.101081  0  0.980992  0  0  0.106001  0  1.053889  0  0  0.110198  0  1.050214  0  0  0.099386  0.103455  0  1.055144  0
H  H3  1  0.41556799  0.46672943  0.04892633  1  0  0.101079  0  0.981074  0  0  0.105966  0  1.053983  0  0  0.110161  0  1.050322  0  0  0.099375  0.103418  0  1.055243  0
H  H4  1  0.89566859  0.88925624  0.15188274  1  0  0.097056  0  0.960896  0  0  0.104137  0  1.026158  0  0  0.107713  0  1.024131  0  0  0.098337  0.101533  0  1.027687  0
H  H5  1  0.39565945  0.15189249  0.88925817  1  0  0.097078  0  0.960909  0  0  0.104185  0  1.026148  0  0  0.107763  0  1.024118  0  0  0.098319  0.101577  0  1.027682  0
H  H6  1  0.72492452  0.07430614  0.10352131  1  0  0.085509  0  0.962413  0  0  0.098196  0  1.022517  0  0  0.101049  0  1.021312  0  0  0.096638  0.096103  0  1.023592  0
H  H7  1  0.22490642  0.10353868  0.07430782  1  0  0.085542  0  0.962498  0  0  0.098244  0  1.022554  0  0  0.101097  0  1.021348  0  0  0.09667  0.096119  0  1.023673  0
H  H8  1  0.74572577  0.23076397  0.42093505  1  0  0.121762  0  0.966577  0  0  0.130442  0  1.028619  0  0  0.133969  0  1.026604  0  0  0.107805  0.127882  0  1.030206  0
H  H9  1  0.24570358  0.42094460  0.23076968  1  0  0.12181  0  0.966616  0  0  0.130523  0  1.02861  0  0  0.134054  0  1.026587  0  0  0.107838  0.127967  0  1.030185  0
H  H10  1  0.55324072  0.32792281  0.30272819  1  0  0.119056  0  0.949698  0  0  0.126819  0  1.018222  0  0  0.129581  0  1.01598  0  0  0.120622  0.12455  0  1.020204  0
H  H11  1  0.05322543  0.30273300  0.32793273  1  0  0.119025  0  0.949583  0  0  0.126764  0  1.018114  0  0  0.12953  0  1.015881  0  0  0.120593  0.124485  0  1.020114  0
H  H12  1  0.55846329  0.26362073  0.16764162  1  0  0.085677  0  0.962029  0  0  0.098364  0  1.026711  0  0  0.099004  0  1.027989  0  0  0.11085  0.097871  0  1.025704  0
H  H13  1  0.05844483  0.16765577  0.26362538  1  0  0.085647  0  0.96218  0  0  0.098334  0  1.026816  0  0  0.098971  0  1.028097  0  0  0.110821  0.09784  0  1.025813  0
H  H14  1  0.72963749  0.29194281  0.00252139  1  0  0.113149  0  0.925469  0  0  0.121195  0  0.987445  0  0  0.123985  0  0.984976  0  0  0.13759  0.119056  0  0.989106  0
H  H15  1  0.22961156  0.00253632  0.29194691  1  0  0.113022  0  0.92554  0  0  0.12111  0  0.987508  0  0  0.123901  0  0.98504  0  0  0.137592  0.118994  0  0.989141  0
H  H16  1  0.75344944  0.41822199  0.32137901  1  0  0.125075  0  0.938468  0  0  0.130342  0  1.002573  0  0  0.133486  0  0.999555  0  0  0.138796  0.127699  0  1.005319  0
H  H17  1  0.25343920  0.32137988  0.41823086  1  0  0.125067  0  0.938313  0  0  0.13035  0  1.002467  0  0  0.13352  0  0.999416  0  0  0.13883  0.127704  0  1.005213  0
H  H18  1  0.93609370  0.53595099  0.22850870  1  0  0.142008  0  0.951421  0  0  0.147998  0  1.009723  0  0  0.152584  0  1.006978  0  0  0.123249  0.144462  0  1.012177  0
H  H19  1  0.43609394  0.22850708  0.53595121  1  0  0.141939  0  0.951398  0  0  0.147939  0  1.009688  0  0  0.152525  0  1.006945  0  0  0.123242  0.144411  0  1.012136  0
H  H20  1  0.90872976  0.40371844  0.89554671  1  0  0.153873  0  0.955148  0  0  0.160363  0  1.013048  0  0  0.164913  0  1.009939  0  0  0.12666  0.156935  0  1.015622  0
H  H21  1  0.40872008  0.89555712  0.40371370  1  0  0.153882  0  0.955335  0  0  0.160361  0  1.013204  0  0  0.16491  0  1.0101  0  0  0.126685  0.156938  0  1.015772  0
H  H22  1  0.08425616  0.62965896  0.14673759  1  0  0.154173  0  0.953259  0  0  0.160597  0  1.011361  0  0  0.165091  0  1.008263  0  0  0.127107  0.157228  0  1.013863  0
H  H23  1  0.58427217  0.14673675  0.62965342  1  0  0.154143  0  0.953124  0  0  0.160576  0  1.011244  0  0  0.165067  0  1.008149  0  0  0.127087  0.157212  0  1.013742  0
H  H24  1  0.04250409  0.50834303  0.81333728  1  0  0.141723  0  0.955992  0  0  0.14747  0  1.015203  0  0  0.152258  0  1.012148  0  0  0.122068  0.143842  0  1.017717  0
H  H25  1  0.54248602  0.81334828  0.50834865  1  0  0.141684  0  0.955975  0  0  0.147449  0  1.015209  0  0  0.15222  0  1.012176  0  0  0.122093  0.143822  0  1.017725  0
H  H26  1  0.22525353  0.62565483  0.72066192  1  0  0.125191  0  0.938707  0  0  0.130241  0  1.00319  0  0  0.133417  0  1.000183  0  0  0.138414  0.12764  0  1.005833  0
H  H27  1  0.72523038  0.72066763  0.62566462  1  0  0.12523  0  0.938567  0  0  0.130239  0  1.003102  0  0  0.13341  0  1.000103  0  0  0.138467  0.127631  0  1.005782  0
H  H28  1  0.26170557  0.74284748  0.03981009  1  0  0.112762  0  0.928295  0  0  0.119995  0  0.991827  0  0  0.122833  0  0.989262  0  0  0.136918  0.117895  0  0.993435  0
H  H29  1  0.76172031  0.03980660  0.74284471  1  0  0.112806  0  0.928173  0  0  0.119994  0  0.991783  0  0  0.122829  0  0.989217  0  0  0.136913  0.117889  0  0.993392  0
H  H30  1  0.43152720  0.71201034  0.73955626  1  0  0.118864  0  0.94778  0  0  0.127162  0  1.015649  0  0  0.129972  0  1.013273  0  0  0.120614  0.124874  0  1.017657  0
H  H31  1  0.93152132  0.73955420  0.71201394  1  0  0.11882  0  0.947872  0  0  0.127141  0  1.015702  0  0  0.129946  0  1.01334  0  0  0.120607  0.124843  0  1.017722  0
H  H32  1  0.42584387  0.77642635  0.87467759  1  0  0.087966  0  0.961261  0  0  0.100618  0  1.025799  0  0  0.10124  0  1.027139  0  0  0.112839  0.100137  0  1.024713  0
H  H33  1  0.92584086  0.87467380  0.77643642  1  0  0.088022  0  0.961209  0  0  0.100658  0  1.025764  0  0  0.101281  0  1.027103  0  0  0.112858  0.100174  0  1.024682  0
H  H34  1  0.24905265  0.96337003  0.94230056  1  0  0.086116  0  0.960328  0  0  0.098622  0  1.02034  0  0  0.101509  0  1.01909  0  0  0.095987  0.096503  0  1.021442  0
H  H35  1  0.74902303  0.94230660  0.96337349  1  0  0.086132  0  0.960378  0  0  0.098631  0  1.020381  0  0  0.101518  0  1.019131  0  0  0.095994  0.096512  0  1.021493  0
H  H36  1  0.24673674  0.81032658  0.61814952  1  0  0.121573  0  0.969732  0  0  0.130321  0  1.031205  0  0  0.133972  0  1.029062  0  0  0.107372  0.12769  0  1.032799  0
H  H37  1  0.74673402  0.61815018  0.81033295  1  0  0.121482  0  0.96979  0  0  0.130301  0  1.031197  0  0  0.133882  0  1.02915  0  0  0.107363  0.127673  0  1.032786  0
H  H38  1  0.07683978  0.99178236  0.57142710  1  0  0.102885  0  0.979821  0  0  0.107364  0  1.052975  0  0  0.111477  0  1.049408  0  0  0.099594  0.104797  0  1.05439  0
H  H39  1  0.57683644  0.57143072  0.99179169  1  0  0.102898  0  0.97973  0  0  0.107331  0  1.052937  0  0  0.111452  0  1.049354  0  0  0.099601  0.104768  0  1.054351  0
H  H40  1  0.07964619  0.14827662  0.89254569  1  0  0.096067  0  0.962359  0  0  0.103507  0  1.027981  0  0  0.107007  0  1.026018  0  0  0.098656  0.100934  0  1.029427  0
H  H41  1  0.57961510  0.89255277  0.14828272  1  0  0.096119  0  0.962471  0  0  0.103571  0  1.028072  0  0  0.107074  0  1.026107  0  0  0.098707  0.101004  0  1.029515  0
C  C42  1  0.02499661  0.84697294  0.33811507  1  0  0.610259  0  3.988613  0  0  0.565614  0  4.27907  0  0  0.599615  0  4.27406  0  0  0.180544  0.542535  0  4.281444  0
C  C43  1  0.52500186  0.33811259  0.84697651  1  0  0.609864  0  3.988942  0  0  0.565152  0  4.279464  0  0  0.599153  0  4.274465  0  0  0.180408  0.542086  0  4.281853  0
C  C44  1  0.91766295  0.95724310  0.31155437  1  0  -0.063206  0  3.755777  0  0  -0.041731  0  3.987354  0  0  -0.049046  0  4.009898  0  0  -0.023573  -0.036992  0  3.972114  0
C  C45  1  0.41765450  0.31156045  0.95724560  1  0  -0.063179  0  3.755749  0  0  -0.041596  0  3.987179  0  0  -0.04891  0  4.009723  0  0  -0.023561  -0.036852  0  3.971924  0
C  C46  1  0.87402756  0.05350462  0.38708506  1  0  -0.07986  0  3.755161  0  0  -0.103884  0  4.008651  0  0  -0.103855  0  4.028229  0  0  -0.090189  -0.103302  0  3.994352  0
C  C47  1  0.37401409  0.38709279  0.05350999  1  0  -0.079749  0  3.755091  0  0  -0.103762  0  4.008542  0  0  -0.103733  0  4.028108  0  0  -0.090123  -0.103186  0  3.994244  0
C  C48  1  0.86284865  0.96521245  0.20928719  1  0  -0.071095  0  3.754572  0  0  -0.08977  0  3.997106  0  0  -0.089858  0  4.017597  0  0  -0.089874  -0.08943  0  3.983294  0
C  C49  1  0.36283764  0.20929820  0.96521426  1  0  -0.071227  0  3.754598  0  0  -0.089962  0  3.997122  0  0  -0.090053  0  4.017612  0  0  -0.089928  -0.089622  0  3.983307  0
C  C50  1  0.76815993  0.06828465  0.18288054  1  0  -0.138856  0  3.779349  0  0  -0.157809  0  4.027294  0  0  -0.161935  0  4.050045  0  0  -0.102123  -0.155282  0  4.011862  0
C  C51  1  0.26814464  0.18289392  0.06828759  1  0  -0.138801  0  3.779433  0  0  -0.157744  0  4.027337  0  0  -0.161867  0  4.050085  0  0  -0.102123  -0.155203  0  4.011937  0
C  C52  1  0.77944258  0.15670044  0.36085766  1  0  -0.120092  0  3.712917  0  0  -0.139076  0  3.964078  0  0  -0.142722  0  3.9846  0  0  -0.094266  -0.13757  0  3.950852  0
C  C53  1  0.27942395  0.36086579  0.15670627  1  0  -0.120194  0  3.713084  0  0  -0.139209  0  3.964217  0  0  -0.142854  0  3.984736  0  0  -0.094388  -0.137705  0  3.951011  0
C  C54  1  0.72689116  0.16503342  0.25796729  1  0  0.058389  0  3.774652  0  0  0.076675  0  4.018342  0  0  0.076475  0  4.043527  0  0  -0.022521  0.077439  0  4.001023  0
C  C55  1  0.22687446  0.25797836  0.16503692  1  0  0.058365  0  3.774833  0  0  0.076603  0  4.018543  0  0  0.076401  0  4.043728  0  0  -0.022504  0.077358  0  4.001231  0
C  C56  1  0.63044801  0.27774433  0.22652656  1  0  -0.077743  0  3.606742  0  0  -0.142608  0  3.851484  0  0  -0.139259  0  3.86086  0  0  -0.05071  -0.14434  0  3.844673  0
C  C57  1  0.13043278  0.22653428  0.27774889  1  0  -0.077758  0  3.606898  0  0  -0.142518  0  3.851524  0  0  -0.139179  0  3.860919  0  0  -0.050684  -0.144246  0  3.844718  0
C  C58  1  0.77749315  0.34815037  0.04805950  1  0  0.109031  0  3.570588  0  0  0.063817  0  3.826649  0  0  0.072589  0  3.840382  0  0  0.076658  0.058788  0  3.815894  0
C  C59  1  0.27747841  0.04806899  0.34815688  1  0  0.109252  0  3.570613  0  0  0.063947  0  3.826735  0  0  0.072717  0  3.84047  0  0  0.076643  0.0589  0  3.815986  0
C  C60  1  0.78873639  0.42073860  0.22745735  1  0  0.115533  0  3.543733  0  0  0.07314  0  3.793781  0  0  0.081534  0  3.808033  0  0  0.079162  0.066808  0  3.785735  0
C  C61  1  0.28873059  0.22745669  0.42074465  1  0  0.115617  0  3.543629  0  0  0.073068  0  3.79385  0  0  0.081445  0  3.808095  0  0  0.079038  0.066744  0  3.785807  0
C  C62  1  0.89143582  0.48666235  0.17294081  1  0  -0.118014  0  3.628737  0  0  -0.136193  0  3.878274  0  0  -0.143556  0  3.896844  0  0  -0.055153  -0.132698  0  3.86752  0
C  C63  1  0.39142734  0.17294405  0.48666174  1  0  -0.117957  0  3.628652  0  0  -0.135975  0  3.878251  0  0  -0.143342  0  3.896837  0  0  -0.055075  -0.132482  0  3.867503  0
C  C64  1  0.87890808  0.41302832  0.98948583  1  0  -0.116554  0  3.637204  0  0  -0.136758  0  3.889081  0  0  -0.143416  0  3.90655  0  0  -0.053483  -0.132323  0  3.876522  0
C  C65  1  0.37889692  0.98949476  0.41302391  1  0  -0.116711  0  3.637431  0  0  -0.136749  0  3.889284  0  0  -0.143408  0  3.90675  0  0  -0.053483  -0.132314  0  3.876741  0
C  C66  1  0.93843209  0.48448459  0.05145729  1  0  0.106369  0  3.714756  0  0  0.113943  0  3.948388  0  0  0.11856  0  3.969614  0  0  0.029288  0.111459  0  3.933804  0
C  C67  1  0.43842830  0.05146192  0.48448254  1  0  0.106583  0  3.714345  0  0  0.113871  0  3.948261  0  0  0.118488  0  3.969487  0  0  0.029323  0.111381  0  3.933688  0
C  C68  1  0.04716934  0.55448829  0.99064900  1  0  0.105622  0  3.715465  0  0  0.112264  0  3.94988  0  0  0.116753  0  3.971157  0  0  0.030778  0.109834  0  3.935282  0
C  C69  1  0.54716871  0.99065472  0.55448618  1  0  0.10535  0  3.715523  0  0  0.112192  0  3.949888  0  0  0.116687  0  3.971146  0  0  0.030728  0.10976  0  3.935303  0
C  C70  1  0.11051403  0.62310393  0.05271427  1  0  -0.114744  0  3.638082  0  0  -0.13455  0  3.890056  0  0  -0.141018  0  3.907294  0  0  -0.053047  -0.130231  0  3.877761  0
C  C71  1  0.61052408  0.05271320  0.62309766  1  0  -0.114667  0  3.637923  0  0  -0.134521  0  3.889866  0  0  -0.140991  0  3.907111  0  0  -0.053025  -0.130201  0  3.877572  0
C  C72  1  0.09031436  0.55512283  0.86906195  1  0  -0.118844  0  3.633317  0  0  -0.137279  0  3.883095  0  0  -0.144734  0  3.901844  0  0  -0.055906  -0.133693  0  3.872151  0
C  C73  1  0.59030085  0.86907097  0.55512591  1  0  -0.118703  0  3.63322  0  0  -0.13725  0  3.883085  0  0  -0.144689  0  3.901842  0  0  -0.055917  -0.133671  0  3.872148  0
C  C74  1  0.19292842  0.62107558  0.81460168  1  0  0.11309  0  3.54638  0  0  0.071222  0  3.79596  0  0  0.079426  0  3.810463  0  0  0.076895  0.064989  0  3.78776  0
C  C75  1  0.69291644  0.81460864  0.62108002  1  0  0.113189  0  3.546311  0  0  0.071339  0  3.796025  0  0  0.079545  0  3.810527  0  0  0.076895  0.065092  0  3.78783  0
C  C76  1  0.21128316  0.68849981  0.99419578  1  0  0.110339  0  3.57003  0  0  0.065134  0  3.825805  0  0  0.073958  0  3.839328  0  0  0.076175  0.059982  0  3.81528  0
C  C77  1  0.71129090  0.99419475  0.68849740  1  0  0.11031  0  3.569739  0  0  0.06513  0  3.82557  0  0  0.073954  0  3.839097  0  0  0.076179  0.059985  0  3.815044  0
C  C78  1  0.35403068  0.76199995  0.81578146  1  0  -0.078162  0  3.604703  0  0  -0.144483  0  3.852201  0  0  -0.141048  0  3.861201  0  0  -0.052782  -0.146214  0  3.845538  0
C  C79  1  0.85402486  0.81578075  0.76200554  1  0  -0.078146  0  3.604793  0  0  -0.144467  0  3.85228  0  0  -0.141034  0  3.861279  0  0  -0.052808  -0.146189  0  3.845622  0
C  C80  1  0.25701523  0.87445768  0.78419655  1  0  0.060432  0  3.775191  0  0  0.078204  0  4.019101  0  0  0.077976  0  4.044284  0  0  -0.020452  0.078967  0  4.001729  0
C  C81  1  0.75700373  0.78419704  0.87446223  1  0  0.060449  0  3.775096  0  0  0.078227  0  4.018994  0  0  0.077999  0  4.044163  0  0  -0.020463  0.078988  0  4.001632  0
C  C82  1  0.21036788  0.97011507  0.86102706  1  0  -0.138166  0  3.779123  0  0  -0.156345  0  4.026233  0  0  -0.16037  0  4.048767  0  0  -0.100845  -0.153884  0  4.011033  0
C  C83  1  0.71034535  0.86103449  0.97011857  1  0  -0.138087  0  3.778894  0  0  -0.156244  0  4.025969  0  0  -0.160266  0  4.048506  0  0  -0.100752  -0.15379  0  4.010791  0
C  C84  1  0.20933095  0.88366946  0.67931705  1  0  -0.120537  0  3.71408  0  0  -0.138975  0  3.96454  0  0  -0.142778  0  3.985135  0  0  -0.093744  -0.137279  0  3.951101  0
C  C85  1  0.70932049  0.67932039  0.88367858  1  0  -0.120557  0  3.714412  0  0  -0.139057  0  3.964871  0  0  -0.142816  0  3.985502  0  0  -0.093768  -0.137357  0  3.951425  0
C  C86  1  0.11491478  0.98671036  0.65251202  1  0  -0.079298  0  3.751951  0  0  -0.103277  0  4.005705  0  0  -0.103124  0  4.02535  0  0  -0.091189  -0.102871  0  3.991417  0
C  C87  1  0.61490440  0.65251787  0.98671984  1  0  -0.079237  0  3.752066  0  0  -0.103189  0  4.005838  0  0  -0.103031  0  4.025454  0  0  -0.091177  -0.102787  0  3.991549  0
C  C88  1  0.11613811  0.07307446  0.83394232  1  0  -0.072506  0  3.758768  0  0  -0.091825  0  4.001493  0  0  -0.091883  0  4.022091  0  0  -0.091162  -0.09151  0  3.987693  0
C  C89  1  0.61611113  0.83395096  0.07308207  1  0  -0.07271  0  3.758729  0  0  -0.09206  0  4.001481  0  0  -0.092121  0  4.022076  0  0  -0.091278  -0.091745  0  3.987688  0
C  C90  1  0.06684122  0.08211447  0.72936868  1  0  -0.065649  0  3.759287  0  0  -0.0435  0  3.990485  0  0  -0.0509  0  4.013079  0  0  -0.022955  -0.03868  0  3.975199  0
C  C91  1  0.56681960  0.72937414  0.08212162  1  0  -0.065456  0  3.75897  0  0  -0.043292  0  3.990121  0  0  -0.05068  0  4.012714  0  0  -0.02292  -0.038467  0  3.97483  0
C  C92  1  0.96064986  0.19263460  0.70191143  1  0  0.609037  0  3.987315  0  0  0.564152  0  4.277982  0  0  0.598121  0  4.272992  0  0  0.179864  0.541118  0  4.280391  0
C  C93  1  0.46062713  0.70192188  0.19264436  1  0  0.60863  0  3.987637  0  0  0.563737  0  4.278344  0  0  0.597697  0  4.273365  0  0  0.179596  0.540721  0  4.280767  0
C  C94  1  0.98875366  0.49733291  0.46033363  1  0  0.525423  0  3.932765  0  0  0.483247  0  4.227585  0  0  0.512923  0  4.22139  0  0  0.192598  0.463141  0  4.230462  0
C  C95  1  0.48876358  0.46032138  0.49734386  1  0  0.525427  0  3.932709  0  0  0.48331  0  4.227389  0  0  0.51298  0  4.221195  0  0  0.192676  0.463209  0  4.230269  0
C  C96  1  0.99772324  0.54368420  0.58046299  1  0  0.527208  0  3.933846  0  0  0.484309  0  4.229216  0  0  0.514043  0  4.222966  0  0  0.192338  0.464171  0  4.232157  0
C  C97  1  0.49775069  0.58044121  0.54370072  1  0  0.526784  0  3.934227  0  0  0.483891  0  4.229552  0  0  0.513627  0  4.223304  0  0  0.192124  0.463757  0  4.232501  0
N  N98  1  0.73352499  0.35277398  0.16501741  1  0  0.015393  0  3.517675  0  0  0.110704  0  3.725622  0  0  0.097841  0  3.751114  0  0  -0.197471  0.118726  0  3.708117  0
N  N99  1  0.23350555  0.16502459  0.35277964  1  0  0.015306  0  3.517523  0  0  0.110647  0  3.725539  0  0  0.097779  0  3.751043  0  0  -0.197463  0.118664  0  3.708051  0
N  N100  1  0.25148314  0.68660572  0.87720105  1  0  0.013238  0  3.521968  0  0  0.109162  0  3.729271  0  0  0.096267  0  3.754774  0  0  -0.196153  0.117152  0  3.711816  0
N  N101  1  0.75148351  0.87720047  0.68660531  1  0  0.013116  0  3.522008  0  0  0.109075  0  3.729279  0  0  0.096182  0  3.754782  0  0  -0.196177  0.117063  0  3.711833  0
O  O102  1  0.06406710  0.84121585  0.43533939  1  0  -0.636698  0  1.931338  0  0  -0.579911  0  2.167113  0  0  -0.609369  0  2.160255  0  0  -0.335838  -0.559328  0  2.170767  0
O  O103  1  0.56406810  0.43533322  0.84121094  1  0  -0.636522  0  1.931499  0  0  -0.579712  0  2.16726  0  0  -0.609168  0  2.160406  0  0  -0.3358  -0.559193  0  2.170961  0
O  O104  1  0.07325368  0.76696682  0.26105564  1  0  -0.646943  0  1.982965  0  0  -0.592936  0  2.215789  0  0  -0.621559  0  2.208916  0  0  -0.332927  -0.572237  0  2.219575  0
O  O105  1  0.57327677  0.26104348  0.76697599  1  0  -0.646785  0  1.982853  0  0  -0.592766  0  2.215714  0  0  -0.621395  0  2.208848  0  0  -0.332952  -0.572133  0  2.219541  0
O  O106  1  0.92362434  0.19882688  0.60397331  1  0  -0.635881  0  1.926614  0  0  -0.579698  0  2.163099  0  0  -0.608967  0  2.156303  0  0  -0.333893  -0.559348  0  2.166669  0
O  O107  1  0.42360801  0.60398300  0.19884488  1  0  -0.635786  0  1.926811  0  0  -0.579586  0  2.163271  0  0  -0.608896  0  2.156565  0  0  -0.333799  -0.559252  0  2.16685  0
O  O108  1  0.91115602  0.27250393  0.77914519  1  0  -0.645772  0  1.98648  0  0  -0.591565  0  2.219899  0  0  -0.620145  0  2.212929  0  0  -0.332946  -0.571031  0  2.223789  0
O  O109  1  0.41112516  0.77915781  0.27251410  1  0  -0.645569  0  1.986521  0  0  -0.591353  0  2.219928  0  0  -0.619924  0  2.212972  0  0  -0.332841  -0.570886  0  2.223862  0
O  O110  1  0.08620056  0.61276971  0.58080792  1  0  -0.609107  0  2.048662  0  0  -0.556709  0  2.293874  0  0  -0.583343  0  2.286589  0  0  -0.319897  -0.537088  0  2.298035  0
O  O111  1  0.58620397  0.58080228  0.61275687  1  0  -0.608484  0  2.049888  0  0  -0.556082  0  2.295054  0  0  -0.582707  0  2.287784  0  0  -0.319641  -0.536504  0  2.299241  0
O  O112  1  0.07292830  0.53036254  0.36998372  1  0  -0.612212  0  2.063731  0  0  -0.554715  0  2.313135  0  0  -0.581184  0  2.302658  0  0  -0.321874  -0.53506  0  2.319248  0
O  O113  1  0.57292909  0.36998846  0.53035289  1  0  -0.612148  0  2.064403  0  0  -0.554669  0  2.313779  0  0  -0.581131  0  2.303305  0  0  -0.321897  -0.535011  0  2.319849  0
O  O114  1  0.89961771  0.42876740  0.46005517  1  0  -0.608671  0  2.046687  0  0  -0.556466  0  2.291981  0  0  -0.583115  0  2.284745  0  0  -0.319471  -0.536786  0  2.296111  0
O  O115  1  0.39959611  0.46005141  0.42876895  1  0  -0.608857  0  2.045897  0  0  -0.556641  0  2.291066  0  0  -0.583289  0  2.28383  0  0  -0.319594  -0.536974  0  2.295197  0
O  O116  1  0.91443227  0.50988608  0.67075172  1  0  -0.610976  0  2.068758  0  0  -0.551857  0  2.316066  0  0  -0.578382  0  2.305608  0  0  -0.31947  -0.532225  0  2.32218  0
O  O117  1  0.41441013  0.67075346  0.50989155  1  0  -0.611116  0  2.067473  0  0  -0.551997  0  2.314806  0  0  -0.578551  0  2.304366  0  0  -0.319517  -0.532377  0  2.320934  0
