# generated using pymatgen
data_CdH18C26(N2Cl)2
_symmetry_space_group_name_H-M   'P 1'
_cell_length_a   13.27356548
_cell_length_b   16.23731519
_cell_length_c   16.23733712
_cell_angle_alpha   112.87251097
_cell_angle_beta   105.81342081
_cell_angle_gamma   105.81316186
_symmetry_Int_Tables_number   1
_chemical_formula_structural   CdH18C26(N2Cl)2
_chemical_formula_sum   'Cd3 H54 C78 N12 Cl6'
_cell_volume   2805.53399756
_cell_formula_units_Z   3
loop_
 _symmetry_equiv_pos_site_id
 _symmetry_equiv_pos_as_xyz
  1  'x, y, z'
loop_
 _atom_site_type_symbol
 _atom_site_label
 _atom_site_symmetry_multiplicity
 _atom_site_fract_x
 _atom_site_fract_y
 _atom_site_fract_z
 _atom_site_occupancy
 _atom_site_pbe_bader_charge
 _atom_site_pbe_bader_spin_density
 _atom_site_pbe_cm5_charge
 _atom_site_pbe_ddec_charge
 _atom_site_pbe_ddec_spin_density
 _atom_site_pbe_ddec_sum_bond_order
 _atom_site_pbe_magmom
Cd  Cd0  1  0.50000338  0.50000164  0.99999965  1  1.165049  0  0.662594  0.679972  0  2.397082  0
Cd  Cd1  1  0.49999830  0.99999956  0.49999971  1  1.165089  0  0.662615  0.680008  0  2.397097  0
Cd  Cd2  1  0.99999991  0.49999828  0.49999908  1  1.159015  0  0.66221  0.679909  0  2.396453  0
H  H3  1  0.39139924  0.56268736  0.84599890  1  0.138227  0  0.101844  0.083259  0  1.036585  0
H  H4  1  0.37047587  0.54896272  0.68222697  1  0.142833  0  0.091192  0.114629  0  1.069166  0
H  H5  1  0.64209196  0.44904135  0.70303068  1  0.06111  0  0.102034  0.107234  0  1.029882  0
H  H6  1  0.65063836  0.46720573  0.86590775  1  0.125953  0  0.102451  0.079171  0  1.036682  0
H  H7  1  0.54544369  0.15400665  0.71669696  1  0.14744  0  0.102457  0.084011  0  1.035007  0
H  H8  1  0.68827093  0.31778289  0.86673134  1  0.147553  0  0.091512  0.115515  0  1.069238  0
H  H9  1  0.93905821  0.29695818  0.74594999  1  0.059899  0  0.102062  0.107293  0  1.029856  0
H  H10  1  0.78468559  0.13409488  0.60121216  1  0.127023  0  0.102007  0.078001  0  1.037059  0
H  H11  1  0.82874815  0.28328262  0.43727297  1  0.129234  0  0.102218  0.083469  0  1.035692  0
H  H12  1  0.82156354  0.13320648  0.45091632  1  0.127604  0  0.091457  0.115627  0  1.067489  0
H  H13  1  0.19320452  0.25404004  0.55102888  1  0.0625  0  0.102165  0.107933  0  1.028948  0
H  H14  1  0.18344302  0.39875194  0.53286229  1  0.113546  0  0.102272  0.07911  0  1.036998  0
H  H15  1  0.45455585  0.28330266  0.84599278  1  0.147384  0  0.10245  0.083986  0  1.035022  0
H  H16  1  0.31172799  0.13326836  0.68221725  1  0.147551  0  0.091522  0.115533  0  1.069219  0
H  H17  1  0.06094109  0.25405008  0.70304076  1  0.059718  0  0.102066  0.107324  0  1.029834  0
H  H18  1  0.21531360  0.39878863  0.86590395  1  0.127045  0  0.101996  0.077978  0  1.03708  0
H  H19  1  0.17125209  0.56272532  0.71671688  1  0.129244  0  0.102186  0.083419  0  1.035742  0
H  H20  1  0.17843657  0.54908299  0.86679333  1  0.127596  0  0.091454  0.115632  0  1.067474  0
H  H21  1  0.80679600  0.44897135  0.74596051  1  0.062514  0  0.102175  0.107946  0  1.028926  0
H  H22  1  0.81655551  0.46713684  0.60124647  1  0.113579  0  0.102272  0.079104  0  1.036992  0
H  H23  1  0.60859901  0.15400166  0.43731143  1  0.138242  0  0.101855  0.083309  0  1.036561  0
H  H24  1  0.62952230  0.31777157  0.45103700  1  0.142859  0  0.091133  0.114552  0  1.069114  0
H  H25  1  0.35790677  0.29696819  0.55095916  1  0.06106  0  0.102034  0.107242  0  1.029863  0
H  H26  1  0.34936205  0.13409256  0.53279360  1  0.125974  0  0.10242  0.07916  0  1.036633  0
H  H27  1  0.60860063  0.43731334  0.15400132  1  0.138243  0  0.101847  0.083266  0  1.036577  0
H  H28  1  0.62952326  0.45103650  0.31777067  1  0.142857  0  0.09114  0.114555  0  1.069126  0
H  H29  1  0.35790755  0.55095862  0.29696671  1  0.061068  0  0.102026  0.10722  0  1.029909  0
H  H30  1  0.34936036  0.53279423  0.13408946  1  0.125914  0  0.102446  0.079174  0  1.036709  0
H  H31  1  0.45455507  0.84599183  0.28330154  1  0.147364  0  0.102453  0.083993  0  1.035032  0
H  H32  1  0.31172779  0.68221707  0.13326896  1  0.147569  0  0.091521  0.11553  0  1.069229  0
H  H33  1  0.06094171  0.70304104  0.25405151  1  0.059891  0  0.102076  0.107336  0  1.029802  0
H  H34  1  0.21531548  0.86590508  0.39878866  1  0.127058  0  0.10201  0.078004  0  1.037064  0
H  H35  1  0.17125333  0.71671660  0.56272704  1  0.129213  0  0.102212  0.083446  0  1.03573  0
H  H36  1  0.17843909  0.86679349  0.54908423  1  0.127711  0  0.091464  0.115652  0  1.067489  0
H  H37  1  0.80679692  0.74596066  0.44897231  1  0.062543  0  0.102157  0.107924  0  1.028926  0
H  H38  1  0.81655689  0.60124729  0.46713799  1  0.11362  0  0.102258  0.079079  0  1.037017  0
H  H39  1  0.54544324  0.71669804  0.15400727  1  0.147317  0  0.102473  0.084049  0  1.035008  0
H  H40  1  0.68827193  0.86673087  0.31778303  1  0.147565  0  0.091521  0.11553  0  1.069228  0
H  H41  1  0.93905961  0.74594914  0.29695846  1  0.0597  0  0.102091  0.107349  0  1.029802  0
H  H42  1  0.78468549  0.60121208  0.13409486  1  0.127019  0  0.101993  0.077966  0  1.037096  0
H  H43  1  0.82874745  0.43727317  0.28328241  1  0.129209  0  0.102204  0.083463  0  1.0357  0
H  H44  1  0.82156335  0.45091623  0.13320571  1  0.127599  0  0.091456  0.115627  0  1.067482  0
H  H45  1  0.19320470  0.55102787  0.25403933  1  0.0625  0  0.10216  0.107932  0  1.028948  0
H  H46  1  0.18344326  0.53286165  0.39875202  1  0.113586  0  0.102265  0.079084  0  1.037022  0
H  H47  1  0.39140045  0.84599978  0.56268714  1  0.138386  0  0.101852  0.083263  0  1.036591  0
H  H48  1  0.37047642  0.68222839  0.54896207  1  0.142862  0  0.09114  0.114562  0  1.069112  0
H  H49  1  0.64209195  0.70303177  0.44904113  1  0.061069  0  0.102036  0.107237  0  1.029875  0
H  H50  1  0.65063820  0.86590888  0.46720576  1  0.125948  0  0.102456  0.07918  0  1.036691  0
H  H51  1  0.50013409  0.63735131  0.63734895  1  0.0949  0  0.108785  0.118235  0  0.998668  0
H  H52  1  0.86289113  0.36258888  0.99999020  1  0.094868  0  0.108568  0.117304  0  0.998088  0
H  H53  1  0.86289213  0.99998990  0.36258930  1  0.094883  0  0.108571  0.117313  0  0.998086  0
H  H54  1  0.13710779  0.00000932  0.63741097  1  0.095033  0  0.108588  0.117325  0  0.99808  0
H  H55  1  0.13710800  0.63741034  0.00000867  1  0.09504  0  0.108571  0.117307  0  0.998086  0
H  H56  1  0.49986532  0.36265161  0.36265450  1  0.09504  0  0.108758  0.118207  0  0.99873  0
C  C57  1  0.44533993  0.53807638  0.81112780  1  0.426587  0  0.041928  0.099764  0  3.949145  0
C  C58  1  0.43442631  0.53032078  0.72044871  1  -0.021758  0  -0.088681  -0.177352  0  3.921355  0
C  C59  1  0.50513655  0.49731615  0.67850641  1  -0.027722  0  0.009131  0.10981  0  3.994985  0
C  C60  1  0.58446798  0.47415681  0.73175391  1  -0.032693  0  -0.088485  -0.179873  0  3.959425  0
C  C61  1  0.59029868  0.48468334  0.82235816  1  0.458205  0  0.038981  0.090784  0  3.969727  0
C  C62  1  0.49924536  0.49363083  0.58464483  1  0.018815  0  -0.000326  0.029425  0  3.954821  0
C  C63  1  0.63423305  0.18890233  0.72694633  1  0.406837  0  0.040956  0.099595  0  3.945437  0
C  C64  1  0.71400276  0.27960684  0.80983044  1  -0.007082  0  -0.089366  -0.179166  0  3.920195  0
C  C65  1  0.82666624  0.32150448  0.81878184  1  -0.037503  0  0.010001  0.11076  0  3.993026  0
C  C66  1  0.85271907  0.26826855  0.74235283  1  0.015011  0  -0.08827  -0.180165  0  3.962029  0
C  C67  1  0.76795301  0.17765650  0.66228327  1  0.424102  0  0.039013  0.092283  0  3.967735  0
C  C68  1  0.91460446  0.41534776  0.90898061  1  -0.006618  0  -0.00058  0.028737  0  3.954355  0
C  C69  1  0.90727724  0.27300196  0.46188406  1  0.4349  0  0.041696  0.100871  0  3.946658  0
C  C70  1  0.90417943  0.19009815  0.46966210  1  -0.004214  0  -0.089054  -0.18027  0  3.91902  0
C  C71  1  0.00789967  0.18118731  0.50268564  1  -0.019557  0  0.010016  0.113178  0  3.9902  0
C  C72  1  0.11041918  0.25756797  0.52583869  1  -0.032148  0  -0.087996  -0.180909  0  3.959764  0
C  C73  1  0.10566897  0.33761261  0.51527040  1  0.471502  0  0.03828  0.089862  0  3.966858  0
C  C74  1  0.00557916  0.09099553  0.50639391  1  -0.008961  0  -0.001219  0.027928  0  3.951301  0
C  C75  1  0.36576572  0.27305274  0.81109698  1  0.406861  0  0.040961  0.099639  0  3.945449  0
C  C76  1  0.28599681  0.19016930  0.72039342  1  -0.007071  0  -0.089364  -0.179157  0  3.920164  0
C  C77  1  0.17333309  0.18121817  0.67849547  1  -0.037489  0  0.009973  0.110666  0  3.993127  0
C  C78  1  0.14727991  0.25764753  0.73173146  1  0.014995  0  -0.088259  -0.180153  0  3.962118  0
C  C79  1  0.23204615  0.33771718  0.82234232  1  0.424064  0  0.038991  0.092277  0  3.96782  0
C  C80  1  0.08539483  0.09101786  0.58465337  1  -0.006543  0  -0.000517  0.028772  0  3.954376  0
C  C81  1  0.09272120  0.53811419  0.72699726  1  0.434934  0  0.041715  0.100888  0  3.946739  0
C  C82  1  0.09582089  0.53033659  0.80990179  1  -0.004277  0  -0.08907  -0.18027  0  3.918967  0
C  C83  1  0.99210004  0.49731283  0.81881240  1  -0.019511  0  0.010007  0.113168  0  3.990195  0
C  C84  1  0.88958137  0.47416083  0.74243090  1  -0.03215  0  -0.088008  -0.180947  0  3.95979  0
C  C85  1  0.89433010  0.48472960  0.66238637  1  0.471441  0  0.038282  0.089906  0  3.966825  0
C  C86  1  0.99442181  0.49360593  0.90900405  1  -0.008929  0  -0.001234  0.027862  0  3.951425  0
C  C87  1  0.55465858  0.18887123  0.46192213  1  0.426476  0  0.041932  0.099712  0  3.949098  0
C  C88  1  0.56557232  0.27955221  0.46967963  1  -0.021707  0  -0.088638  -0.177283  0  3.92127  0
C  C89  1  0.49486707  0.32149690  0.50268865  1  -0.028525  0  0.009173  0.109757  0  3.995047  0
C  C90  1  0.41553209  0.26824522  0.52584345  1  -0.032051  0  -0.088509  -0.179882  0  3.959443  0
C  C91  1  0.40970054  0.17764030  0.51531476  1  0.458863  0  0.039019  0.090776  0  3.969802  0
C  C92  1  0.50075895  0.41535883  0.50637482  1  -0.009591  0  -0.000247  0.029656  0  3.954824  0
C  C93  1  0.55465879  0.46192358  0.18887188  1  0.425505  0  0.041914  0.09973  0  3.949087  0
C  C94  1  0.56557278  0.46967992  0.27955134  1  -0.021663  0  -0.08861  -0.177233  0  3.921186  0
C  C95  1  0.49486287  0.50268677  0.32149457  1  -0.028787  0  0.009155  0.109741  0  3.994954  0
C  C96  1  0.41553300  0.52584611  0.26824557  1  -0.031749  0  -0.088505  -0.179836  0  3.959432  0
C  C97  1  0.40970157  0.51531810  0.17764059  1  0.458361  0  0.038956  0.090685  0  3.969782  0
C  C98  1  0.50075830  0.50637431  0.41535858  1  -0.009681  0  -0.00024  0.029619  0  3.954781  0
C  C99  1  0.36576571  0.81109616  0.27305278  1  0.406475  0  0.040963  0.099631  0  3.945571  0
C  C100  1  0.28599712  0.72039386  0.19016978  1  -0.006764  0  -0.089392  -0.17918  0  3.920269  0
C  C101  1  0.17333285  0.67849622  0.18121821  1  -0.037492  0  0.009969  0.110666  0  3.9931  0
C  C102  1  0.14728081  0.73173215  0.25764678  1  0.015014  0  -0.088278  -0.180224  0  3.962081  0
C  C103  1  0.23204690  0.82234272  0.33771700  1  0.424062  0  0.039016  0.092322  0  3.967722  0
C  C104  1  0.08539385  0.58465294  0.09101803  1  -0.006637  0  -0.00053  0.028792  0  3.954355  0
C  C105  1  0.09272305  0.72699801  0.53811473  1  0.434909  0  0.041726  0.100913  0  3.946735  0
C  C106  1  0.09582242  0.80990182  0.53033704  1  -0.004427  0  -0.089089  -0.180342  0  3.919071  0
C  C107  1  0.99210218  0.81881265  0.49731474  1  -0.019526  0  0.010026  0.113179  0  3.990182  0
C  C108  1  0.88958309  0.74243125  0.47416211  1  -0.032102  0  -0.088001  -0.18091  0  3.959814  0
C  C109  1  0.89433246  0.66238809  0.48473140  1  0.471458  0  0.03831  0.089919  0  3.966914  0
C  C110  1  0.99442384  0.90900517  0.49360578  1  -0.00893  0  -0.001202  0.027935  0  3.951402  0
C  C111  1  0.63423415  0.72694796  0.18890386  1  0.406906  0  0.040948  0.099549  0  3.945489  0
C  C112  1  0.71400348  0.80983066  0.27960661  1  -0.007083  0  -0.089354  -0.17912  0  3.920207  0
C  C113  1  0.82666720  0.81878180  0.32150517  1  -0.037486  0  0.009963  0.110668  0  3.993106  0
C  C114  1  0.85271959  0.74235243  0.26826840  1  0.015028  0  -0.088286  -0.180213  0  3.962104  0
C  C115  1  0.76795335  0.66228279  0.17765753  1  0.424096  0  0.039018  0.09233  0  3.967777  0
C  C116  1  0.91460702  0.90898210  0.41534701  1  -0.006656  0  -0.000575  0.028717  0  3.954491  0
C  C117  1  0.90727987  0.46188577  0.27300294  1  0.434983  0  0.041651  0.100736  0  3.946745  0
C  C118  1  0.90417903  0.46966263  0.19009849  1  -0.004326  0  -0.089064  -0.180214  0  3.918991  0
C  C119  1  0.00789873  0.50268565  0.18118795  1  -0.019472  0  0.010039  0.113165  0  3.990162  0
C  C120  1  0.11041892  0.52583913  0.25756789  1  -0.032147  0  -0.087992  -0.180904  0  3.959695  0
C  C121  1  0.10567018  0.51527036  0.33761304  1  0.471424  0  0.03828  0.089889  0  3.966781  0
C  C122  1  0.00557655  0.50639329  0.09099465  1  -0.008893  0  -0.001243  0.027879  0  3.951371  0
C  C123  1  0.44534093  0.81112873  0.53807649  1  0.42638  0  0.041905  0.099715  0  3.949143  0
C  C124  1  0.43442599  0.72044849  0.53031901  1  -0.02168  0  -0.088594  -0.177199  0  3.921217  0
C  C125  1  0.50513547  0.67850602  0.49731241  1  -0.028455  0  0.009135  0.109735  0  3.99504  0
C  C126  1  0.58446742  0.73175474  0.47415517  1  -0.0321  0  -0.08854  -0.179922  0  3.95945  0
C  C127  1  0.59029818  0.82235966  0.48468307  1  0.458329  0  0.039012  0.090794  0  3.969717  0
C  C128  1  0.49924046  0.58464409  0.49362863  1  0.018843  0  -0.000301  0.029537  0  3.954812  0
C  C129  1  0.49779348  0.57577766  0.57577729  1  -0.070638  0  -0.077299  -0.152643  0  3.936174  0
C  C130  1  0.92200562  0.42421129  0.99998490  1  -0.054253  0  -0.076681  -0.150398  0  3.934426  0
C  C131  1  0.92200616  0.99998461  0.42421069  1  -0.054272  0  -0.076692  -0.150412  0  3.934467  0
C  C132  1  0.07799454  0.00001461  0.57578852  1  -0.054426  0  -0.076737  -0.150438  0  3.934541  0
C  C133  1  0.07799389  0.57578867  0.00001496  1  -0.054424  0  -0.076672  -0.15037  0  3.934433  0
C  C134  1  0.50221018  0.42422747  0.42422735  1  -0.070748  0  -0.077243  -0.152649  0  3.936151  0
N  N135  1  0.52171152  0.51585927  0.86168989  1  -1.226951  0  -0.325894  -0.232192  0  3.488435  0
N  N136  1  0.66002661  0.13832890  0.65415202  1  -1.237724  0  -0.325784  -0.232804  0  3.481469  0
N  N137  1  0.00589569  0.34580913  0.48416523  1  -1.234524  0  -0.325974  -0.232575  0  3.482581  0
N  N138  1  0.33997349  0.34584844  0.86167006  1  -1.237682  0  -0.325774  -0.232814  0  3.481477  0
N  N139  1  0.99410244  0.51583356  0.65419001  1  -1.234526  0  -0.325932  -0.232551  0  3.482583  0
N  N140  1  0.47828918  0.13830996  0.48414153  1  -1.227454  0  -0.325912  -0.232176  0  3.488474  0
N  N141  1  0.47828720  0.48414069  0.13830733  1  -1.22593  0  -0.325883  -0.232129  0  3.488381  0
N  N142  1  0.33997330  0.86167032  0.34584763  1  -1.237612  0  -0.32577  -0.232802  0  3.481458  0
N  N143  1  0.99410575  0.65419157  0.51583472  1  -1.23457  0  -0.325997  -0.232596  0  3.482589  0
N  N144  1  0.66002638  0.65415226  0.13832955  1  -1.237624  0  -0.325781  -0.232791  0  3.48143  0
N  N145  1  0.00589863  0.48416641  0.34581080  1  -1.234525  0  -0.325922  -0.232482  0  3.482531  0
N  N146  1  0.52171106  0.86169148  0.51585844  1  -1.226983  0  -0.325911  -0.232186  0  3.488449  0
Cl  Cl147  1  0.64072872  0.41506026  0.00001329  1  -0.702322  0  -0.331122  -0.555285  0  1.12128  0
Cl  Cl148  1  0.64072620  0.00001357  0.41506065  1  -0.702311  0  -0.331135  -0.555301  0  1.121265  0
Cl  Cl149  1  0.22565635  0.58497560  0.58497508  1  -0.699739  0  -0.330916  -0.554748  0  1.121432  0
Cl  Cl150  1  0.35927391  0.58493971  0.99998603  1  -0.702325  0  -0.331118  -0.555278  0  1.121262  0
Cl  Cl151  1  0.77434389  0.41502584  0.41502366  1  -0.69975  0  -0.330908  -0.554732  0  1.121429  0
Cl  Cl152  1  0.35927252  0.99998640  0.58493903  1  -0.702318  0  -0.331123  -0.555282  0  1.121289  0
