# generated using pymatgen
data_ZnH17C18I(NO)4
_symmetry_space_group_name_H-M   'P 1'
_cell_length_a   7.98779721
_cell_length_b   17.19351921
_cell_length_c   17.34895212
_cell_angle_alpha   90.00015840
_cell_angle_beta   89.99948549
_cell_angle_gamma   95.22475681
_symmetry_Int_Tables_number   1
_chemical_formula_structural   ZnH17C18I(NO)4
_chemical_formula_sum   'Zn4 H68 C72 I4 N16 O16'
_cell_volume   2372.77668979
_cell_formula_units_Z   4
loop_
 _symmetry_equiv_pos_site_id
 _symmetry_equiv_pos_as_xyz
  1  'x, y, z'
loop_
 _atom_site_type_symbol
 _atom_site_label
 _atom_site_symmetry_multiplicity
 _atom_site_fract_x
 _atom_site_fract_y
 _atom_site_fract_z
 _atom_site_occupancy
 _atom_site_pbe_bader_charge
 _atom_site_pbe_bader_spin_density
 _atom_site_pbe_cm5_charge
 _atom_site_pbe_ddec_charge
 _atom_site_pbe_ddec_spin_density
 _atom_site_pbe_ddec_sum_bond_order
 _atom_site_pbe_magmom
Zn  Zn0  1  0.90974683  0.78342155  0.81830338  1  1.2578  0  0.688433  0.784712  0  2.424323  0
Zn  Zn1  1  0.59025699  0.71658110  0.31830660  1  1.257587  0  0.688354  0.784637  0  2.424336  0
Zn  Zn2  1  0.09025207  0.21657812  0.18169639  1  1.257756  0  0.688396  0.784684  0  2.424262  0
Zn  Zn3  1  0.40974729  0.28342031  0.68169374  1  1.257626  0  0.688364  0.78466  0  2.424285  0
H  H4  1  0.17547787  0.00434413  0.77726446  1  0.100452  0  0.098884  0.106503  0  1.039116  0
H  H5  1  0.32452873  0.49566207  0.27727267  1  0.100399  0  0.098872  0.106481  0  1.039139  0
H  H6  1  0.82451929  0.99565321  0.22273185  1  0.100428  0  0.09891  0.106554  0  1.03912  0
H  H7  1  0.67548241  0.50434225  0.72273402  1  0.100465  0  0.098905  0.106567  0  1.039083  0
H  H8  1  0.66865085  0.11862978  0.81615125  1  0.102765  0  0.10277  0.114466  0  1.019022  0
H  H9  1  0.83135262  0.38137197  0.31614874  1  0.102787  0  0.102793  0.114537  0  1.019  0
H  H10  1  0.33134317  0.88137049  0.18385082  1  0.102604  0  0.102741  0.114418  0  1.019022  0
H  H11  1  0.16865391  0.61862827  0.68384872  1  0.102644  0  0.102744  0.11444  0  1.019059  0
H  H12  1  0.52380793  0.89331734  0.92024823  1  0.126813  0  0.105257  0.12065  0  1.003705  0
H  H13  1  0.97617117  0.60668440  0.42025014  1  0.126674  0  0.105245  0.120585  0  1.003693  0
H  H14  1  0.47618448  0.10668118  0.07975326  1  0.126848  0  0.105259  0.120631  0  1.003705  0
H  H15  1  0.02382422  0.39331645  0.57975020  1  0.126733  0  0.105265  0.120648  0  1.003629  0
H  H16  1  0.84558196  0.94097121  0.72262360  1  0.140423  0  0.120925  0.121777  0  0.997507  0
H  H17  1  0.65441797  0.55902776  0.22262382  1  0.140418  0  0.120921  0.121799  0  0.997492  0
H  H18  1  0.15441295  0.05902730  0.27737502  1  0.140351  0  0.120948  0.121822  0  0.997521  0
H  H19  1  0.34558469  0.44097191  0.77737307  1  0.140425  0  0.120935  0.121822  0  0.997461  0
H  H20  1  0.53468204  0.95651305  0.65282984  1  0.121987  0  0.127858  0.129822  0  0.986021  0
H  H21  1  0.96532286  0.54348520  0.15283162  1  0.121953  0  0.127838  0.12981  0  0.986005  0
H  H22  1  0.46531125  0.04348372  0.34716935  1  0.121988  0  0.127824  0.129764  0  0.98602  0
H  H23  1  0.03468279  0.45651680  0.84716584  1  0.122024  0  0.127822  0.129779  0  0.985994  0
H  H24  1  0.52772385  0.73504199  0.76005735  1  0.148197  0  0.141994  0.12002  0  0.989921  0
H  H25  1  0.97227673  0.76495764  0.26005856  1  0.14819  0  0.141999  0.120019  0  0.989919  0
H  H26  1  0.47227606  0.26495651  0.23994357  1  0.148238  0  0.141969  0.119936  0  0.99001  0
H  H27  1  0.02772242  0.23504320  0.73994179  1  0.148204  0  0.142001  0.120002  0  0.989958  0
H  H28  1  0.24338946  0.78243875  0.71497401  1  0.112552  0  0.117327  0.112814  0  0.981852  0
H  H29  1  0.25661429  0.71755888  0.21497713  1  0.112518  0  0.117307  0.112842  0  0.981892  0
H  H30  1  0.75660949  0.21755508  0.28502518  1  0.112593  0  0.11734  0.112897  0  0.981848  0
H  H31  1  0.74338784  0.28244429  0.78502264  1  0.11254  0  0.11731  0.112873  0  0.981816  0
H  H32  1  0.24724002  0.87428222  0.66961750  1  0.054945  0  0.112146  0.096549  0  0.968069  0
H  H33  1  0.25276448  0.62571474  0.16961865  1  0.054949  0  0.112161  0.096595  0  0.968135  0
H  H34  1  0.75275529  0.12571220  0.33038399  1  0.054848  0  0.112199  0.096647  0  0.968069  0
H  H35  1  0.74723866  0.37428726  0.83038342  1  0.054801  0  0.112213  0.096671  0  0.968138  0
H  H36  1  0.38365850  0.72808066  0.59963873  1  0.022066  0  0.090357  0.081852  0  1.016498  0
H  H37  1  0.11634669  0.77191909  0.09964257  1  0.022347  0  0.090255  0.081738  0  1.016268  0
H  H38  1  0.61634266  0.27191784  0.40035931  1  0.022113  0  0.090298  0.081803  0  1.016298  0
H  H39  1  0.88365609  0.22808116  0.90035662  1  0.022272  0  0.090247  0.081719  0  1.016278  0
H  H40  1  0.37413279  0.81676407  0.55015980  1  0.025479  0  0.092088  0.089402  0  0.974625  0
H  H41  1  0.12587586  0.68323558  0.05016106  1  0.025504  0  0.092078  0.089376  0  0.974621  0
H  H42  1  0.62586712  0.18323444  0.44984054  1  0.025444  0  0.092088  0.089366  0  0.974567  0
H  H43  1  0.87412942  0.31676466  0.94983756  1  0.025536  0  0.092094  0.08939  0  0.974553  0
H  H44  1  0.14788142  0.71633656  0.51184831  1  0.10652  0  0.09731  0.117293  0  1.01443  0
H  H45  1  0.35212671  0.78366301  0.01184948  1  0.106442  0  0.097345  0.117361  0  1.014293  0
H  H46  1  0.85211736  0.28366253  0.48815146  1  0.106432  0  0.097324  0.11732  0  1.014324  0
H  H47  1  0.64787756  0.21633840  0.98815144  1  0.106443  0  0.09734  0.117313  0  1.014343  0
H  H48  1  0.07379740  0.70792959  0.60841970  1  0.038459  0  0.089193  0.087582  0  1.031038  0
H  H49  1  0.42620787  0.79207134  0.10842059  1  0.038405  0  0.089269  0.087717  0  1.031012  0
H  H50  1  0.92620276  0.29207008  0.39157949  1  0.038458  0  0.089195  0.087592  0  1.031043  0
H  H51  1  0.57379341  0.20792774  0.89157918  1  0.038405  0  0.089285  0.087739  0  1.030943  0
H  H52  1  0.07713982  0.85748962  0.51154027  1  0.026465  0  0.115684  0.093058  0  0.953657  0
H  H53  1  0.42286820  0.64250937  0.01154134  1  0.026539  0  0.11566  0.093034  0  0.953596  0
H  H54  1  0.92286272  0.14250946  0.48845892  1  0.026509  0  0.115667  0.09306  0  0.953614  0
H  H55  1  0.57712820  0.35749031  0.98845785  1  0.026611  0  0.115663  0.093037  0  0.953535  0
H  H56  1  0.98490611  0.84239903  0.60437281  1  0.07526  0  0.108293  0.085811  0  0.987649  0
H  H57  1  0.51510146  0.65760144  0.10437387  1  0.075243  0  0.108287  0.08578  0  0.987669  0
H  H58  1  0.01510043  0.15760121  0.39562696  1  0.07512  0  0.108301  0.085803  0  0.987642  0
H  H59  1  0.48489858  0.34239764  0.89562590  1  0.075238  0  0.108299  0.085787  0  0.98769  0
H  H60  1  0.89839207  0.81970860  0.39709703  1  0.156714  0  0.139936  0.117975  0  1.001694  0
H  H61  1  0.60161863  0.68029243  0.89709422  1  0.156807  0  0.139894  0.11779  0  1.001804  0
H  H62  1  0.10161886  0.18028871  0.60290446  1  0.156959  0  0.139861  0.117787  0  1.001846  0
H  H63  1  0.39837664  0.31970783  0.10290324  1  0.157056  0  0.139879  0.117745  0  1.001917  0
H  H64  1  0.51453553  0.66635752  0.49473982  1  0.143974  0  0.107339  0.100243  0  1.062926  0
H  H65  1  0.98547395  0.83364079  0.99473873  1  0.143918  0  0.107422  0.100347  0  1.062839  0
H  H66  1  0.48546636  0.33364449  0.50525995  1  0.144223  0  0.107359  0.100214  0  1.06287  0
H  H67  1  0.01452924  0.16635537  0.00525873  1  0.144164  0  0.107417  0.100308  0  1.062847  0
H  H68  1  0.74323609  0.71641345  0.61039712  1  0.145284  0  0.125031  0.131805  0  1.005008  0
H  H69  1  0.75677063  0.78358354  0.11039696  1  0.145315  0  0.125036  0.131793  0  1.005011  0
H  H70  1  0.25676080  0.28358857  0.38960379  1  0.145422  0  0.125015  0.131754  0  1.005063  0
H  H71  1  0.24323267  0.21641320  0.88960108  1  0.145239  0  0.125026  0.131826  0  1.004923  0
C  C72  1  0.21410908  0.87023367  0.85587435  1  1.564834  0  0.193368  0.555839  0  4.251081  0
C  C73  1  0.28588329  0.62977069  0.35588575  1  1.564766  0  0.193563  0.555962  0  4.250834  0
C  C74  1  0.78588583  0.12976484  0.14412196  1  1.564982  0  0.193562  0.556193  0  4.250658  0
C  C75  1  0.71411658  0.37023366  0.64411921  1  1.564824  0  0.193553  0.55611  0  4.250697  0
C  C76  1  0.33852596  0.94125115  0.84850660  1  0.046222  0  -0.021684  -0.0295  0  3.980486  0
C  C77  1  0.16146530  0.55875320  0.34851197  1  0.046862  0  -0.021773  -0.029748  0  3.980352  0
C  C78  1  0.66146733  0.05874562  0.15149087  1  0.046434  0  -0.021789  -0.029742  0  3.980744  0
C  C79  1  0.83853583  0.44125114  0.65149010  1  0.04689  0  -0.021735  -0.029678  0  3.980385  0
C  C80  1  0.29897993  0.00476644  0.80379203  1  -0.046755  0  -0.086182  -0.123424  0  3.959363  0
C  C81  1  0.20102318  0.49523748  0.30379671  1  -0.046561  0  -0.086135  -0.123296  0  3.95874  0
C  C82  1  0.70101486  0.99523149  0.19620658  1  -0.046719  0  -0.086212  -0.123467  0  3.959664  0
C  C83  1  0.79898485  0.50476392  0.69620709  1  -0.046862  0  -0.086222  -0.123453  0  3.959197  0
C  C84  1  0.41655245  0.06910749  0.79307077  1  -0.016866  0  -0.023777  -0.028716  0  3.99148  0
C  C85  1  0.08345325  0.43089582  0.29307287  1  -0.017406  0  -0.023787  -0.028589  0  3.990999  0
C  C86  1  0.58344270  0.93089219  0.20692900  1  -0.017257  0  -0.023741  -0.028718  0  3.991429  0
C  C87  1  0.91655841  0.56910500  0.70693035  1  -0.017176  0  -0.023719  -0.028692  0  3.991337  0
C  C88  1  0.57583670  0.06953449  0.82688401  1  -0.008257  0  -0.092346  -0.139396  0  3.984336  0
C  C89  1  0.92416531  0.43046728  0.32688241  1  -0.008049  0  -0.092383  -0.139551  0  3.984199  0
C  C90  1  0.42415720  0.93046519  0.17311806  1  -0.007834  0  -0.092281  -0.139296  0  3.984126  0
C  C91  1  0.07584397  0.56953412  0.67311736  1  -0.007841  0  -0.092289  -0.13935  0  3.984263  0
C  C92  1  0.61253289  0.00711257  0.87326648  1  -0.26827  0  -0.04898  0.0567  0  3.933076  0
C  C93  1  0.88745810  0.49288874  0.37326577  1  -0.268275  0  -0.049059  0.056602  0  3.933051  0
C  C94  1  0.38745963  0.99288654  0.12673444  1  -0.268274  0  -0.049108  0.05654  0  3.933085  0
C  C95  1  0.11254242  0.50711268  0.62673399  1  -0.268316  0  -0.049075  0.056679  0  3.933055  0
C  C96  1  0.49566607  0.94282915  0.88489349  1  -0.051267  0  -0.086936  -0.128886  0  3.951503  0
C  C97  1  0.00432150  0.55717294  0.38489490  1  -0.051295  0  -0.086859  -0.128641  0  3.951478  0
C  C98  1  0.50432746  0.05716878  0.11510570  1  -0.051351  0  -0.086862  -0.128725  0  3.951602  0
C  C99  1  0.99567776  0.44282848  0.61510602  1  -0.051291  0  -0.086908  -0.128866  0  3.951493  0
C  C100  1  0.37096838  0.13781003  0.74642779  1  1.55202  0  0.191889  0.559535  0  4.236878  0
C  C101  1  0.12904572  0.36219317  0.24642837  1  1.552214  0  0.191848  0.559216  0  4.237329  0
C  C102  1  0.62902891  0.86218790  0.25357313  1  1.552079  0  0.191949  0.559736  0  4.236496  0
C  C103  1  0.87096755  0.63780939  0.75357370  1  1.552084  0  0.191936  0.559594  0  4.236825  0
C  C104  1  0.73419312  0.90017231  0.71845176  1  0.393457  0  -0.003663  -0.040006  0  4.021619  0
C  C105  1  0.76580826  0.59982723  0.21845221  1  0.393469  0  -0.003672  -0.040021  0  4.021546  0
C  C106  1  0.26580304  0.09982620  0.28154743  1  0.393479  0  -0.00367  -0.040148  0  4.021632  0
C  C107  1  0.23419339  0.40017360  0.78154468  1  0.393501  0  -0.003614  -0.04002  0  4.021544  0
C  C108  1  0.58182290  0.90851168  0.68406384  1  0.296788  0  0.002586  -0.10623  0  3.939243  0
C  C109  1  0.91817764  0.59148663  0.18406479  1  0.296795  0  0.002595  -0.106254  0  3.939214  0
C  C110  1  0.41817051  0.09148566  0.31593650  1  0.296661  0  0.00265  -0.106058  0  3.939033  0
C  C111  1  0.08182538  0.40851479  0.81593267  1  0.296702  0  0.002642  -0.106119  0  3.939098  0
C  C112  1  0.57312587  0.79320525  0.74094034  1  0.982087  0  0.145964  0.091295  0  3.906519  0
C  C113  1  0.92687520  0.70679492  0.24094041  1  0.982097  0  0.145965  0.091302  0  3.906607  0
C  C114  1  0.42687291  0.20679384  0.25906116  1  0.98213  0  0.146018  0.091449  0  3.906514  0
C  C115  1  0.07312645  0.29320591  0.75905878  1  0.982119  0  0.146016  0.091397  0  3.906618  0
C  C116  1  0.30997438  0.82010917  0.67160474  1  0.284366  0  -0.053142  -0.072368  0  3.862655  0
C  C117  1  0.19003283  0.67988896  0.17160687  1  0.284295  0  -0.053166  -0.07258  0  3.86294  0
C  C118  1  0.69002356  0.17988583  0.32839560  1  0.284469  0  -0.053242  -0.072699  0  3.862909  0
C  C119  1  0.80997043  0.32011363  0.82839347  1  0.284457  0  -0.053191  -0.072631  0  3.862935  0
C  C120  1  0.30931849  0.77849690  0.59387722  1  0.004356  0  -0.162066  -0.157656  0  3.949478  0
C  C121  1  0.19068920  0.72150225  0.09388004  1  0.004117  0  -0.161909  -0.157362  0  3.949212  0
C  C122  1  0.69068268  0.22150160  0.40612255  1  0.00439  0  -0.161938  -0.157392  0  3.949107  0
C  C123  1  0.80931232  0.27849800  0.90611972  1  0.004177  0  -0.161926  -0.15737  0  3.949026  0
C  C124  1  0.13432485  0.74868692  0.56585625  1  -0.041486  0  -0.169273  -0.182237  0  3.916115  0
C  C125  1  0.36568112  0.75131335  0.06585786  1  -0.041291  0  -0.169441  -0.182597  0  3.916291  0
C  C126  1  0.86567644  0.25131217  0.43414294  1  -0.041405  0  -0.169326  -0.182358  0  3.916124  0
C  C127  1  0.63431803  0.24868749  0.93414249  1  -0.041281  0  -0.169424  -0.182499  0  3.916181  0
C  C128  1  0.01831980  0.81298209  0.55099170  1  0.318356  0  -0.046559  -0.053265  0  3.88781  0
C  C129  1  0.48168508  0.68701757  0.05099381  1  0.318303  0  -0.04649  -0.052986  0  3.887506  0
C  C130  1  0.98168172  0.18701817  0.44900749  1  0.318465  0  -0.04654  -0.053164  0  3.887654  0
C  C131  1  0.51831383  0.31298211  0.94900538  1  0.318225  0  -0.046528  -0.053075  0  3.88747  0
C  C132  1  0.82539428  0.78414604  0.43887545  1  0.982583  0  0.144817  0.09022  0  3.905111  0
C  C133  1  0.67461962  0.71585624  0.93887762  1  0.982765  0  0.144842  0.090478  0  3.905513  0
C  C134  1  0.17461488  0.21585478  0.56112201  1  0.982578  0  0.144845  0.090411  0  3.905451  0
C  C135  1  0.32537779  0.28414227  0.06112041  1  0.982229  0  0.144912  0.090506  0  3.905539  0
C  C136  1  0.62943548  0.70491003  0.49201037  1  0.390484  0  -0.004092  -0.038221  0  4.037221  0
C  C137  1  0.87057518  0.79508769  0.99200964  1  0.390591  0  -0.004116  -0.038302  0  4.037345  0
C  C138  1  0.37056617  0.29509081  0.50798940  1  0.390289  0  -0.004123  -0.038219  0  4.037264  0
C  C139  1  0.12942925  0.20490847  0.00798782  1  0.390239  0  -0.004153  -0.03827  0  4.037317  0
C  C140  1  0.74033879  0.72951270  0.54933352  1  0.292312  0  0.000269  -0.106183  0  3.899888  0
C  C141  1  0.75966934  0.77048534  0.04933273  1  0.292308  0  0.000118  -0.106232  0  3.899973  0
C  C142  1  0.25966023  0.27048756  0.45066798  1  0.292189  0  0.00028  -0.106103  0  3.89999  0
C  C143  1  0.24033408  0.22951199  0.95066531  1  0.292308  0  0.000247  -0.106225  0  3.899852  0
I  I144  1  0.85397131  0.01215546  0.92364655  1  0.096059  0  0.098758  0.000435  0  1.665254  0
I  I145  1  0.64601020  0.48784713  0.42363645  1  0.095951  0  0.098805  0.000489  0  1.665336  0
I  I146  1  0.14601819  0.98784716  0.07635783  1  0.095962  0  0.098776  0.000476  0  1.665252  0
I  I147  1  0.35398104  0.51215782  0.57635352  1  0.095939  0  0.098782  0.000449  0  1.665307  0
N  N148  1  0.68375924  0.73952053  0.42355314  1  -1.248014  0  -0.360516  -0.286058  0  3.628626  0
N  N149  1  0.81624982  0.76048114  0.92355140  1  -1.248567  0  -0.360555  -0.286141  0  3.628972  0
N  N150  1  0.31624604  0.26047971  0.57644720  1  -1.24821  0  -0.360469  -0.286082  0  3.628824  0
N  N151  1  0.18374884  0.23951736  0.07644607  1  -1.247983  0  -0.360615  -0.286176  0  3.628939  0
N  N152  1  0.72707357  0.82776836  0.75355639  1  -1.232925  0  -0.358875  -0.295896  0  3.605991  0
N  N153  1  0.77292725  0.67223183  0.25355701  1  -1.232906  0  -0.358861  -0.295948  0  3.606019  0
N  N154  1  0.27292521  0.17223072  0.24644395  1  -1.23293  0  -0.358912  -0.295903  0  3.606001  0
N  N155  1  0.22707452  0.32776959  0.74644161  1  -1.232968  0  -0.358937  -0.295956  0  3.605989  0
N  N156  1  0.48133824  0.84054421  0.69928101  1  -1.237039  0  -0.239769  0.047844  0  3.786869  0
N  N157  1  0.01866492  0.65945515  0.19928264  1  -1.237032  0  -0.239716  0.047996  0  3.78689  0
N  N158  1  0.51865905  0.15945372  0.30071991  1  -1.237052  0  -0.239804  0.047801  0  3.786978  0
N  N159  1  0.98133685  0.34054627  0.80071655  1  -1.237102  0  -0.23984  0.04772  0  3.787147  0
N  N160  1  0.86289840  0.77987526  0.51467591  1  -1.229232  0  -0.241218  0.045115  0  3.78648  0
N  N161  1  0.63711213  0.72012504  0.01467318  1  -1.229243  0  -0.241126  0.044968  0  3.786597  0
N  N162  1  0.13710599  0.22012674  0.48532616  1  -1.229369  0  -0.241214  0.045032  0  3.786652  0
N  N163  1  0.36288778  0.27987346  0.98532485  1  -1.229362  0  -0.241191  0.045018  0  3.786481  0
O  O164  1  0.08093000  0.87258791  0.81304149  1  -1.181459  0  -0.34496  -0.576247  0  2.382309  0
O  O165  1  0.41906456  0.62741695  0.31305233  1  -1.181509  0  -0.345087  -0.57639  0  2.382421  0
O  O166  1  0.91906628  0.12741118  0.18695539  1  -1.181596  0  -0.345039  -0.576473  0  2.382192  0
O  O167  1  0.58093180  0.37258858  0.68695147  1  -1.181696  0  -0.345096  -0.576476  0  2.382198  0
O  O168  1  0.24328452  0.81481188  0.89886124  1  -1.188963  0  -0.333991  -0.556031  0  2.119817  0
O  O169  1  0.25670214  0.68519316  0.39887176  1  -1.189186  0  -0.334004  -0.555941  0  2.119651  0
O  O170  1  0.75670587  0.18518898  0.10113910  1  -1.188878  0  -0.334017  -0.556041  0  2.119595  0
O  O171  1  0.74329511  0.31481061  0.60113723  1  -1.188998  0  -0.333972  -0.555962  0  2.119682  0
O  O172  1  0.48879359  0.19488792  0.74023648  1  -1.171212  0  -0.341535  -0.562858  0  2.315223  0
O  O173  1  0.01121800  0.30511469  0.24023565  1  -1.17096  0  -0.341472  -0.562702  0  2.315444  0
O  O174  1  0.51120132  0.80511059  0.25976502  1  -1.171288  0  -0.341492  -0.562897  0  2.315117  0
O  O175  1  0.98879414  0.69488846  0.75976296  1  -1.171169  0  -0.341545  -0.562914  0  2.31523  0
O  O176  1  0.22685219  0.13785966  0.71782982  1  -1.188182  0  -0.338893  -0.576096  0  2.126403  0
O  O177  1  0.27316371  0.36214348  0.21783442  1  -1.188408  0  -0.338901  -0.575973  0  2.126628  0
O  O178  1  0.77314195  0.86214119  0.28217052  1  -1.188136  0  -0.338954  -0.576197  0  2.126284  0
O  O179  1  0.72685182  0.63785791  0.78217054  1  -1.188207  0  -0.33894  -0.576115  0  2.126438  0
