# generated using pymatgen
data_ZnH4C4(S2N3)2
_symmetry_space_group_name_H-M   'P 1'
_cell_length_a   8.11983560
_cell_length_b   11.21361640
_cell_length_c   11.11589321
_cell_angle_alpha   89.99989572
_cell_angle_beta   90.00009066
_cell_angle_gamma   89.99991567
_symmetry_Int_Tables_number   1
_chemical_formula_structural   ZnH4C4(S2N3)2
_chemical_formula_sum   'Zn4 H16 C16 S16 N24'
_cell_volume   1012.13233092
_cell_formula_units_Z   4
loop_
 _symmetry_equiv_pos_site_id
 _symmetry_equiv_pos_as_xyz
  1  'x, y, z'
loop_
 _atom_site_type_symbol
 _atom_site_label
 _atom_site_symmetry_multiplicity
 _atom_site_fract_x
 _atom_site_fract_y
 _atom_site_fract_z
 _atom_site_occupancy
 _atom_site_hle17_bader_spin_density
 _atom_site_hle17_ddec_charge
 _atom_site_hle17_ddec_spin_density
 _atom_site_hle17_ddec_sum_bond_order
 _atom_site_hle17_magmom
 _atom_site_hse06_10hf_bader_spin_density
 _atom_site_hse06_10hf_ddec_charge
 _atom_site_hse06_10hf_ddec_spin_density
 _atom_site_hse06_10hf_ddec_sum_bond_order
 _atom_site_hse06_10hf_magmom
 _atom_site_hse06_bader_spin_density
 _atom_site_hse06_ddec_charge
 _atom_site_hse06_ddec_spin_density
 _atom_site_hse06_ddec_sum_bond_order
 _atom_site_hse06_magmom
 _atom_site_pbe_bader_spin_density
 _atom_site_pbe_cm5_charge
 _atom_site_pbe_ddec_charge
 _atom_site_pbe_ddec_spin_density
 _atom_site_pbe_ddec_sum_bond_order
 _atom_site_pbe_magmom
Zn  Zn0  1  0.87852001  0.62413059  0.36100107  1  0  0.764155  0  2.131082  0  0  0.589487  0  2.607248  0  0  0.62345  0  2.570206  0  0  0.567805  0.565686  0  2.633441  0
Zn  Zn1  1  0.62147989  0.37586871  0.86100235  1  0  0.764212  0  2.131025  0  0  0.589518  0  2.607187  0  0  0.623508  0  2.57015  0  0  0.567808  0.565723  0  2.633381  0
Zn  Zn2  1  0.12148155  0.12413104  0.13899733  1  0  0.764135  0  2.130987  0  0  0.589485  0  2.607158  0  0  0.623461  0  2.57012  0  0  0.567786  0.565685  0  2.633343  0
Zn  Zn3  1  0.37851856  0.87586920  0.63899800  1  0  0.764121  0  2.131046  0  0  0.589457  0  2.607217  0  0  0.623439  0  2.570182  0  0  0.567801  0.565666  0  2.633403  0
H  H4  1  0.77389990  0.19725960  0.17727167  1  0  0.320551  0  0.911532  0  0  0.300704  0  0.987143  0  0  0.308103  0  0.981134  0  0  0.287208  0.295103  0  0.991932  0
H  H5  1  0.72609960  0.80274003  0.67727320  1  0  0.320531  0  0.911558  0  0  0.300683  0  0.987174  0  0  0.308081  0  0.981167  0  0  0.287195  0.295081  0  0.991963  0
H  H6  1  0.22610029  0.69725904  0.32272570  1  0  0.320532  0  0.911552  0  0  0.300669  0  0.987159  0  0  0.308067  0  0.981153  0  0  0.287198  0.295067  0  0.991945  0
H  H7  1  0.27390145  0.30273998  0.82272729  1  0  0.320571  0  0.91153  0  0  0.30072  0  0.987138  0  0  0.30812  0  0.981127  0  0  0.287219  0.295117  0  0.991925  0
H  H8  1  0.60298032  0.15335853  0.26084025  1  0  0.315963  0  0.935388  0  0  0.294711  0  1.010308  0  0  0.302068  0  1.004892  0  0  0.277779  0.289392  0  1.014388  0
H  H9  1  0.89701937  0.84664273  0.76084189  1  0  0.315952  0  0.935394  0  0  0.294701  0  1.010314  0  0  0.302058  0  1.004899  0  0  0.277769  0.289383  0  1.014392  0
H  H10  1  0.39701996  0.65335704  0.23915810  1  0  0.315944  0  0.93538  0  0  0.294691  0  1.010305  0  0  0.302047  0  1.004889  0  0  0.277775  0.289372  0  1.014383  0
H  H11  1  0.10298037  0.34664213  0.73915852  1  0  0.315956  0  0.935379  0  0  0.2947  0  1.010304  0  0  0.302055  0  1.004892  0  0  0.277753  0.289381  0  1.014384  0
H  H12  1  0.87548227  0.52608695  0.72916770  1  0  0.332797  0  0.918199  0  0  0.308891  0  0.997116  0  0  0.31647  0  0.99048  0  0  0.295297  0.303418  0  1.002062  0
H  H13  1  0.62451734  0.47391258  0.22916730  1  0  0.332786  0  0.918218  0  0  0.308874  0  0.997142  0  0  0.316453  0  0.990506  0  0  0.29528  0.303403  0  1.002087  0
H  H14  1  0.12451564  0.02608716  0.77083329  1  0  0.33281  0  0.918209  0  0  0.308901  0  0.997129  0  0  0.31648  0  0.990492  0  0  0.295302  0.303427  0  1.002072  0
H  H15  1  0.37548352  0.97391284  0.27083226  1  0  0.332826  0  0.9182  0  0  0.308924  0  0.997104  0  0  0.316502  0  0.990469  0  0  0.295311  0.303451  0  1.00205  0
H  H16  1  0.01844393  0.63179992  0.77803138  1  0  0.307579  0  0.963767  0  0  0.289843  0  1.032661  0  0  0.296218  0  1.02882  0  0  0.26954  0.285305  0  1.03551  0
H  H17  1  0.48155648  0.36819917  0.27803068  1  0  0.307617  0  0.963695  0  0  0.289887  0  1.032593  0  0  0.296263  0  1.028751  0  0  0.269554  0.285349  0  1.035448  0
H  H18  1  0.98155377  0.13180019  0.72197032  1  0  0.307678  0  0.963787  0  0  0.289894  0  1.032731  0  0  0.296271  0  1.028888  0  0  0.269558  0.285354  0  1.035582  0
H  H19  1  0.51844582  0.86819936  0.22196907  1  0  0.307695  0  0.963693  0  0  0.289895  0  1.032657  0  0  0.296273  0  1.028815  0  0  0.269572  0.285359  0  1.035506  0
C  C20  1  0.94859632  0.89071892  0.39235867  1  0  0.147098  0  3.822549  0  0  0.141028  0  4.129946  0  0  0.151934  0  4.145468  0  0  0.100353  0.133375  0  4.119377  0
C  C21  1  0.55140365  0.10928121  0.89236036  1  0  0.147074  0  3.822652  0  0  0.141018  0  4.130045  0  0  0.151925  0  4.145563  0  0  0.100352  0.133366  0  4.119473  0
C  C22  1  0.05140471  0.39071950  0.10763835  1  0  0.146991  0  3.822689  0  0  0.140975  0  4.130027  0  0  0.151881  0  4.145545  0  0  0.10031  0.133319  0  4.119469  0
C  C23  1  0.44859534  0.60928169  0.60763958  1  0  0.147004  0  3.822712  0  0  0.140929  0  4.130137  0  0  0.151837  0  4.145651  0  0  0.100298  0.133276  0  4.119572  0
C  C24  1  0.81769292  0.06002899  0.29244655  1  0  0.397717  0  3.842265  0  0  0.358873  0  4.140632  0  0  0.380665  0  4.151338  0  0  0.232817  0.344305  0  4.132643  0
C  C25  1  0.68230806  0.93997310  0.79244688  1  0  0.397812  0  3.842129  0  0  0.358916  0  4.140552  0  0  0.380716  0  4.151259  0  0  0.232868  0.344353  0  4.13256  0
C  C26  1  0.18230877  0.56002690  0.20755197  1  0  0.397758  0  3.842208  0  0  0.358846  0  4.140651  0  0  0.380645  0  4.151359  0  0  0.232819  0.344279  0  4.132666  0
C  C27  1  0.31769025  0.43997411  0.70755336  1  0  0.397825  0  3.842181  0  0  0.358909  0  4.140607  0  0  0.380714  0  4.151312  0  0  0.232839  0.344345  0  4.132619  0
C  C28  1  0.73499833  0.64621031  0.09596873  1  0  0.140483  0  3.875591  0  0  0.128746  0  4.188163  0  0  0.140373  0  4.201339  0  0  0.097767  0.120892  0  4.178975  0
C  C29  1  0.76500223  0.35378946  0.59596932  1  0  0.140465  0  3.875621  0  0  0.128725  0  4.188195  0  0  0.140354  0  4.201371  0  0  0.097754  0.120873  0  4.179005  0
C  C30  1  0.26500073  0.14621013  0.40403323  1  0  0.140434  0  3.875713  0  0  0.128759  0  4.188183  0  0  0.140386  0  4.201359  0  0  0.097777  0.120892  0  4.179038  0
C  C31  1  0.23500118  0.85378963  0.90403197  1  0  0.140441  0  3.875693  0  0  0.128728  0  4.188217  0  0  0.140356  0  4.201393  0  0  0.097758  0.120877  0  4.179018  0
C  C32  1  0.84733651  0.58663552  0.90275692  1  0  0.413746  0  3.801755  0  0  0.375402  0  4.095114  0  0  0.397419  0  4.10554  0  0  0.240226  0.360644  0  4.087657  0
C  C33  1  0.65266471  0.41336370  0.40275666  1  0  0.413835  0  3.801677  0  0  0.375506  0  4.09502  0  0  0.397524  0  4.105445  0  0  0.240273  0.360744  0  4.087578  0
C  C34  1  0.15266252  0.08663512  0.59724306  1  0  0.413747  0  3.8016  0  0  0.375436  0  4.094953  0  0  0.397453  0  4.10538  0  0  0.240278  0.360677  0  4.087497  0
C  C35  1  0.34733627  0.91336519  0.09724211  1  0  0.41377  0  3.801551  0  0  0.375455  0  4.094916  0  0  0.397473  0  4.10534  0  0  0.240288  0.360684  0  4.087479  0
S  S36  1  0.89538812  0.69912009  0.00465538  1  0  0.067871  0  2.419379  0  0  0.069265  0  2.748035  0  0  0.066939  0  2.748713  0  0  0.099065  0.070079  0  2.747855  0
S  S37  1  0.60461224  0.30087985  0.50465498  1  0  0.067848  0  2.419358  0  0  0.069247  0  2.748013  0  0  0.066923  0  2.748689  0  0  0.099063  0.070063  0  2.747838  0
S  S38  1  0.10461083  0.19912170  0.49534559  1  0  0.0679  0  2.419322  0  0  0.069277  0  2.747958  0  0  0.06695  0  2.748637  0  0  0.099071  0.070087  0  2.747791  0
S  S39  1  0.39538759  0.80087700  0.99534731  1  0  0.067879  0  2.419339  0  0  0.069275  0  2.747977  0  0  0.066948  0  2.748654  0  0  0.099076  0.070089  0  2.7478  0
S  S40  1  0.68547031  0.71161374  0.23183267  1  0  -0.446533  0  2.343147  0  0  -0.402725  0  2.726693  0  0  -0.417303  0  2.715015  0  0  -0.193294  -0.391995  0  2.734794  0
S  S41  1  0.81453054  0.28838757  0.73183343  1  0  -0.446558  0  2.343218  0  0  -0.402749  0  2.726768  0  0  -0.417337  0  2.715099  0  0  -0.193293  -0.392009  0  2.734845  0
S  S42  1  0.31452861  0.21161553  0.26816827  1  0  -0.446504  0  2.343101  0  0  -0.402735  0  2.726638  0  0  -0.417319  0  2.714967  0  0  -0.193285  -0.391972  0  2.734694  0
S  S43  1  0.18546931  0.78838537  0.76816798  1  0  -0.44649  0  2.343089  0  0  -0.402711  0  2.726633  0  0  -0.417297  0  2.714963  0  0  -0.193285  -0.391989  0  2.734733  0
S  S44  1  0.75926238  0.96767544  0.41066291  1  0  0.044939  0  2.400466  0  0  0.050998  0  2.730164  0  0  0.050406  0  2.728022  0  0  0.086706  0.051061  0  2.731634  0
S  S45  1  0.74073639  0.03232465  0.91066406  1  0  0.044942  0  2.400502  0  0  0.051016  0  2.730203  0  0  0.050424  0  2.72806  0  0  0.086714  0.051076  0  2.731669  0
S  S46  1  0.24073849  0.46767407  0.08933576  1  0  0.044975  0  2.400544  0  0  0.051049  0  2.730238  0  0  0.050456  0  2.728094  0  0  0.086747  0.051113  0  2.731711  0
S  S47  1  0.25926151  0.53232626  0.58933692  1  0  0.044936  0  2.400513  0  0  0.05101  0  2.730255  0  0  0.05042  0  2.728105  0  0  0.086716  0.051073  0  2.731728  0
S  S48  1  0.00043449  0.76702866  0.47870397  1  0  -0.413555  0  2.192932  0  0  -0.375778  0  2.57825  0  0  -0.391025  0  2.566329  0  0  -0.21059  -0.36489  0  2.587744  0
S  S49  1  0.49956513  0.23297186  0.97870595  1  0  -0.413587  0  2.192935  0  0  -0.375803  0  2.578236  0  0  -0.391059  0  2.566319  0  0  -0.210596  -0.364926  0  2.587732  0
S  S50  1  0.99956925  0.26702837  0.02129237  1  0  -0.413494  0  2.192937  0  0  -0.375714  0  2.578204  0  0  -0.390968  0  2.566289  0  0  -0.210564  -0.364828  0  2.587697  0
S  S51  1  0.50042991  0.73297243  0.52129466  1  0  -0.413473  0  2.192989  0  0  -0.37568  0  2.578294  0  0  -0.390934  0  2.566379  0  0  -0.210553  -0.364793  0  2.587786  0
N  N52  1  0.04026622  0.93710416  0.30790155  1  0  -0.203954  0  3.052548  0  0  -0.190575  0  3.335883  0  0  -0.197836  0  3.353635  0  0  -0.231214  -0.185171  0  3.323483  0
N  N53  1  0.45973303  0.06289577  0.80790469  1  0  -0.20397  0  3.052576  0  0  -0.190605  0  3.335894  0  0  -0.197858  0  3.353651  0  0  -0.231235  -0.185199  0  3.323497  0
N  N54  1  0.95973349  0.43710272  0.19209448  1  0  -0.203947  0  3.052505  0  0  -0.190613  0  3.335853  0  0  -0.197868  0  3.353607  0  0  -0.231222  -0.185209  0  3.323463  0
N  N55  1  0.54026605  0.56289688  0.69209623  1  0  -0.203929  0  3.052518  0  0  -0.190568  0  3.335833  0  0  -0.197816  0  3.35359  0  0  -0.231204  -0.185162  0  3.323437  0
N  N56  1  0.65885766  0.55372373  0.05046905  1  0  -0.236664  0  3.085352  0  0  -0.218329  0  3.369242  0  0  -0.225082  0  3.383187  0  0  -0.233772  -0.213639  0  3.359809  0
N  N57  1  0.84114279  0.44627613  0.55046956  1  0  -0.236645  0  3.085333  0  0  -0.218296  0  3.369227  0  0  -0.225046  0  3.383168  0  0  -0.233749  -0.213605  0  3.359793  0
N  N58  1  0.34114034  0.05372516  0.44953127  1  0  -0.23676  0  3.08537  0  0  -0.218406  0  3.369255  0  0  -0.225159  0  3.383201  0  0  -0.233824  -0.213717  0  3.359822  0
N  N59  1  0.15885921  0.94627451  0.94952976  1  0  -0.236695  0  3.085364  0  0  -0.218323  0  3.369251  0  0  -0.225076  0  3.383196  0  0  -0.233772  -0.213632  0  3.359811  0
N  N60  1  0.72265922  0.51913012  0.94187837  1  0  -0.312059  0  3.247635  0  0  -0.232277  0  3.540878  0  0  -0.251902  0  3.552795  0  0  -0.264581  -0.218928  0  3.532769  0
N  N61  1  0.77734209  0.48086992  0.44187813  1  0  -0.312039  0  3.247574  0  0  -0.232298  0  3.540858  0  0  -0.251922  0  3.55277  0  0  -0.264587  -0.218935  0  3.53272  0
N  N62  1  0.27733871  0.01912966  0.55812263  1  0  -0.311875  0  3.247361  0  0  -0.232201  0  3.540719  0  0  -0.251827  0  3.55264  0  0  -0.264563  -0.218847  0  3.532604  0
N  N63  1  0.22266122  0.98086983  0.05812232  1  0  -0.311914  0  3.247403  0  0  -0.232247  0  3.540778  0  0  -0.251872  0  3.552696  0  0  -0.264608  -0.218896  0  3.532671  0
N  N64  1  0.96770456  0.03243303  0.25172209  1  0  -0.353077  0  3.279011  0  0  -0.275571  0  3.575249  0  0  -0.29645  0  3.590219  0  0  -0.273107  -0.26112  0  3.564284  0
N  N65  1  0.53229633  0.96756824  0.75172309  1  0  -0.353066  0  3.278938  0  0  -0.275518  0  3.575168  0  0  -0.296419  0  3.590152  0  0  -0.273097  -0.261086  0  3.56423  0
N  N66  1  0.03229719  0.53243013  0.24827648  1  0  -0.353059  0  3.278944  0  0  -0.275517  0  3.575184  0  0  -0.296412  0  3.590164  0  0  -0.273078  -0.26107  0  3.564228  0
N  N67  1  0.46770193  0.46756812  0.74827709  1  0  -0.353118  0  3.278976  0  0  -0.275534  0  3.575167  0  0  -0.296458  0  3.590186  0  0  -0.273087  -0.261093  0  3.564214  0
N  N68  1  0.72789170  0.15053779  0.24893215  1  0  -0.640908  0  3.190865  0  0  -0.604257  0  3.428522  0  0  -0.625275  0  3.427507  0  0  -0.571909  -0.589349  0  3.429322  0
N  N69  1  0.77210795  0.84946349  0.74893274  1  0  -0.64095  0  3.190826  0  0  -0.604289  0  3.428513  0  0  -0.625306  0  3.427497  0  0  -0.571934  -0.589378  0  3.429306  0
N  N70  1  0.27210981  0.65053463  0.25106711  1  0  -0.640908  0  3.190799  0  0  -0.604212  0  3.428532  0  0  -0.625227  0  3.427518  0  0  -0.571914  -0.589298  0  3.429325  0
N  N71  1  0.22789054  0.34946362  0.75106766  1  0  -0.640985  0  3.190763  0  0  -0.604332  0  3.428493  0  0  -0.625348  0  3.427474  0  0  -0.57193  -0.58942  0  3.429288  0
N  N72  1  0.92758557  0.57194807  0.79889128  1  0  -0.64618  0  3.188605  0  0  -0.60843  0  3.426636  0  0  -0.629165  0  3.425793  0  0  -0.576103  -0.594169  0  3.427251  0
N  N73  1  0.57241542  0.42805134  0.29889090  1  0  -0.646277  0  3.188549  0  0  -0.608562  0  3.426608  0  0  -0.629297  0  3.425767  0  0  -0.576138  -0.594298  0  3.427229  0
N  N74  1  0.07241102  0.07194757  0.70110963  1  0  -0.646339  0  3.188646  0  0  -0.608567  0  3.426759  0  0  -0.629302  0  3.425916  0  0  -0.576166  -0.594302  0  3.427372  0
N  N75  1  0.42758799  0.92805167  0.20110964  1  0  -0.646391  0  3.188501  0  0  -0.608603  0  3.426641  0  0  -0.629339  0  3.425797  0  0  -0.57619  -0.59434  0  3.427264  0
