# generated using pymatgen
data_FeCu2H8(C3N2)4
_symmetry_space_group_name_H-M   'P 1'
_cell_length_a   6.55169683
_cell_length_b   7.91396960
_cell_length_c   7.63258495
_cell_angle_alpha   110.12142902
_cell_angle_beta   99.33193052
_cell_angle_gamma   106.90363592
_symmetry_Int_Tables_number   1
_chemical_formula_structural   FeCu2H8(C3N2)4
_chemical_formula_sum   'Fe1 Cu2 H8 C12 N8'
_cell_volume   340.06343327
_cell_formula_units_Z   1
loop_
 _symmetry_equiv_pos_site_id
 _symmetry_equiv_pos_as_xyz
  1  'x, y, z'
loop_
 _atom_site_type_symbol
 _atom_site_label
 _atom_site_symmetry_multiplicity
 _atom_site_fract_x
 _atom_site_fract_y
 _atom_site_fract_z
 _atom_site_occupancy
 _atom_site_hle17_bader_spin_density
 _atom_site_hle17_ddec_charge
 _atom_site_hle17_ddec_spin_density
 _atom_site_hle17_ddec_sum_bond_order
 _atom_site_hle17_magmom
 _atom_site_hse06_10hf_bader_spin_density
 _atom_site_hse06_10hf_ddec_charge
 _atom_site_hse06_10hf_ddec_spin_density
 _atom_site_hse06_10hf_ddec_sum_bond_order
 _atom_site_hse06_10hf_magmom
 _atom_site_hse06_bader_spin_density
 _atom_site_hse06_ddec_charge
 _atom_site_hse06_ddec_spin_density
 _atom_site_hse06_ddec_sum_bond_order
 _atom_site_hse06_magmom
 _atom_site_pbe_bader_spin_density
 _atom_site_pbe_cm5_charge
 _atom_site_pbe_ddec_charge
 _atom_site_pbe_ddec_spin_density
 _atom_site_pbe_ddec_sum_bond_order
 _atom_site_pbe_magmom
Fe  Fe0  1  0.00120939  0.02548814  0.01570841  1  0  0.610078  0  3.248359  0  0  0.589908  0  3.725018  0  0  0.636762  0  3.664103  0  0  0.80521  0.564535  0  3.759169  0
Cu  Cu1  1  0.48051761  0.84695426  0.37225564  1  0  0.274433  0  2.585113  0  0  0.198201  0  3.101622  0  0  0.178305  0  3.06295  0  0  0.420239  0.217247  0  3.122387  0
Cu  Cu2  1  0.51760009  0.15702697  0.63882652  1  0  0.290069  0  2.558546  0  0  0.218079  0  3.067946  0  0  0.200073  0  3.028288  0  0  0.428965  0.23526  0  3.090029  0
H  H3  1  0.65192981  0.17914191  0.14797221  1  0  0.110277  0  0.935292  0  0  0.119267  0  0.991654  0  0  0.119331  0  0.991589  0  0  0.13207  0.118828  0  0.992393  0
H  H4  1  0.34944191  0.80687180  0.82960080  1  0  0.101037  0  0.935148  0  0  0.110732  0  0.992838  0  0  0.110472  0  0.99389  0  0  0.126575  0.11083  0  0.992352  0
H  H5  1  0.65540330  0.51373876  0.33163360  1  0  0.115877  0  0.949288  0  0  0.123292  0  1.01413  0  0  0.127059  0  1.012316  0  0  0.112308  0.120309  0  1.016003  0
H  H6  1  0.33041735  0.46498107  0.63779654  1  0  0.114945  0  0.94912  0  0  0.123224  0  1.01289  0  0  0.126768  0  1.011623  0  0  0.110907  0.120614  0  1.014002  0
H  H7  1  0.01019536  0.80148019  0.42181183  1  0  0.09885  0  0.922416  0  0  0.108622  0  0.982058  0  0  0.110568  0  0.979353  0  0  0.126232  0.106629  0  0.984968  0
H  H8  1  0.97336437  0.18692994  0.56301034  1  0  0.096535  0  0.922629  0  0  0.107236  0  0.981547  0  0  0.108128  0  0.981135  0  0  0.126582  0.106354  0  0.982176  0
H  H9  1  0.30621675  0.42595490  0.14982054  1  0  0.077452  0  0.953552  0  0  0.082575  0  1.023251  0  0  0.084623  0  1.019206  0  0  0.13324  0.080668  0  1.026845  0
H  H10  1  0.71193764  0.57696684  0.86855107  1  0  0.072767  0  0.94011  0  0  0.078158  0  1.010856  0  0  0.079511  0  1.008595  0  0  0.129883  0.077138  0  1.012536  0
C  C11  1  0.64828584  0.85444730  0.19414364  1  0  -0.114159  0  3.425925  0  0  -0.122074  0  3.80521  0  0  -0.100342  0  3.800294  0  0  -0.056751  -0.137005  0  3.806489  0
C  C12  1  0.35054878  0.15784422  0.81715448  1  0  -0.117616  0  3.443356  0  0  -0.127024  0  3.824141  0  0  -0.105123  0  3.818858  0  0  -0.058361  -0.142068  0  3.825854  0
C  C13  1  0.64797134  0.92062311  0.63609483  1  0  -0.124419  0  3.529438  0  0  -0.127417  0  3.921993  0  0  -0.100142  0  3.906697  0  0  -0.077504  -0.147197  0  3.931135  0
C  C14  1  0.35171762  0.07840767  0.37231457  1  0  -0.119505  0  3.546006  0  0  -0.121989  0  3.940447  0  0  -0.094356  0  3.924551  0  0  -0.076802  -0.14208  0  3.950195  0
C  C15  1  0.79789007  0.30932239  0.19012019  1  0  0.172017  0  3.589224  0  0  0.136834  0  3.84116  0  0  0.154315  0  3.853406  0  0  0.071109  0.123578  0  3.835416  0
C  C16  1  0.20352773  0.67817662  0.79453736  1  0  0.17546  0  3.637736  0  0  0.143384  0  3.889156  0  0  0.155419  0  3.906785  0  0  0.077594  0.13472  0  3.877668  0
C  C17  1  0.80132493  0.49392438  0.29113096  1  0  -0.158845  0  3.708708  0  0  -0.168354  0  3.959264  0  0  -0.181792  0  3.978577  0  0  -0.074492  -0.16035  0  3.949226  0
C  C18  1  0.19207838  0.49118186  0.68889617  1  0  -0.16703  0  3.706077  0  0  -0.174639  0  3.951171  0  0  -0.188508  0  3.975904  0  0  -0.074526  -0.165406  0  3.934974  0
C  C19  1  0.99551578  0.65297183  0.34150728  1  0  0.177944  0  3.621556  0  0  0.141785  0  3.872305  0  0  0.15709  0  3.883989  0  0  0.065535  0.129566  0  3.86734  0
C  C20  1  0.99592500  0.33693914  0.64747728  1  0  0.185369  0  3.622109  0  0  0.152057  0  3.866571  0  0  0.161703  0  3.884853  0  0  0.072213  0.145462  0  3.854903  0
C  C21  1  0.16245008  0.44677684  0.19379032  1  0  0.275358  0  3.618978  0  0  0.223021  0  3.88673  0  0  0.241803  0  3.894584  0  0  0.178351  0.209504  0  3.883644  0
C  C22  1  0.84877027  0.55118518  0.81386778  1  0  0.274784  0  3.674118  0  0  0.225973  0  3.941937  0  0  0.239909  0  3.955313  0  0  0.182438  0.216706  0  3.933021  0
N  N23  1  0.77925775  0.90965241  0.11741977  1  0  -0.345945  0  3.363296  0  0  -0.308601  0  3.67341  0  0  -0.333547  0  3.683825  0  0  -0.406626  -0.292391  0  3.6647  0
N  N24  1  0.22268083  0.12034940  0.90321684  1  0  -0.341341  0  3.372391  0  0  -0.302972  0  3.680573  0  0  -0.328287  0  3.691713  0  0  -0.405762  -0.286425  0  3.671225  0
N  N25  1  0.77817634  0.95464180  0.78238700  1  0  -0.311831  0  3.311583  0  0  -0.280983  0  3.624501  0  0  -0.304676  0  3.631797  0  0  -0.397974  -0.26536  0  3.617796  0
N  N26  1  0.22486865  0.07289708  0.23923449  1  0  -0.315291  0  3.301024  0  0  -0.283359  0  3.612633  0  0  -0.307586  0  3.620439  0  0  -0.396823  -0.267103  0  3.605318  0
N  N27  1  0.98161182  0.28476105  0.14306127  1  0  -0.238827  0  3.28564  0  0  -0.18579  0  3.559932  0  0  -0.215522  0  3.575652  0  0  -0.308079  -0.167451  0  3.549862  0
N  N28  1  0.02993230  0.70567775  0.85580087  1  0  -0.272392  0  3.127692  0  0  -0.220146  0  3.390398  0  0  -0.24561  0  3.40832  0  0  -0.272752  -0.202161  0  3.377943  0
N  N29  1  0.17650329  0.62807997  0.29066627  1  0  -0.293178  0  3.31699  0  0  -0.225764  0  3.610279  0  0  -0.239289  0  3.615534  0  0  -0.34489  -0.218019  0  3.608485  0
N  N30  1  0.82274304  0.36660626  0.71021435  1  0  -0.302874  0  3.31258  0  0  -0.233236  0  3.600928  0  0  -0.247059  0  3.611032  0  0  -0.348108  -0.224931  0  3.59417  0
