# generated using pymatgen
data_H18Pb(C5O2)2
_symmetry_space_group_name_H-M   'P 1'
_cell_length_a   4.65888011
_cell_length_b   7.20922049
_cell_length_c   18.18288291
_cell_angle_alpha   92.58230018
_cell_angle_beta   97.06020920
_cell_angle_gamma   88.96269965
_symmetry_Int_Tables_number   1
_chemical_formula_structural   H18Pb(C5O2)2
_chemical_formula_sum   'H36 Pb2 C20 O8'
_cell_volume   605.41181888
_cell_formula_units_Z   2
loop_
 _symmetry_equiv_pos_site_id
 _symmetry_equiv_pos_as_xyz
  1  'x, y, z'
loop_
 _atom_site_type_symbol
 _atom_site_label
 _atom_site_symmetry_multiplicity
 _atom_site_fract_x
 _atom_site_fract_y
 _atom_site_fract_z
 _atom_site_occupancy
 _atom_site_hle17_bader_spin_density
 _atom_site_hle17_ddec_charge
 _atom_site_hle17_ddec_spin_density
 _atom_site_hle17_ddec_sum_bond_order
 _atom_site_hle17_magmom
 _atom_site_hse06_10hf_bader_spin_density
 _atom_site_hse06_10hf_ddec_charge
 _atom_site_hse06_10hf_ddec_spin_density
 _atom_site_hse06_10hf_ddec_sum_bond_order
 _atom_site_hse06_10hf_magmom
 _atom_site_hse06_bader_spin_density
 _atom_site_hse06_ddec_charge
 _atom_site_hse06_ddec_spin_density
 _atom_site_hse06_ddec_sum_bond_order
 _atom_site_hse06_magmom
 _atom_site_pbe_bader_spin_density
 _atom_site_pbe_cm5_charge
 _atom_site_pbe_ddec_charge
 _atom_site_pbe_ddec_spin_density
 _atom_site_pbe_ddec_sum_bond_order
 _atom_site_pbe_magmom
H  H0  1  0.84143150  0.27651496  0.61024999  1  0  0.054348  0  0.941061  0  0  0.076964  0  0.997729  0  0  0.077017  0  0.999171  0  0  0.086506  0.076869  0  0.996772  0
H  H1  1  0.15856078  0.72348431  0.38975340  1  0  0.054513  0  0.940983  0  0  0.077104  0  0.997634  0  0  0.077158  0  0.999078  0  0  0.08659  0.077006  0  0.996677  0
H  H2  1  0.71605314  0.04702679  0.60575262  1  0  0.051787  0  0.947584  0  0  0.073903  0  1.007543  0  0  0.073814  0  1.009181  0  0  0.085398  0.073873  0  1.006483  0
H  H3  1  0.28393270  0.95297807  0.39424899  1  0  0.051795  0  0.947555  0  0  0.073892  0  1.0075  0  0  0.073813  0  1.009124  0  0  0.085395  0.07386  0  1.006444  0
H  H4  1  0.76622236  0.04017387  0.74866023  1  0  0.101617  0  0.949918  0  0  0.121492  0  1.007049  0  0  0.122612  0  1.007803  0  0  0.102522  0.120693  0  1.006593  0
H  H5  1  0.23377639  0.95982248  0.25134057  1  0  0.101584  0  0.949886  0  0  0.121505  0  1.007026  0  0  0.122624  0  1.007781  0  0  0.102524  0.120709  0  1.006571  0
H  H6  1  0.91555596  0.26012436  0.75189618  1  0  0.118677  0  0.964685  0  0  0.130645  0  1.030967  0  0  0.133902  0  1.029062  0  0  0.103509  0.128272  0  1.032458  0
H  H7  1  0.08443421  0.73988046  0.24810612  1  0  0.118637  0  0.964699  0  0  0.130625  0  1.031022  0  0  0.13391  0  1.029086  0  0  0.103484  0.128285  0  1.032484  0
H  H8  1  0.35288296  0.64924306  0.77403043  1  0  0.06463  0  0.941848  0  0  0.083345  0  1.004815  0  0  0.08391  0  1.005703  0  0  0.088209  0.082844  0  1.004316  0
H  H9  1  0.64712032  0.35077252  0.22596528  1  0  0.064594  0  0.941815  0  0  0.083328  0  1.004773  0  0  0.083894  0  1.005657  0  0  0.088187  0.082825  0  1.004273  0
H  H10  1  0.23043988  0.88301208  0.77243881  1  0  0.065217  0  0.936352  0  0  0.084715  0  0.996998  0  0  0.085205  0  0.997923  0  0  0.088806  0.084279  0  0.99647  0
H  H11  1  0.76956558  0.11700481  0.22755534  1  0  0.065206  0  0.936307  0  0  0.084682  0  0.996989  0  0  0.085172  0  0.997913  0  0  0.088807  0.084245  0  0.996465  0
H  H12  1  0.54508309  0.20561003  0.48798380  1  0  0.090797  0  0.968287  0  0  0.114871  0  1.028444  0  0  0.115598  0  1.029636  0  0  0.085111  0.114292  0  1.027676  0
H  H13  1  0.45493289  0.79437778  0.51201744  1  0  0.090807  0  0.96833  0  0  0.114898  0  1.028464  0  0  0.115622  0  1.029657  0  0  0.085141  0.11432  0  1.027694  0
H  H14  1  0.36918481  0.38041579  0.53863977  1  0  0.085614  0  0.964948  0  0  0.10782  0  1.027432  0  0  0.108863  0  1.027896  0  0  0.082936  0.107044  0  1.027126  0
H  H15  1  0.63081393  0.61957478  0.46135326  1  0  0.085596  0  0.964997  0  0  0.107816  0  1.027469  0  0  0.108859  0  1.027935  0  0  0.082922  0.10704  0  1.027162  0
H  H16  1  0.24597766  0.14823742  0.53382708  1  0  0.086572  0  0.960246  0  0  0.108679  0  1.023278  0  0  0.109686  0  1.023863  0  0  0.083796  0.107906  0  1.022931  0
H  H17  1  0.75402973  0.85175595  0.46617066  1  0  0.08658  0  0.960249  0  0  0.108695  0  1.023277  0  0  0.109702  0  1.02386  0  0  0.083795  0.107918  0  1.022934  0
H  H18  1  0.96869660  0.68090779  0.57961640  1  0  0.091969  0  0.970177  0  0  0.115431  0  1.031105  0  0  0.116304  0  1.031815  0  0  0.085121  0.114761  0  1.030621  0
H  H19  1  0.03127843  0.31909714  0.42038322  1  0  0.09186  0  0.97036  0  0  0.115398  0  1.031192  0  0  0.116269  0  1.031898  0  0  0.085075  0.114715  0  1.03072  0
H  H20  1  0.31104643  0.64146708  0.63103268  1  0  0.086163  0  0.978428  0  0  0.107277  0  1.043851  0  0  0.108403  0  1.044226  0  0  0.08295  0.106389  0  1.043678  0
H  H21  1  0.68892427  0.35853362  0.36896234  1  0  0.086152  0  0.978288  0  0  0.107258  0  1.043725  0  0  0.108386  0  1.044099  0  0  0.082901  0.10637  0  1.04355  0
H  H22  1  0.16246106  0.86907946  0.62703378  1  0  0.086781  0  0.971868  0  0  0.107981  0  1.037968  0  0  0.109036  0  1.038386  0  0  0.082514  0.107138  0  1.037771  0
H  H23  1  0.83752261  0.13092110  0.37296220  1  0  0.086846  0  0.971751  0  0  0.108011  0  1.037881  0  0  0.109063  0  1.038301  0  0  0.08255  0.107172  0  1.037679  0
H  H24  1  0.83114428  0.81285413  0.84379949  1  0  0.109057  0  0.934872  0  0  0.122822  0  0.999172  0  0  0.124835  0  0.998712  0  0  0.101101  0.121369  0  0.999532  0
H  H25  1  0.16887636  0.18717116  0.15620405  1  0  0.109092  0  0.935004  0  0  0.122862  0  0.999295  0  0  0.124873  0  0.998837  0  0  0.101127  0.121417  0  0.99965  0
H  H26  1  0.91556266  0.57104356  0.83872343  1  0  0.100604  0  0.937885  0  0  0.115398  0  0.999072  0  0  0.117144  0  0.998603  0  0  0.097466  0.114109  0  0.999503  0
H  H27  1  0.08444932  0.42898036  0.16127706  1  0  0.100601  0  0.937731  0  0  0.11536  0  0.999005  0  0  0.117106  0  0.998533  0  0  0.09744  0.114069  0  0.999436  0
H  H28  1  0.30589028  0.15285838  0.67727682  1  0  0.055694  0  0.951085  0  0  0.074901  0  1.015802  0  0  0.075266  0  1.016456  0  0  0.086574  0.074578  0  1.015381  0
H  H29  1  0.69409544  0.84713117  0.32272348  1  0  0.05579  0  0.951139  0  0  0.074916  0  1.015904  0  0  0.075276  0  1.016558  0  0  0.086624  0.074592  0  1.015482  0
H  H30  1  0.43707093  0.37996336  0.68275644  1  0  0.059032  0  0.952926  0  0  0.078834  0  1.015902  0  0  0.07918  0  1.016746  0  0  0.087995  0.078512  0  1.01541  0
H  H31  1  0.56290617  0.62003188  0.31724477  1  0  0.058993  0  0.95287  0  0  0.078795  0  1.015842  0  0  0.079146  0  1.016677  0  0  0.08799  0.078471  0  1.01535  0
H  H32  1  0.76075993  0.77217366  0.69781766  1  0  0.048882  0  0.955391  0  0  0.07014  0  1.015775  0  0  0.070212  0  1.017011  0  0  0.084365  0.070016  0  1.015  0
H  H33  1  0.23922813  0.22783670  0.30218300  1  0  0.048863  0  0.955384  0  0  0.070127  0  1.015809  0  0  0.070199  0  1.017047  0  0  0.084346  0.069996  0  1.015044  0
H  H34  1  0.89987486  0.54414045  0.69985957  1  0  0.058798  0  0.949969  0  0  0.08141  0  1.008168  0  0  0.081285  0  1.009815  0  0  0.088859  0.081412  0  1.007118  0
H  H35  1  0.10011750  0.45586714  0.30014339  1  0  0.058742  0  0.949969  0  0  0.081408  0  1.008148  0  0  0.081284  0  1.009797  0  0  0.088864  0.081427  0  1.007074  0
Pb  Pb36  1  0.27620325  0.24814423  0.95143303  1  0  1.402317  0  1.3636  0  0  1.221066  0  1.756814  0  0  1.285069  0  1.711301  0  0  0.664976  1.174676  0  1.788725  0
Pb  Pb37  1  0.72377139  0.75181774  0.04856875  1  0  1.40227  0  1.363648  0  0  1.221079  0  1.756874  0  0  1.285076  0  1.711355  0  0  0.664933  1.174687  0  1.788781  0
C  C38  1  0.64406518  0.19344478  0.60825991  1  0  -0.06846  0  3.715788  0  0  -0.103364  0  3.977692  0  0  -0.104102  0  3.993139  0  0  -0.170137  -0.102695  0  3.96692  0
C  C39  1  0.35592272  0.80655043  0.39174493  1  0  -0.068664  0  3.71577  0  0  -0.103456  0  3.977516  0  0  -0.104197  0  3.992954  0  0  -0.170232  -0.102782  0  3.966743  0
C  C40  1  0.70735691  0.18878149  0.74889337  1  0  -0.284902  0  3.689417  0  0  -0.325567  0  3.946138  0  0  -0.331979  0  3.953628  0  0  -0.169959  -0.321152  0  3.940993  0
C  C41  1  0.29262670  0.81121505  0.25110750  1  0  -0.284626  0  3.689296  0  0  -0.325456  0  3.946208  0  0  -0.331916  0  3.953739  0  0  -0.169858  -0.321069  0  3.94106  0
C  C42  1  0.15787736  0.73827007  0.77165132  1  0  -0.08024  0  3.670666  0  0  -0.121682  0  3.932969  0  0  -0.121692  0  3.945889  0  0  -0.165977  -0.121504  0  3.923996  0
C  C43  1  0.84213230  0.26173436  0.22834609  1  0  -0.080037  0  3.670453  0  0  -0.121443  0  3.932796  0  0  -0.121448  0  3.945709  0  0  -0.165889  -0.121272  0  3.92383  0
C  C44  1  0.44067831  0.23411791  0.53834259  1  0  -0.290644  0  3.739363  0  0  -0.364983  0  3.984381  0  0  -0.367413  0  3.995954  0  0  -0.248636  -0.363097  0  3.97639  0
C  C45  1  0.55932907  0.76587554  0.46165790  1  0  -0.290652  0  3.739516  0  0  -0.365058  0  3.984523  0  0  -0.367485  0  3.996099  0  0  -0.248636  -0.363172  0  3.976531  0
C  C46  1  0.58693568  0.23224311  0.82117974  1  0  0.704597  0  3.835032  0  0  0.652481  0  4.135518  0  0  0.687887  0  4.128368  0  0  0.215548  0.628388  0  4.139416  0
C  C47  1  0.41304139  0.76775088  0.17882640  1  0  0.704347  0  3.835096  0  0  0.652305  0  4.135567  0  0  0.687716  0  4.128419  0  0  0.215471  0.628199  0  4.139478  0
C  C48  1  0.10850894  0.72209564  0.63056983  1  0  -0.295926  0  3.736784  0  0  -0.373345  0  3.986331  0  0  -0.375574  0  3.997009  0  0  -0.249959  -0.371517  0  3.978968  0
C  C49  1  0.89146827  0.27790921  0.36942766  1  0  -0.295959  0  3.736761  0  0  -0.373357  0  3.986321  0  0  -0.37558  0  3.996991  0  0  -0.24993  -0.371523  0  3.978965  0
C  C50  1  0.00822948  0.71032305  0.84083977  1  0  -0.270826  0  3.665045  0  0  -0.310161  0  3.921153  0  0  -0.315481  0  3.927852  0  0  -0.166147  -0.306405  0  3.916382  0
C  C51  1  0.99179107  0.28968960  0.15915865  1  0  -0.270987  0  3.664959  0  0  -0.31036  0  3.921123  0  0  -0.315675  0  3.927819  0  0  -0.166229  -0.306609  0  3.91635  0
C  C52  1  0.50557075  0.23322800  0.67933714  1  0  -0.086304  0  3.711021  0  0  -0.131374  0  3.977482  0  0  -0.130951  0  3.990931  0  0  -0.171099  -0.131464  0  3.968091  0
C  C53  1  0.49442375  0.76677819  0.32066641  1  0  -0.086389  0  3.710824  0  0  -0.131314  0  3.977192  0  0  -0.130886  0  3.990639  0  0  -0.171141  -0.131407  0  3.967813  0
C  C54  1  0.21484984  0.73705441  0.91145936  1  0  0.707818  0  3.86687  0  0  0.658624  0  4.164634  0  0  0.693439  0  4.15843  0  0  0.217073  0.634851  0  4.16786  0
C  C55  1  0.78519677  0.26296754  0.08853616  1  0  0.70785  0  3.866742  0  0  0.658797  0  4.164305  0  0  0.693608  0  4.158107  0  0  0.217183  0.63502  0  4.167536  0
C  C56  1  0.96348187  0.69044830  0.69967745  1  0  -0.066963  0  3.711195  0  0  -0.102077  0  3.973199  0  0  -0.102497  0  3.988169  0  0  -0.168961  -0.101628  0  3.962744  0
C  C57  1  0.03650616  0.30955790  0.30032370  1  0  -0.066854  0  3.711156  0  0  -0.102086  0  3.973305  0  0  -0.10251  0  3.988275  0  0  -0.168926  -0.101632  0  3.962832  0
O  O58  1  0.34714146  0.88962199  0.92470718  1  0  -0.704085  0  2.012108  0  0  -0.631314  0  2.257906  0  0  -0.664233  0  2.251696  0  0  -0.300804  -0.608096  0  2.261484  0
O  O59  1  0.65291992  0.11035813  0.07528825  1  0  -0.704299  0  2.011599  0  0  -0.631586  0  2.257362  0  0  -0.664508  0  2.251146  0  0  -0.301  -0.608365  0  2.260948  0
O  O60  1  0.73836772  0.19471280  0.88270325  1  0  -0.707501  0  1.977921  0  0  -0.632317  0  2.227747  0  0  -0.665254  0  2.218876  0  0  -0.30308  -0.609007  0  2.232996  0
O  O61  1  0.26164825  0.80527220  0.11729685  1  0  -0.707393  0  1.977958  0  0  -0.632169  0  2.227719  0  0  -0.665099  0  2.218846  0  0  -0.303024  -0.608862  0  2.232973  0
O  O62  1  0.33265547  0.30130695  0.82014042  1  0  -0.633352  0  1.963927  0  0  -0.554245  0  2.192543  0  0  -0.585356  0  2.186569  0  0  -0.288347  -0.532691  0  2.196056  0
O  O63  1  0.66735163  0.69865895  0.17986739  1  0  -0.633287  0  1.963411  0  0  -0.554357  0  2.192214  0  0  -0.585474  0  2.186249  0  0  -0.288402  -0.532777  0  2.195707  0
O  O64  1  0.25437001  0.60518335  0.95726552  1  0  -0.741723  0  2.040439  0  0  -0.65834  0  2.284274  0  0  -0.694104  0  2.278417  0  0  -0.298199  -0.632995  0  2.287479  0
O  O65  1  0.74563954  0.39480857  0.04273117  1  0  -0.741615  0  2.040936  0  0  -0.65825  0  2.284693  0  0  -0.694007  0  2.278838  0  0  -0.298116  -0.632897  0  2.287879  0
