# generated using pymatgen
data_ZnH26C22(N2O3)2
_symmetry_space_group_name_H-M   'P 1'
_cell_length_a   5.22827476
_cell_length_b   7.58068653
_cell_length_c   13.95127558
_cell_angle_alpha   99.54507459
_cell_angle_beta   100.81674684
_cell_angle_gamma   90.01057931
_symmetry_Int_Tables_number   1
_chemical_formula_structural   ZnH26C22(N2O3)2
_chemical_formula_sum   'Zn1 H26 C22 N4 O6'
_cell_volume   535.32015078
_cell_formula_units_Z   1
loop_
 _symmetry_equiv_pos_site_id
 _symmetry_equiv_pos_as_xyz
  1  'x, y, z'
loop_
 _atom_site_type_symbol
 _atom_site_label
 _atom_site_symmetry_multiplicity
 _atom_site_fract_x
 _atom_site_fract_y
 _atom_site_fract_z
 _atom_site_occupancy
 _atom_site_hle17_bader_spin_density
 _atom_site_hle17_ddec_charge
 _atom_site_hle17_ddec_spin_density
 _atom_site_hle17_ddec_sum_bond_order
 _atom_site_hle17_magmom
 _atom_site_hse06_10hf_bader_spin_density
 _atom_site_hse06_10hf_ddec_charge
 _atom_site_hse06_10hf_ddec_spin_density
 _atom_site_hse06_10hf_ddec_sum_bond_order
 _atom_site_hse06_10hf_magmom
 _atom_site_hse06_bader_spin_density
 _atom_site_hse06_ddec_charge
 _atom_site_hse06_ddec_spin_density
 _atom_site_hse06_ddec_sum_bond_order
 _atom_site_hse06_magmom
 _atom_site_pbe_bader_spin_density
 _atom_site_pbe_cm5_charge
 _atom_site_pbe_ddec_charge
 _atom_site_pbe_ddec_spin_density
 _atom_site_pbe_ddec_sum_bond_order
 _atom_site_pbe_magmom
Zn  Zn0  1  0.07069895  0.99963850  0.99992519  1  0  1.055489  0  1.67223  0  0  0.867942  0  2.122952  0  0  0.916411  0  2.069402  0  0  0.686504  0.834229  0  2.159712  0
H  H1  1  0.43116615  0.67620701  0.00147435  1  0  0.097982  0  0.956166  0  0  0.10893  0  1.023781  0  0  0.111072  0  1.023443  0  0  0.111858  0.107399  0  1.024118  0
H  H2  1  0.42953194  0.32323432  0.99841229  1  0  0.09837  0  0.955511  0  0  0.109382  0  1.023422  0  0  0.111529  0  1.023043  0  0  0.111761  0.107841  0  1.02375  0
H  H3  1  0.26744998  0.64163583  0.09791006  1  0  0.092556  0  0.944  0  0  0.10504  0  1.007583  0  0  0.107071  0  1.006676  0  0  0.110564  0.103518  0  1.008482  0
H  H4  1  0.16903318  0.35773180  0.90203839  1  0  0.091833  0  0.943653  0  0  0.104032  0  1.00791  0  0  0.106038  0  1.007003  0  0  0.110352  0.102503  0  1.008793  0
H  H5  1  0.09751875  0.55093941  0.22873676  1  0  0.065254  0  0.934403  0  0  0.073906  0  0.999009  0  0  0.076229  0  0.996659  0  0  0.113396  0.07217  0  1.000831  0
H  H6  1  0.86747613  0.44889624  0.77114203  1  0  0.065363  0  0.935642  0  0  0.074433  0  0.999278  0  0  0.076789  0  0.996898  0  0  0.113959  0.072673  0  1.001118  0
H  H7  1  0.90179375  0.50119525  0.36422928  1  0  0.084211  0  0.932169  0  0  0.100782  0  0.994681  0  0  0.10179  0  0.994805  0  0  0.094487  0.100064  0  0.994596  0
H  H8  1  0.53673994  0.49855267  0.63555760  1  0  0.084256  0  0.932016  0  0  0.100882  0  0.994625  0  0  0.101864  0  0.994729  0  0  0.094458  0.100145  0  0.994581  0
H  H9  1  0.72671964  0.30707117  0.29507000  1  0  0.097386  0  0.942446  0  0  0.112666  0  1.004698  0  0  0.114252  0  1.004733  0  0  0.099318  0.111513  0  1.004726  0
H  H10  1  0.43016156  0.69235054  0.70463073  1  0  0.097524  0  0.943148  0  0  0.112782  0  1.005513  0  0  0.114343  0  1.005542  0  0  0.099386  0.111638  0  1.005533  0
H  H11  1  0.38057818  0.47377658  0.44289490  1  0  0.082866  0  0.96535  0  0  0.095642  0  1.026663  0  0  0.098191  0  1.025851  0  0  0.094337  0.093784  0  1.027363  0
H  H12  1  0.93758134  0.52689794  0.55734231  1  0  0.083011  0  0.96527  0  0  0.096121  0  1.026169  0  0  0.098595  0  1.025433  0  0  0.094933  0.094296  0  1.026842  0
H  H13  1  0.72282105  0.26825176  0.50195250  1  0  0.074274  0  0.972957  0  0  0.085369  0  1.037151  0  0  0.087523  0  1.036708  0  0  0.093765  0.083812  0  1.037522  0
H  H14  1  0.22006415  0.73318781  0.49857137  1  0  0.074011  0  0.972378  0  0  0.084615  0  1.037105  0  0  0.086838  0  1.036626  0  0  0.093822  0.083059  0  1.037465  0
H  H15  1  0.67121889  0.94200203  0.44233620  1  0  0.086744  0  0.977422  0  0  0.097064  0  1.039424  0  0  0.098749  0  1.040869  0  0  0.096007  0.095853  0  1.038492  0
H  H16  1  0.22646330  0.05933302  0.55804132  1  0  0.08587  0  0.976729  0  0  0.096491  0  1.038411  0  0  0.098119  0  1.039932  0  0  0.095114  0.09527  0  1.037482  0
H  H17  1  0.26547390  0.81835013  0.32299989  1  0  0.082008  0  0.956892  0  0  0.094361  0  1.015279  0  0  0.097373  0  1.013249  0  0  0.095838  0.092147  0  1.016874  0
H  H18  1  0.93917300  0.18214128  0.67718771  1  0  0.082532  0  0.959148  0  0  0.095049  0  1.017232  0  0  0.098062  0  1.0152  0  0  0.096502  0.092836  0  1.018833  0
H  H19  1  0.92439269  0.02069647  0.26604617  1  0  0.100743  0  0.977737  0  0  0.109283  0  1.0424  0  0  0.112422  0  1.041145  0  0  0.098896  0.107029  0  1.043388  0
H  H20  1  0.65569955  0.97895686  0.73387348  1  0  0.10099  0  0.976247  0  0  0.109536  0  1.041071  0  0  0.112709  0  1.039743  0  0  0.099293  0.10724  0  1.042107  0
H  H21  1  0.32452405  0.94348788  0.16578315  1  0  0.292051  0  0.907731  0  0  0.282185  0  0.965179  0  0  0.287021  0  0.963228  0  0  0.294944  0.278749  0  0.966617  0
H  H22  1  0.15823967  0.05592254  0.83412125  1  0  0.291894  0  0.907374  0  0  0.281556  0  0.965248  0  0  0.286372  0  0.96335  0  0  0.294432  0.278133  0  0.966651  0
H  H23  1  0.53673924  0.98278862  0.09807826  1  0  0.309681  0  0.883834  0  0  0.29648  0  0.94433  0  0  0.303366  0  0.938875  0  0  0.298663  0.291537  0  0.948347  0
H  H24  1  0.43830723  0.01670124  0.90180580  1  0  0.310178  0  0.884444  0  0  0.296587  0  0.945174  0  0  0.303443  0  0.939783  0  0  0.298511  0.291647  0  0.949201  0
H  H25  1  0.53633278  0.43852487  0.16101091  1  0  0.300294  0  0.962311  0  0  0.279688  0  1.032874  0  0  0.288569  0  1.025686  0  0  0.297191  0.273435  0  1.037953  0
H  H26  1  0.37410839  0.56088933  0.83879592  1  0  0.301089  0  0.961248  0  0  0.279973  0  1.032586  0  0  0.2889  0  1.025289  0  0  0.297244  0.27371  0  1.037679  0
C  C27  1  0.42714310  0.71660804  0.08047081  1  0  -0.071919  0  3.655763  0  0  -0.12963  0  3.914915  0  0  -0.129889  0  3.922412  0  0  -0.07516  -0.12966  0  3.910082  0
C  C28  1  0.34632745  0.28291005  0.91943319  1  0  -0.070597  0  3.652264  0  0  -0.128897  0  3.912251  0  0  -0.129042  0  3.919558  0  0  -0.07493  -0.12889  0  3.907398  0
C  C29  1  0.69263384  0.67428201  0.13655715  1  0  0.552934  0  3.820209  0  0  0.510366  0  4.113247  0  0  0.538921  0  4.113094  0  0  0.233626  0.491186  0  4.112696  0
C  C30  1  0.55550660  0.32541960  0.86334169  1  0  0.553739  0  3.816721  0  0  0.511768  0  4.109196  0  0  0.54031  0  4.10903  0  0  0.235012  0.492553  0  4.108662  0
C  C31  1  0.94725140  0.44346916  0.21232343  1  0  0.060329  0  3.60961  0  0  0.039528  0  3.852457  0  0  0.040056  0  3.863711  0  0  0.015842  0.039141  0  3.844835  0
C  C32  1  0.73369877  0.55638696  0.78752916  1  0  0.05982  0  3.612915  0  0  0.03993  0  3.85441  0  0  0.040419  0  3.865683  0  0  0.015144  0.039552  0  3.846771  0
C  C33  1  0.04171668  0.29263727  0.14009411  1  0  0.632259  0  3.846463  0  0  0.583081  0  4.144151  0  0  0.615065  0  4.139333  0  0  0.210307  0.561467  0  4.146583  0
C  C34  1  0.90062491  0.70721147  0.85976447  1  0  0.634753  0  3.842489  0  0  0.584234  0  4.141932  0  0  0.616256  0  4.137034  0  0  0.210029  0.562611  0  4.144399  0
C  C35  1  0.91524600  0.38023077  0.30979948  1  0  -0.190758  0  3.666207  0  0  -0.240226  0  3.91517  0  0  -0.24133  0  3.92695  0  0  -0.155087  -0.239276  0  3.907012  0
C  C36  1  0.60426687  0.61952231  0.69005064  1  0  -0.192209  0  3.667544  0  0  -0.242422  0  3.916921  0  0  -0.243397  0  3.928499  0  0  -0.155406  -0.24148  0  3.908815  0
C  C37  1  0.12622670  0.26196541  0.35018393  1  0  0.092129  0  3.760314  0  0  0.114121  0  3.997352  0  0  0.113535  0  4.023115  0  0  -0.015949  0.114438  0  3.97985  0
C  C38  1  0.77470393  0.73813608  0.64986913  1  0  0.094634  0  3.757881  0  0  0.117095  0  3.994439  0  0  0.116485  0  4.020137  0  0  -0.015252  0.117422  0  3.976956  0
C  C39  1  0.35279268  0.32964579  0.41722861  1  0  -0.13512  0  3.751092  0  0  -0.153675  0  3.996118  0  0  -0.156628  0  4.01774  0  0  -0.095905  -0.151564  0  3.981419  0
C  C40  1  0.93469876  0.67097147  0.58298866  1  0  -0.135256  0  3.750153  0  0  -0.154207  0  3.995352  0  0  -0.157113  0  4.017032  0  0  -0.09656  -0.152115  0  3.980652  0
C  C41  1  0.54629551  0.21462524  0.45035025  1  0  -0.073674  0  3.806921  0  0  -0.086752  0  4.05945  0  0  -0.088702  0  4.081572  0  0  -0.095444  -0.085345  0  4.044296  0
C  C42  1  0.09485512  0.78643033  0.55006796  1  0  -0.074224  0  3.806032  0  0  -0.086979  0  4.058715  0  0  -0.088982  0  4.080769  0  0  -0.095829  -0.085584  0  4.043659  0
C  C43  1  0.51884546  0.03040468  0.41635923  1  0  -0.079932  0  3.779421  0  0  -0.094518  0  4.025588  0  0  -0.096444  0  4.047631  0  0  -0.097593  -0.093139  0  4.01051  0
C  C44  1  0.10032604  0.97064560  0.58397572  1  0  -0.078898  0  3.779288  0  0  -0.09343  0  4.02518  0  0  -0.095317  0  4.047268  0  0  -0.096236  -0.09205  0  4.010116  0
C  C45  1  0.29328860  0.96194959  0.34994021  1  0  -0.077304  0  3.791496  0  0  -0.085751  0  4.037324  0  0  -0.087361  0  4.057376  0  0  -0.095178  -0.084561  0  4.023674  0
C  C46  1  0.94053864  0.03864091  0.65018717  1  0  -0.078377  0  3.793981  0  0  -0.087295  0  4.040021  0  0  -0.088895  0  4.060061  0  0  -0.096682  -0.086106  0  4.02635  0
C  C47  1  0.09853696  0.07653045  0.31809665  1  0  -0.121905  0  3.734053  0  0  -0.14195  0  3.978665  0  0  -0.144699  0  4.000038  0  0  -0.095325  -0.140014  0  3.964126  0
C  C48  1  0.77815049  0.92354089  0.68192383  1  0  -0.121998  0  3.732009  0  0  -0.142054  0  3.976372  0  0  -0.144788  0  3.997722  0  0  -0.094587  -0.1401  0  3.961826  0
N  N49  1  0.37147315  0.90826659  0.09722364  1  0  -0.603383  0  3.14177  0  0  -0.545233  0  3.400664  0  0  -0.562987  0  3.395052  0  0  -0.618874  -0.532841  0  3.404485  0
N  N50  1  0.27395178  0.09124239  0.90266289  1  0  -0.604629  0  3.142491  0  0  -0.545376  0  3.401827  0  0  -0.56314  0  3.39614  0  0  -0.618349  -0.533  0  3.405648  0
N  N51  1  0.70463792  0.51646760  0.16939453  1  0  -0.45351  0  3.325654  0  0  -0.400548  0  3.574209  0  0  -0.422212  0  3.582394  0  0  -0.425661  -0.38574  0  3.568239  0
N  N52  1  0.53414736  0.48315683  0.83039798  1  0  -0.454173  0  3.32599  0  0  -0.401085  0  3.573994  0  0  -0.422802  0  3.58225  0  0  -0.425776  -0.386223  0  3.567974  0
O  O53  1  0.88394051  0.77843380  0.14625139  1  0  -0.580996  0  1.971905  0  0  -0.533665  0  2.205601  0  0  -0.555272  0  2.199233  0  0  -0.30686  -0.518638  0  2.209508  0
O  O54  1  0.73733609  0.22149496  0.85371309  1  0  -0.581497  0  1.969798  0  0  -0.534444  0  2.203503  0  0  -0.556059  0  2.197159  0  0  -0.307803  -0.519431  0  2.207465  0
O  O55  1  0.28306482  0.28556491  0.14201741  1  0  -0.623865  0  2.027581  0  0  -0.57113  0  2.264773  0  0  -0.59612  0  2.25815  0  0  -0.311382  -0.553564  0  2.268546  0
O  O56  1  0.14019775  0.71389487  0.85800741  1  0  -0.624335  0  2.025653  0  0  -0.571104  0  2.26332  0  0  -0.596155  0  2.256768  0  0  -0.311082  -0.553521  0  2.267059  0
O  O57  1  0.87421158  0.17918795  0.08278268  1  0  -0.619271  0  1.998581  0  0  -0.539671  0  2.252302  0  0  -0.568022  0  2.239585  0  0  -0.314298  -0.520303  0  2.260785  0
O  O58  1  0.79058362  0.82074991  0.91704118  1  0  -0.621228  0  1.998988  0  0  -0.540857  0  2.25274  0  0  -0.569329  0  2.240135  0  0  -0.314288  -0.521453  0  2.261202  0
