# generated using pymatgen
data_Cu3H6C4N8Cl
_symmetry_space_group_name_H-M   'P 1'
_cell_length_a   9.87058194
_cell_length_b   9.86866457
_cell_length_c   12.21673679
_cell_angle_alpha   113.82114346
_cell_angle_beta   113.82219427
_cell_angle_gamma   90.01043732
_symmetry_Int_Tables_number   1
_chemical_formula_structural   Cu3H6C4N8Cl
_chemical_formula_sum   'Cu12 H24 C16 N32 Cl4'
_cell_volume   976.75250748
_cell_formula_units_Z   4
loop_
 _symmetry_equiv_pos_site_id
 _symmetry_equiv_pos_as_xyz
  1  'x, y, z'
loop_
 _atom_site_type_symbol
 _atom_site_label
 _atom_site_symmetry_multiplicity
 _atom_site_fract_x
 _atom_site_fract_y
 _atom_site_fract_z
 _atom_site_occupancy
 _atom_site_pbe_bader_spin_density
 _atom_site_pbe_cm5_charge
 _atom_site_pbe_ddec_charge
 _atom_site_pbe_ddec_spin_density
 _atom_site_pbe_ddec_sum_bond_order
 _atom_site_pbe_magmom
Cu  Cu0  1  0.05682674  0.80676575  0.11343421  1  0  0.509075  0.274977  0  2.424136  0
Cu  Cu1  1  0.30670837  0.55676902  0.61349317  1  0  0.508821  0.275088  0  2.422778  0
Cu  Cu2  1  0.94317340  0.19323355  0.88656534  1  0  0.509068  0.274961  0  2.424151  0
Cu  Cu3  1  0.69329222  0.44323254  0.38650808  1  0  0.508874  0.275112  0  2.422932  0
Cu  Cu4  1  0.19549440  0.64269310  0.32711393  1  0  0.538669  0.282216  0  2.478663  0
Cu  Cu5  1  0.13159400  0.18451853  0.32713870  1  0  0.538494  0.282378  0  2.478618  0
Cu  Cu6  1  0.68446631  0.69545221  0.82700027  1  0  0.538684  0.281708  0  2.480206  0
Cu  Cu7  1  0.14266643  0.63159183  0.82700382  1  0  0.538277  0.281095  0  2.478673  0
Cu  Cu8  1  0.80450730  0.35730846  0.67289014  1  0  0.538701  0.282244  0  2.478724  0
Cu  Cu9  1  0.86840725  0.81548076  0.67286285  1  0  0.538472  0.282312  0  2.478693  0
Cu  Cu10  1  0.31552453  0.30454483  0.17299796  1  0  0.538675  0.281709  0  2.48027  0
Cu  Cu11  1  0.85734080  0.36840973  0.17299386  1  0  0.538315  0.281132  0  2.478651  0
H  H12  1  0.25889092  0.35926931  0.80414066  1  0  0.096103  0.146411  0  1.025376  0
H  H13  1  0.54521952  0.94482620  0.80414942  1  0  0.095723  0.14629  0  1.024763  0
H  H14  1  0.44492580  0.75895077  0.30418303  1  0  0.09575  0.145644  0  1.024704  0
H  H15  1  0.85909623  0.04526913  0.30417621  1  0  0.096266  0.147467  0  1.024324  0
H  H16  1  0.74111100  0.64072773  0.19585955  1  0  0.09612  0.146434  0  1.025359  0
H  H17  1  0.45477907  0.05517649  0.19585155  1  0  0.095713  0.14625  0  1.024784  0
H  H18  1  0.55506903  0.24104966  0.69581351  1  0  0.095724  0.145634  0  1.024703  0
H  H19  1  0.14090037  0.95472904  0.69582263  1  0  0.096283  0.1475  0  1.024267  0
H  H20  1  0.21267509  0.21690193  0.84534353  1  0  0.095679  0.144152  0  1.019179  0
H  H21  1  0.63268338  0.12839319  0.84536323  1  0  0.095961  0.144521  0  1.018798  0
H  H22  1  0.62843492  0.71275456  0.34537099  1  0  0.095656  0.144008  0  1.019745  0
H  H23  1  0.71676969  0.13265003  0.34537600  1  0  0.095944  0.145327  0  1.018145  0
H  H24  1  0.78732660  0.78309962  0.15465889  1  0  0.095707  0.144195  0  1.019137  0
H  H25  1  0.36731831  0.87160837  0.15464083  1  0  0.095935  0.144476  0  1.018805  0
H  H26  1  0.37156234  0.28724699  0.65462917  1  0  0.095681  0.144025  0  1.019698  0
H  H27  1  0.28323001  0.86735265  0.65462614  1  0  0.095953  0.145341  0  1.018147  0
H  H28  1  0.39883130  0.32673273  0.93578167  1  0  0.092356  0.164743  0  1.009615  0
H  H29  1  0.53705112  0.10903726  0.93587252  1  0  0.093178  0.166156  0  1.00844  0
H  H30  1  0.60910408  0.89894130  0.43581956  1  0  0.092555  0.164325  0  1.009337  0
H  H31  1  0.82658697  0.03700140  0.43587426  1  0  0.092786  0.166284  0  1.008718  0
H  H32  1  0.60117017  0.67326770  0.06422113  1  0  0.092372  0.164763  0  1.009592  0
H  H33  1  0.46295190  0.89096542  0.06413152  1  0  0.093143  0.166117  0  1.008493  0
H  H34  1  0.39089075  0.10105912  0.56417944  1  0  0.092565  0.164344  0  1.009303  0
H  H35  1  0.17341405  0.96300242  0.56413032  1  0  0.092795  0.166281  0  1.008736  0
C  C36  1  0.27893505  0.32982714  0.88595152  1  0  -0.237333  -0.454638  0  3.899286  0
C  C37  1  0.60703755  0.05606646  0.88596246  1  0  -0.238461  -0.456735  0  3.898077  0
C  C38  1  0.55616883  0.77902294  0.38598994  1  0  -0.236964  -0.452685  0  3.898562  0
C  C39  1  0.82967265  0.10704564  0.38599469  1  0  -0.239115  -0.460043  0  3.898601  0
C  C40  1  0.72106753  0.67017329  0.11404919  1  0  -0.237387  -0.454738  0  3.899212  0
C  C41  1  0.39296392  0.94393397  0.11404035  1  0  -0.238406  -0.456616  0  3.89802  0
C  C42  1  0.44382844  0.22097862  0.61400858  1  0  -0.236968  -0.452717  0  3.898409  0
C  C43  1  0.17032750  0.89295366  0.61400568  1  0  -0.239123  -0.460067  0  3.898611  0
C  C44  1  0.23361588  0.44308743  0.98202388  1  0  0.220764  0.363471  0  3.957802  0
C  C45  1  0.74848305  0.03883039  0.98192723  1  0  0.221178  0.36348  0  3.959412  0
C  C46  1  0.53892147  0.73366084  0.48203525  1  0  0.220463  0.361707  0  3.960526  0
C  C47  1  0.94295479  0.24849068  0.48197499  1  0  0.221441  0.365101  0  3.958222  0
C  C48  1  0.76638649  0.55691187  0.01797639  1  0  0.220715  0.363465  0  3.957664  0
C  C49  1  0.25151444  0.96116665  0.01807317  1  0  0.221184  0.363428  0  3.95933  0
C  C50  1  0.46107933  0.26634750  0.51796501  1  0  0.220463  0.361722  0  3.96053  0
C  C51  1  0.05704314  0.75150862  0.51802630  1  0  0.221417  0.365055  0  3.958245  0
N  N52  1  0.17444052  0.56039495  0.96686015  1  0  -0.266752  -0.236779  0  3.544244  0
N  N53  1  0.79260388  0.90639606  0.96669629  1  0  -0.266987  -0.236025  0  3.547466  0
N  N54  1  0.40647261  0.67438811  0.46681478  1  0  -0.268193  -0.237977  0  3.54729  0
N  N55  1  0.06013868  0.29257046  0.46669225  1  0  -0.266381  -0.236007  0  3.546562  0
N  N56  1  0.82556162  0.43960322  0.03313804  1  0  -0.266678  -0.236632  0  3.544157  0
N  N57  1  0.20739383  0.09360211  0.03330210  1  0  -0.266939  -0.23595  0  3.547384  0
N  N58  1  0.59352908  0.32561345  0.53318519  1  0  -0.268181  -0.237954  0  3.547239  0
N  N59  1  0.93985903  0.70742771  0.53330613  1  0  -0.266442  -0.236074  0  3.54673  0
N  N60  1  0.14460588  0.63365559  0.07209572  1  0  -0.184488  -0.025857  0  3.660064  0
N  N61  1  0.92758534  0.93841645  0.07203597  1  0  -0.184951  -0.026892  0  3.665146  0
N  N62  1  0.43847146  0.64450395  0.57206249  1  0  -0.184  -0.025271  0  3.662417  0
N  N63  1  0.13354103  0.42757605  0.57201934  1  0  -0.185972  -0.028375  0  3.662166  0
N  N64  1  0.85539737  0.36634258  0.92790283  1  0  -0.184514  -0.025916  0  3.660146  0
N  N65  1  0.07241105  0.06158059  0.92796243  1  0  -0.18501  -0.026949  0  3.66518  0
N  N66  1  0.56153156  0.35549874  0.42793829  1  0  -0.184052  -0.025293  0  3.662508  0
N  N67  1  0.86645668  0.57242212  0.42798150  1  0  -0.185958  -0.028283  0  3.662352  0
N  N68  1  0.18686689  0.56452776  0.15079653  1  0  -0.170864  -0.035475  0  3.645209  0
N  N69  1  0.96383745  0.08622601  0.15084690  1  0  -0.171767  -0.037904  0  3.651104  0
N  N70  1  0.58628344  0.68685571  0.65078503  1  0  -0.171716  -0.036695  0  3.651571  0
N  N71  1  0.06460200  0.46387419  0.65085555  1  0  -0.170537  -0.034457  0  3.647017  0
N  N72  1  0.81313436  0.43547154  0.84920256  1  0  -0.170883  -0.035511  0  3.645552  0
N  N73  1  0.03616159  0.91377329  0.84915147  1  0  -0.171757  -0.037919  0  3.651112  0
N  N74  1  0.41371958  0.31314698  0.34921247  1  0  -0.17172  -0.036809  0  3.651658  0
N  N75  1  0.93539327  0.53612285  0.34914331  1  0  -0.170561  -0.034524  0  3.647188  0
N  N76  1  0.24250867  0.44425310  0.09594389  1  0  -0.277785  -0.239475  0  3.60711  0
N  N77  1  0.85333216  0.15159565  0.09596412  1  0  -0.277028  -0.23781  0  3.607492  0
N  N78  1  0.65166103  0.74259994  0.59596551  1  0  -0.27753  -0.238765  0  3.609764  0
N  N79  1  0.94433525  0.35337825  0.59602277  1  0  -0.277505  -0.239184  0  3.607678  0
N  N80  1  0.75749369  0.55574620  0.90405556  1  0  -0.27778  -0.239491  0  3.607214  0
N  N81  1  0.14666356  0.84840365  0.90403480  1  0  -0.276979  -0.237678  0  3.607467  0
N  N82  1  0.34834000  0.25740387  0.40403171  1  0  -0.277547  -0.238753  0  3.609789  0
N  N83  1  0.05566180  0.64661653  0.40397512  1  0  -0.277446  -0.239107  0  3.607594  0
Cl  Cl84  1  0.17236657  0.92238607  0.34502030  1  0  -0.31981  -0.489718  0  1.573821  0
Cl  Cl85  1  0.42271069  0.67256895  0.84517744  1  0  -0.319725  -0.489807  0  1.57238  0
Cl  Cl86  1  0.82763357  0.07761323  0.65497843  1  0  -0.319794  -0.489691  0  1.57378  0
Cl  Cl87  1  0.57729056  0.32743035  0.15482247  1  0  -0.31971  -0.4898  0  1.572293  0
