# generated using pymatgen
data_Zr3H24C44Br2O21
_symmetry_space_group_name_H-M   'P 1'
_cell_length_a   19.23354857
_cell_length_b   19.18843233
_cell_length_c   19.18669761
_cell_angle_alpha   59.60474259
_cell_angle_beta   59.92580935
_cell_angle_gamma   59.91569559
_symmetry_Int_Tables_number   1
_chemical_formula_structural   Zr3H24C44Br2O21
_chemical_formula_sum   'Zr6 H48 C88 Br4 O42'
_cell_volume   4985.99529352
_cell_formula_units_Z   2
loop_
 _symmetry_equiv_pos_site_id
 _symmetry_equiv_pos_as_xyz
  1  'x, y, z'
loop_
 _atom_site_type_symbol
 _atom_site_label
 _atom_site_symmetry_multiplicity
 _atom_site_fract_x
 _atom_site_fract_y
 _atom_site_fract_z
 _atom_site_occupancy
 _atom_site_pbe_bader_charge
 _atom_site_pbe_bader_spin_density
 _atom_site_pbe_cm5_charge
 _atom_site_pbe_ddec_charge
 _atom_site_pbe_ddec_spin_density
 _atom_site_pbe_ddec_sum_bond_order
 _atom_site_pbe_magmom
Zr  Zr0  1  0.90768989  0.40734399  0.59263779  1  2.632882  0  1.622997  2.371825  0  2.756834  0
Zr  Zr1  1  0.09233009  0.59209109  0.40790625  1  2.633298  0  1.623223  2.371951  0  2.758712  0
Zr  Zr2  1  0.09189335  0.40671015  0.59320520  1  2.635786  0  1.624737  2.373189  0  2.753179  0
Zr  Zr3  1  0.90815866  0.59266540  0.40727459  1  2.630366  0  1.624969  2.373292  0  2.754558  0
Zr  Zr4  1  0.90821363  0.59155054  0.59201966  1  2.634532  0  1.626194  2.369439  0  2.77052  0
Zr  Zr5  1  0.09182353  0.40795771  0.40838178  1  2.633459  0  1.626095  2.370873  0  2.768496  0
H  H6  1  0.92705951  0.42660298  0.71851758  1  0.593468  0  0.330382  0.421172  0  0.860232  0
H  H7  1  0.92776023  0.71798164  0.42723284  1  0.616159  0  0.330675  0.421369  0  0.85987  0
H  H8  1  0.21705805  0.42687612  0.42832454  1  0.624091  0  0.332162  0.424067  0  0.854789  0
H  H9  1  0.92772489  0.42783227  0.42737614  1  0.618923  0  0.332089  0.423755  0  0.854523  0
H  H10  1  0.31830880  0.61362710  0.17852569  1  0.083502  0  0.105828  0.116857  0  1.014513  0
H  H11  1  0.67873495  0.38905930  0.81900872  1  0.093469  0  0.106063  0.116933  0  1.014121  0
H  H12  1  0.67832130  0.61239387  0.81916963  1  0.087361  0  0.103033  0.10859  0  1.004404  0
H  H13  1  0.55258305  0.60968695  0.94832148  1  0.13808  0  0.102989  0.116794  0  1.063409  0
H  H14  1  0.31914237  0.38999499  0.17852065  1  0.059111  0  0.102936  0.108644  0  1.00451  0
H  H15  1  0.44833077  0.38926346  0.05289475  1  0.148265  0  0.103089  0.117253  0  1.063011  0
H  H16  1  0.11313335  0.81870884  0.38921961  1  0.081699  0  0.106026  0.117015  0  1.014217  0
H  H17  1  0.88953553  0.17819076  0.61380736  1  0.065911  0  0.105964  0.116896  0  1.014723  0
H  H18  1  0.11228399  0.17832613  0.39013423  1  0.066316  0  0.103  0.108792  0  1.004716  0
H  H19  1  0.10938573  0.05281919  0.38922699  1  0.09203  0  0.102909  0.116966  0  1.063051  0
H  H20  1  0.89001556  0.81901663  0.61253108  1  0.09651  0  0.102916  0.108635  0  1.004305  0
H  H21  1  0.88929849  0.94824209  0.60966756  1  0.10869  0  0.102892  0.116915  0  1.063439  0
H  H22  1  0.31781076  0.17934011  0.38970830  1  0.055658  0  0.106416  0.117521  0  1.011757  0
H  H23  1  0.67964385  0.81761328  0.61319770  1  0.076944  0  0.10654  0.117588  0  1.011786  0
H  H24  1  0.67816064  0.82044143  0.38925671  1  0.064882  0  0.103333  0.109412  0  1.004792  0
H  H25  1  0.55238151  0.94927253  0.38893170  1  0.107501  0  0.103066  0.116627  0  1.064767  0
H  H26  1  0.31959601  0.17674229  0.61336204  1  0.111673  0  0.10313  0.109114  0  1.005328  0
H  H27  1  0.44904216  0.05168455  0.60994408  1  0.12729  0  0.103091  0.116683  0  1.06519  0
H  H28  1  0.88961070  0.61304596  0.81777639  1  0.077805  0  0.106368  0.117249  0  1.011953  0
H  H29  1  0.11317185  0.38953077  0.17956049  1  0.044162  0  0.10642  0.117052  0  1.012261  0
H  H30  1  0.89033519  0.61321098  0.17704545  1  0.070896  0  0.103368  0.109615  0  1.005194  0
H  H31  1  0.88943576  0.60997627  0.05184727  1  0.091042  0  0.102958  0.116428  0  1.064766  0
H  H32  1  0.11220141  0.38910756  0.82074535  1  0.099679  0  0.103353  0.10966  0  1.004769  0
H  H33  1  0.10950865  0.38895316  0.94946114  1  0.088864  0  0.103176  0.116499  0  1.065047  0
H  H34  1  0.11232034  0.81983559  0.17771142  1  0.122327  0  0.096905  0.108294  0  1.051117  0
H  H35  1  0.88988244  0.81998762  0.17758689  1  0.146403  0  0.099783  0.11223  0  1.045551  0
H  H36  1  0.89013651  0.17692771  0.82064822  1  0.108878  0  0.096881  0.108246  0  1.050599  0
H  H37  1  0.11254246  0.17679986  0.82081492  1  0.11135  0  0.099624  0.112115  0  1.045186  0
H  H38  1  0.31865405  0.38834286  0.61441226  1  0.055954  0  0.107199  0.11829  0  1.011025  0
H  H39  1  0.67869673  0.61407158  0.38866586  1  0.053092  0  0.107114  0.118014  0  1.011106  0
H  H40  1  0.67795086  0.38948563  0.61293495  1  0.062654  0  0.10216  0.107917  0  1.005338  0
H  H41  1  0.55267376  0.38862697  0.61024983  1  0.105881  0  0.102121  0.11549  0  1.064196  0
H  H42  1  0.31950766  0.61259308  0.38983098  1  0.081595  0  0.102224  0.107904  0  1.005201  0
H  H43  1  0.44835946  0.61005531  0.38881808  1  0.103219  0  0.102536  0.116168  0  1.063693  0
H  H44  1  0.41507987  0.66488000  0.08265145  1  0.604315  0  0.336291  0.362351  0  0.87966  0
H  H45  1  0.58481924  0.33505742  0.91761112  1  0.608199  0  0.33615  0.361886  0  0.881017  0
H  H46  1  0.16243279  0.91741445  0.33507541  1  0.5986  0  0.336249  0.362095  0  0.88027  0
H  H47  1  0.83731196  0.08247452  0.66488681  1  0.609706  0  0.336446  0.362325  0  0.880183  0
H  H48  1  0.41551073  0.08499192  0.33619813  1  0.59887  0  0.338622  0.363781  0  0.872919  0
H  H49  1  0.58474573  0.91487496  0.66381765  1  0.594193  0  0.338871  0.364033  0  0.872348  0
H  H50  1  0.83660800  0.66377314  0.91500971  1  0.632052  0  0.338675  0.363575  0  0.872659  0
H  H51  1  0.16335683  0.33615652  0.08514520  1  0.630647  0  0.338791  0.363787  0  0.872725  0
H  H52  1  0.41607549  0.33522881  0.66468023  1  0.593012  0  0.338607  0.3634  0  0.872789  0
H  H53  1  0.58408397  0.66445556  0.33544885  1  0.593735  0  0.338976  0.364069  0  0.871813  0
C  C54  1  0.76388286  0.50100128  0.73200799  1  1.544733  0  0.234426  0.640819  0  4.093698  0
C  C55  1  0.00306292  0.73165285  0.50135804  1  1.543778  0  0.235411  0.642075  0  4.094111  0
C  C56  1  0.23156583  0.50319426  0.26378967  1  1.543568  0  0.235134  0.641983  0  4.093659  0
C  C57  1  0.00148630  0.26336799  0.50358546  1  1.557677  0  0.234889  0.641811  0  4.09336  0
C  C58  1  0.00197506  0.26141423  0.73459966  1  1.55738  0  0.238103  0.641371  0  4.093231  0
C  C59  1  0.76379502  0.50310085  0.50127181  1  1.559636  0  0.235603  0.641618  0  4.089804  0
C  C60  1  0.00201904  0.73390884  0.26210121  1  1.561312  0  0.237843  0.64113  0  4.094217  0
C  C61  1  0.23183454  0.50081899  0.50354694  1  1.550781  0  0.235457  0.642366  0  4.088244  0
C  C62  1  0.00133841  0.50186143  0.73241723  1  1.540942  0  0.235053  0.641377  0  4.093878  0
C  C63  1  0.23116773  0.26295231  0.50258101  1  1.515196  0  0.23552  0.643021  0  4.092807  0
C  C64  1  0.00321751  0.50221909  0.26338196  1  1.541849  0  0.235116  0.641549  0  4.095568  0
C  C65  1  0.76442246  0.73205085  0.50222183  1  1.533056  0  0.235267  0.64138  0  4.093864  0
C  C66  1  0.30958348  0.50229799  0.18691971  1  -0.011183  0  -0.021071  -0.013256  0  4.021431  0
C  C67  1  0.68690733  0.50098995  0.80993114  1  -0.002096  0  -0.020978  -0.012562  0  4.021658  0
C  C68  1  0.34737695  0.56419287  0.15013130  1  -0.004264  0  -0.107457  -0.248979  0  4.015435  0
C  C69  1  0.42100088  0.56449058  0.07847292  1  0.454874  0  0.085302  0.267529  0  4.016174  0
C  C70  1  0.65027312  0.43790739  0.84797071  1  -0.052803  0  -0.107331  -0.248541  0  4.015077  0
C  C71  1  0.57867709  0.43559599  0.92167635  1  0.439045  0  0.085118  0.266656  0  4.015361  0
C  C72  1  0.65031912  0.56284312  0.84774156  1  -0.013393  0  -0.098836  -0.117678  0  4.031844  0
C  C73  1  0.57906235  0.56074701  0.92093007  1  -0.032097  0  -0.096851  -0.126467  0  3.987628  0
C  C74  1  0.34759122  0.43908046  0.15046344  1  -0.031708  0  -0.098745  -0.117491  0  4.032898  0
C  C75  1  0.42081706  0.43920942  0.07929306  1  -0.034334  0  -0.097298  -0.127099  0  3.98906  0
C  C76  1  0.46146820  0.50105109  0.03904434  1  -0.023606  0  -0.007797  -0.008896  0  3.890683  0
C  C77  1  0.53890752  0.49838418  0.96175324  1  -0.046455  0  -0.008088  -0.00842  0  3.889888  0
C  C78  1  0.00209166  0.80968001  0.50117037  1  0.074487  0  -0.0211  -0.012632  0  4.021013  0
C  C79  1  0.00119192  0.18661393  0.50250729  1  -0.024723  0  -0.021103  -0.013291  0  4.022594  0
C  C80  1  0.06375756  0.84771971  0.43802804  1  -0.074646  0  -0.107223  -0.248837  0  4.014921  0
C  C81  1  0.06394925  0.92147763  0.43562960  1  0.506296  0  0.085122  0.266451  0  4.016635  0
C  C82  1  0.93827982  0.14983194  0.56434537  1  -0.006938  0  -0.107159  -0.249023  0  4.016691  0
C  C83  1  0.93595567  0.07826853  0.56452988  1  0.454507  0  0.085144  0.267798  0  4.015608  0
C  C84  1  0.06280988  0.15026177  0.43919790  1  -0.006679  0  -0.098954  -0.117983  0  4.032573  0
C  C85  1  0.06058543  0.07916378  0.43922172  1  -0.010003  0  -0.096693  -0.126111  0  3.987701  0
C  C86  1  0.93899536  0.84757890  0.56294223  1  -0.085908  0  -0.09865  -0.117511  0  4.032378  0
C  C87  1  0.93915369  0.92080827  0.56076177  1  -0.044076  0  -0.097089  -0.127361  0  3.988437  0
C  C88  1  0.00086490  0.96160165  0.49838351  1  -0.002739  0  -0.008087  -0.007389  0  3.888662  0
C  C89  1  0.99835120  0.03889180  0.50104754  1  -0.011109  0  -0.008009  -0.009672  0  3.890508  0
C  C90  1  0.30947153  0.18640541  0.50189030  1  0.029087  0  -0.020792  -0.014567  0  4.023378  0
C  C91  1  0.68732651  0.80983250  0.50169628  1  0.010181  0  -0.02115  -0.013421  0  4.023091  0
C  C92  1  0.34714365  0.15047873  0.43855022  1  -0.007564  0  -0.107105  -0.248762  0  4.014903  0
C  C93  1  0.42093359  0.07901728  0.43600610  1  0.455454  0  0.084619  0.266391  0  4.017851  0
C  C94  1  0.65093032  0.84708147  0.56373385  1  -0.022094  0  -0.107058  -0.249057  0  4.015599  0
C  C95  1  0.57924897  0.92070601  0.56411317  1  0.462882  0  0.084332  0.265824  0  4.018526  0
C  C96  1  0.65035385  0.84832142  0.43854624  1  -0.020848  0  -0.097759  -0.116242  0  4.029253  0
C  C97  1  0.57903777  0.92143214  0.43892369  1  -0.011645  0  -0.096809  -0.126819  0  3.987621  0
C  C98  1  0.34789683  0.14938144  0.56356234  1  -0.056518  0  -0.098049  -0.116124  0  4.030462  0
C  C99  1  0.42131619  0.07843469  0.56103599  1  -0.030959  0  -0.096687  -0.126239  0  3.988535  0
C  C100  1  0.46170230  0.03886318  0.49855926  1  -0.043357  0  -0.007712  -0.009245  0  3.891822  0
C  C101  1  0.53917701  0.96155753  0.50085350  1  -0.010636  0  -0.007502  -0.008384  0  3.890909  0
C  C102  1  0.00119265  0.50149585  0.81011030  1  0.071712  0  -0.020495  -0.012972  0  4.023194  0
C  C103  1  0.00222548  0.50168221  0.18671679  1  0.010034  0  -0.021858  -0.014635  0  4.024115  0
C  C104  1  0.93831371  0.56360504  0.84726995  1  -0.06573  0  -0.107097  -0.249028  0  4.015012  0
C  C105  1  0.93600233  0.56408486  0.92084202  1  0.512403  0  0.084386  0.265895  0  4.018729  0
C  C106  1  0.06384964  0.43840987  0.15071313  1  -0.030335  0  -0.106481  -0.248012  0  4.015881  0
C  C107  1  0.06411454  0.43598243  0.07916328  1  0.503779  0  0.084399  0.265508  0  4.018212  0
C  C108  1  0.93919446  0.56343642  0.14964741  1  -0.009734  0  -0.098015  -0.116716  0  4.029096  0
C  C109  1  0.93930268  0.56102835  0.07860757  1  -0.017688  0  -0.096545  -0.126101  0  3.986907  0
C  C110  1  0.06284850  0.43842317  0.84858851  1  -0.060021  0  -0.098391  -0.117549  0  4.030495  0
C  C111  1  0.06068900  0.43890605  0.92162848  1  -0.057426  0  -0.096429  -0.125434  0  3.987074  0
C  C112  1  0.99848150  0.50086514  0.96170766  1  -0.035655  0  -0.007812  -0.009271  0  3.891601  0
C  C113  1  0.00095261  0.49857416  0.03900674  1  -0.003885  0  -0.007384  -0.008123  0  3.891349  0
C  C114  1  0.06383232  0.84988872  0.14822248  1  -0.009026  0  -0.082174  -0.125719  0  3.923925  0
C  C115  1  0.06453362  0.92406215  0.07553053  1  0.050301  0  -0.009176  0.04306  0  4.010114  0
C  C116  1  0.12824343  0.96376250  0.03652864  1  -0.044013  0  -0.020425  0.015909  0  3.932853  0
C  C117  1  0.93787315  0.84992885  0.14819500  1  -0.04607  0  -0.079765  -0.123006  0  3.915483  0
C  C118  1  0.93579400  0.92412681  0.07547243  1  0.046227  0  -0.00771  0.044459  0  4.005493  0
C  C119  1  0.87131147  0.96383715  0.03645021  1  -0.042766  0  -0.019766  0.013977  0  3.937862  0
C  C120  1  0.93808190  0.14747262  0.85066728  1  -0.004108  0  -0.082965  -0.126779  0  3.924556  0
C  C121  1  0.93589053  0.07476296  0.92485103  1  0.029013  0  -0.008449  0.043756  0  4.01147  0
C  C122  1  0.87149132  0.03577709  0.96449942  1  -0.098955  0  -0.021005  0.015869  0  3.93422  0
C  C123  1  0.06397750  0.14744895  0.85072533  1  0.039349  0  -0.080041  -0.123903  0  3.916376  0
C  C124  1  0.06458931  0.07470111  0.92492170  1  0.017203  0  -0.007247  0.045361  0  4.005835  0
C  C125  1  0.12840352  0.03571492  0.96459406  1  -0.086854  0  -0.020245  0.013709  0  3.939332  0
C  C126  1  0.00135496  0.81314379  0.18398366  1  0.013393  0  -0.012208  -0.017414  0  3.968223  0
C  C127  1  0.99996800  0.96234364  0.03765609  1  0.003722  0  0.007655  0.017598  0  3.906299  0
C  C128  1  0.00152391  0.18327690  0.81388745  1  0.016879  0  -0.011155  -0.015895  0  3.968566  0
C  C129  1  0.00004318  0.03684861  0.96315616  1  -0.034758  0  0.007722  0.017042  0  3.907927  0
C  C130  1  0.30976196  0.50071649  0.50262315  1  0.074728  0  -0.020419  -0.012305  0  4.017139  0
C  C131  1  0.68690035  0.50227035  0.50106300  1  -0.018487  0  -0.020526  -0.011941  0  4.017735  0
C  C132  1  0.34763054  0.43752005  0.56466475  1  -0.032687  0  -0.106549  -0.247727  0  4.01295  0
C  C133  1  0.42120676  0.43537640  0.56472308  1  0.437577  0  0.084465  0.26441  0  4.017587  0
C  C134  1  0.65025914  0.56433989  0.43780966  1  0.011993  0  -0.106456  -0.247876  0  4.012573  0
C  C135  1  0.57875485  0.56448674  0.43559202  1  0.453421  0  0.084701  0.265669  0  4.016158  0
C  C136  1  0.65014042  0.43881525  0.56313366  1  0.023409  0  -0.099014  -0.118167  0  4.032494  0
C  C137  1  0.57907616  0.43890017  0.56102699  1  -0.063724  0  -0.096848  -0.126841  0  3.988066  0
C  C138  1  0.34784281  0.56283439  0.43912370  1  -0.0613  0  -0.099065  -0.118121  0  4.031224  0
C  C139  1  0.42094153  0.56081306  0.43911759  1  -0.042426  0  -0.097212  -0.127305  0  3.987972  0
C  C140  1  0.46163976  0.49828756  0.50110817  1  0.034126  0  -0.007415  -0.007493  0  3.886515  0
C  C141  1  0.53896091  0.50091321  0.49848033  1  -0.001848  0  -0.007643  -0.008047  0  3.886023  0
Br  Br142  1  0.21302978  0.08672836  0.91412038  1  -0.040264  0  0.033591  -0.045671  0  1.457782  0
Br  Br143  1  0.21307650  0.91316359  0.08767832  1  -0.050915  0  0.02073  -0.066283  0  1.458562  0
Br  Br144  1  0.78615045  0.08693915  0.91384107  1  -0.061958  0  0.021062  -0.065863  0  1.459319  0
Br  Br145  1  0.78613914  0.91339039  0.08736778  1  -0.029799  0  0.033302  -0.046057  0  1.457104  0
O  O146  1  0.79469040  0.44094039  0.70245511  1  -1.18105  0  -0.359713  -0.621355  0  2.276237  0
O  O147  1  0.06189784  0.70201835  0.44135965  1  -1.184677  0  -0.360427  -0.622475  0  2.276609  0
O  O148  1  0.20157835  0.56226966  0.29440021  1  -1.182634  0  -0.360689  -0.622917  0  2.275721  0
O  O149  1  0.94185945  0.29384649  0.56277846  1  -1.186154  0  -0.360601  -0.622996  0  2.275825  0
O  O150  1  0.06070303  0.29214811  0.70468136  1  -1.180896  0  -0.350643  -0.609598  0  2.273049  0
O  O151  1  0.79480212  0.56224539  0.44108917  1  -1.18669  0  -0.358115  -0.62057  0  2.270909  0
O  O152  1  0.94244695  0.70404842  0.29280707  1  -1.182875  0  -0.350513  -0.608719  0  2.274845  0
O  O153  1  0.20190606  0.44061579  0.56270352  1  -1.187765  0  -0.358064  -0.620991  0  2.26958  0
O  O154  1  0.94153711  0.56074189  0.70215854  1  -1.182816  0  -0.360302  -0.620813  0  2.281909  0
O  O155  1  0.20123021  0.29437702  0.44247696  1  -1.178799  0  -0.360086  -0.621086  0  2.281592  0
O  O156  1  0.06183867  0.44208119  0.29479908  1  -1.182467  0  -0.359323  -0.620038  0  2.281134  0
O  O157  1  0.79554893  0.70179578  0.56114840  1  -1.179897  0  -0.359697  -0.620546  0  2.280813  0
O  O158  1  0.20018577  0.29271895  0.56242329  1  -1.175233  0  -0.357298  -0.622544  0  2.280425  0
O  O159  1  0.94454602  0.56197892  0.29324097  1  -1.181399  0  -0.357224  -0.622192  0  2.281488  0
O  O160  1  0.79494722  0.70185036  0.44283192  1  -1.176874  0  -0.357307  -0.621994  0  2.281697  0
O  O161  1  0.06037034  0.44238777  0.70231662  1  -1.180675  0  -0.356609  -0.621231  0  2.280756  0
O  O162  1  0.94291115  0.29162719  0.70422253  1  -1.178517  0  -0.349906  -0.611205  0  2.271127  0
O  O163  1  0.20120561  0.56052087  0.44406750  1  -1.183067  0  -0.356961  -0.622861  0  2.281556  0
O  O164  1  0.06125641  0.70354010  0.29228357  1  -1.183997  0  -0.349493  -0.610859  0  2.273506  0
O  O165  1  0.79418316  0.44358880  0.56097555  1  -1.192495  0  -0.357097  -0.622787  0  2.281005  0
O  O166  1  0.06062401  0.29414286  0.44436713  1  -1.190776  0  -0.356224  -0.619946  0  2.287682  0
O  O167  1  0.79459052  0.56025971  0.70108118  1  -1.17754  0  -0.356416  -0.620897  0  2.287585  0
O  O168  1  0.94405543  0.70070691  0.56068221  1  -1.185565  0  -0.356585  -0.620952  0  2.287199  0
O  O169  1  0.20090517  0.44394815  0.29454503  1  -1.179467  0  -0.356048  -0.620141  0  2.287365  0
O  O170  1  0.94812975  0.44830685  0.44825119  1  -1.247299  0  -0.695616  -1.068945  0  2.364032  0
O  O171  1  0.15530162  0.44773676  0.44881990  1  -1.253228  0  -0.695844  -1.069501  0  2.364922  0
O  O172  1  0.94871609  0.65589477  0.44729346  1  -1.248085  0  -0.694839  -1.068652  0  2.366158  0
O  O173  1  0.94811827  0.44673073  0.65642743  1  -1.223257  0  -0.694262  -1.067936  0  2.364063  0
O  O174  1  0.03841369  0.53754663  0.53855965  1  -1.197534  0  -0.791489  -1.147312  0  2.128647  0
O  O175  1  0.88547412  0.53802424  0.53808467  1  -1.196016  0  -0.791431  -1.146712  0  2.128025  0
O  O176  1  0.03832761  0.53886901  0.38489201  1  -1.19103  0  -0.790516  -1.149045  0  2.123396  0
O  O177  1  0.03787737  0.38443139  0.53936015  1  -1.195115  0  -0.790671  -1.149234  0  2.123639  0
O  O178  1  0.45307272  0.62865035  0.04723433  1  -1.1196  0  -0.348904  -0.443098  0  2.31906  0
O  O179  1  0.54791070  0.37011825  0.95424379  1  -1.125256  0  -0.348512  -0.442277  0  2.320596  0
O  O180  1  0.12760706  0.95405865  0.37012399  1  -1.120777  0  -0.348799  -0.442727  0  2.320548  0
O  O181  1  0.87091544  0.04708513  0.62863771  1  -1.134195  0  -0.348953  -0.442912  0  2.319527  0
O  O182  1  0.45296380  0.04857400  0.37064748  1  -1.118935  0  -0.347422  -0.441134  0  2.316036  0
O  O183  1  0.54856729  0.95254587  0.62808415  1  -1.117548  0  -0.347843  -0.44138  0  2.315616  0
O  O184  1  0.87088652  0.62808682  0.95264582  1  -1.158061  0  -0.34747  -0.440655  0  2.315928  0
O  O185  1  0.12792397  0.37066622  0.04867422  1  -1.155683  0  -0.347859  -0.441137  0  2.3161  0
O  O186  1  0.45340346  0.36980008  0.62895127  1  -1.111556  0  -0.348324  -0.440995  0  2.314752  0
O  O187  1  0.54791303  0.62872518  0.37001707  1  -1.122669  0  -0.348858  -0.442335  0  2.313326  0
