# generated using pymatgen
data_Ag3H8C12N3O7
_symmetry_space_group_name_H-M   'P 1'
_cell_length_a   8.10956172
_cell_length_b   10.42838594
_cell_length_c   10.69764796
_cell_angle_alpha   63.43549062
_cell_angle_beta   69.11334768
_cell_angle_gamma   81.49781828
_symmetry_Int_Tables_number   1
_chemical_formula_structural   Ag3H8C12N3O7
_chemical_formula_sum   'Ag6 H16 C24 N6 O14'
_cell_volume   755.94223913
_cell_formula_units_Z   2
loop_
 _symmetry_equiv_pos_site_id
 _symmetry_equiv_pos_as_xyz
  1  'x, y, z'
loop_
 _atom_site_type_symbol
 _atom_site_label
 _atom_site_symmetry_multiplicity
 _atom_site_fract_x
 _atom_site_fract_y
 _atom_site_fract_z
 _atom_site_occupancy
 _atom_site_hle17_bader_spin_density
 _atom_site_hle17_ddec_charge
 _atom_site_hle17_ddec_spin_density
 _atom_site_hle17_ddec_sum_bond_order
 _atom_site_hle17_magmom
 _atom_site_hse06_10hf_bader_spin_density
 _atom_site_hse06_10hf_ddec_charge
 _atom_site_hse06_10hf_ddec_spin_density
 _atom_site_hse06_10hf_ddec_sum_bond_order
 _atom_site_hse06_10hf_magmom
 _atom_site_hse06_bader_spin_density
 _atom_site_hse06_ddec_charge
 _atom_site_hse06_ddec_spin_density
 _atom_site_hse06_ddec_sum_bond_order
 _atom_site_hse06_magmom
 _atom_site_pbe_bader_spin_density
 _atom_site_pbe_cm5_charge
 _atom_site_pbe_ddec_charge
 _atom_site_pbe_ddec_spin_density
 _atom_site_pbe_ddec_sum_bond_order
 _atom_site_pbe_magmom
Ag  Ag0  1  0.63610092  0.61540210  0.49122089  1  0  0.48508  0  1.525894  0  0  0.342911  0  2.013967  0  0  0.378689  0  1.950451  0  0  0.422588  0.317387  0  2.058139  0
Ag  Ag1  1  0.36390407  0.38459150  0.50878068  1  0  0.485048  0  1.525862  0  0  0.342897  0  2.013922  0  0  0.378677  0  1.950408  0  0  0.422571  0.317374  0  2.05809  0
Ag  Ag2  1  0.01533942  0.36531361  0.48270368  1  0  0.483047  0  1.6048  0  0  0.364176  0  2.11415  0  0  0.404506  0  2.036826  0  0  0.377094  0.336848  0  2.166554  0
Ag  Ag3  1  0.98466302  0.63468537  0.51729711  1  0  0.483059  0  1.604815  0  0  0.36415  0  2.114206  0  0  0.404478  0  2.03688  0  0  0.377074  0.336824  0  2.166612  0
Ag  Ag4  1  0.24449292  0.11719859  0.50098363  1  0  0.543769  0  1.493097  0  0  0.423348  0  1.955181  0  0  0.453776  0  1.896352  0  0  0.437725  0.402626  0  1.996171  0
Ag  Ag5  1  0.75550420  0.88279926  0.49901631  1  0  0.543749  0  1.493076  0  0  0.423326  0  1.955184  0  0  0.453773  0  1.896316  0  0  0.437722  0.402602  0  1.996175  0
H  H6  1  0.66003038  0.35475630  0.76469113  1  0  0.094333  0  0.972731  0  0  0.101361  0  1.040918  0  0  0.10405  0  1.038137  0  0  0.114355  0.099359  0  1.043064  0
H  H7  1  0.33996537  0.64523832  0.23530970  1  0  0.094331  0  0.972758  0  0  0.101356  0  1.04095  0  0  0.104045  0  1.038166  0  0  0.114346  0.099353  0  1.043096  0
H  H8  1  0.51666022  0.25541748  0.04057861  1  0  0.107022  0  0.9781  0  0  0.115643  0  1.041752  0  0  0.118471  0  1.041261  0  0  0.10637  0.113605  0  1.04234  0
H  H9  1  0.48333688  0.74457928  0.95942089  1  0  0.107004  0  0.978138  0  0  0.115631  0  1.041783  0  0  0.118457  0  1.041294  0  0  0.106381  0.113595  0  1.042367  0
H  H10  1  0.13061760  0.58629294  0.97403514  1  0  0.108765  0  0.967794  0  0  0.116465  0  1.033277  0  0  0.119012  0  1.033749  0  0  0.106618  0.11469  0  1.033119  0
H  H11  1  0.86938085  0.41370491  0.02596443  1  0  0.108767  0  0.967757  0  0  0.116458  0  1.033255  0  0  0.119006  0  1.033725  0  0  0.106613  0.114682  0  1.033098  0
H  H12  1  0.28812329  0.67696149  0.70267755  1  0  0.081165  0  0.955165  0  0  0.092008  0  1.016029  0  0  0.092811  0  1.016148  0  0  0.119059  0.091153  0  1.016367  0
H  H13  1  0.71187914  0.32303850  0.29731905  1  0  0.081165  0  0.955166  0  0  0.091996  0  1.016029  0  0  0.092791  0  1.016157  0  0  0.11906  0.091142  0  1.016366  0
H  H14  1  0.38233909  0.01576866  0.76608526  1  0  0.092731  0  0.9577  0  0  0.104182  0  1.0158  0  0  0.106786  0  1.013315  0  0  0.117714  0.102286  0  1.017698  0
H  H15  1  0.61765944  0.98423560  0.23391048  1  0  0.092729  0  0.957761  0  0  0.10419  0  1.015837  0  0  0.106793  0  1.013356  0  0  0.117723  0.102295  0  1.017733  0
H  H16  1  0.27093150  0.87278794  0.04361742  1  0  0.114654  0  0.938381  0  0  0.129549  0  0.988685  0  0  0.13233  0  0.987939  0  0  0.115449  0.12756  0  0.989355  0
H  H17  1  0.72906970  0.12721744  0.95637896  1  0  0.114647  0  0.938349  0  0  0.129541  0  0.988665  0  0  0.132322  0  0.98792  0  0  0.11545  0.127554  0  0.989334  0
H  H18  1  0.79602724  0.78660079  0.00259323  1  0  0.108294  0  0.981897  0  0  0.118015  0  1.042436  0  0  0.12056  0  1.042744  0  0  0.105849  0.116241  0  1.042305  0
H  H19  1  0.20397390  0.21339826  0.99741255  1  0  0.108329  0  0.981816  0  0  0.118039  0  1.042371  0  0  0.120584  0  1.042679  0  0  0.105835  0.116262  0  1.042239  0
H  H20  1  0.92333740  0.93319140  0.72753408  1  0  0.09581  0  0.958672  0  0  0.103824  0  1.02384  0  0  0.105986  0  1.022197  0  0  0.116877  0.102136  0  1.025367  0
H  H21  1  0.07665719  0.06681188  0.27246879  1  0  0.095775  0  0.958637  0  0  0.103828  0  1.023762  0  0  0.105986  0  1.022122  0  0  0.11689  0.102139  0  1.025291  0
C  C22  1  0.54226503  0.40290221  0.81482394  1  0  0.125501  0  3.661392  0  0  0.09579  0  3.904497  0  0  0.102286  0  3.923455  0  0  0.045236  0.091521  0  3.891529  0
C  C23  1  0.45773339  0.59709453  0.18517427  1  0  0.125464  0  3.661401  0  0  0.095792  0  3.904471  0  0  0.102289  0  3.923431  0  0  0.045231  0.091525  0  3.891498  0
C  C24  1  0.46255776  0.34765407  0.96721213  1  0  -0.125781  0  3.718019  0  0  -0.147862  0  3.964589  0  0  -0.152807  0  3.9844  0  0  -0.082297  -0.144828  0  3.951437  0
C  C25  1  0.53744066  0.65234268  0.03278609  1  0  -0.125736  0  3.718052  0  0  -0.147856  0  3.964626  0  0  -0.152802  0  3.984437  0  0  -0.082323  -0.144823  0  3.951475  0
C  C26  1  0.02633938  0.81548197  0.04346992  1  0  -0.001502  0  3.721912  0  0  0.017352  0  3.957101  0  0  0.015168  0  3.975493  0  0  0.006075  0.018642  0  3.944967  0
C  C27  1  0.97366315  0.18452242  0.95653122  1  0  -0.001512  0  3.722071  0  0  0.017424  0  3.957214  0  0  0.015242  0  3.975606  0  0  0.006091  0.018712  0  3.945083  0
C  C28  1  0.24727311  0.53232031  0.93175267  1  0  -0.108716  0  3.679239  0  0  -0.133075  0  3.930716  0  0  -0.137682  0  3.949978  0  0  -0.075088  -0.130438  0  3.918191  0
C  C29  1  0.75272533  0.46767753  0.06824599  1  0  -0.10871  0  3.679142  0  0  -0.133089  0  3.930626  0  0  -0.137695  0  3.949885  0  0  -0.075093  -0.130451  0  3.918102  0
C  C30  1  0.33473846  0.58283753  0.78018477  1  0  0.146172  0  3.649428  0  0  0.11381  0  3.895943  0  0  0.121496  0  3.914864  0  0  0.051478  0.108819  0  3.883301  0
C  C31  1  0.66525734  0.41716032  0.21981553  1  0  0.146126  0  3.649432  0  0  0.113797  0  3.89595  0  0  0.121489  0  3.914871  0  0  0.051446  0.108806  0  3.883305  0
C  C32  1  0.95234010  0.73350670  0.20901350  1  0  0.633399  0  3.900537  0  0  0.575093  0  4.190045  0  0  0.611994  0  4.184716  0  0  0.20889  0.549887  0  4.193092  0
C  C33  1  0.04766634  0.26649448  0.79098801  1  0  0.633379  0  3.900533  0  0  0.574977  0  4.190174  0  0  0.611876  0  4.184847  0  0  0.208867  0.549773  0  4.19322  0
C  C34  1  0.25386780  0.96183422  0.82360102  1  0  0.120813  0  3.675913  0  0  0.090852  0  3.922404  0  0  0.096828  0  3.941348  0  0  0.046554  0.086896  0  3.909628  0
C  C35  1  0.74612813  0.03817118  0.17639866  1  0  0.120732  0  3.675924  0  0  0.090813  0  3.922396  0  0  0.096787  0  3.941343  0  0  0.046526  0.086856  0  3.909622  0
C  C36  1  0.19273613  0.88124692  0.97617940  1  0  -0.121697  0  3.714817  0  0  -0.144022  0  3.962589  0  0  -0.148691  0  3.983329  0  0  -0.076883  -0.140933  0  3.948716  0
C  C37  1  0.80726507  0.11875741  0.02381932  1  0  -0.121648  0  3.714816  0  0  -0.144019  0  3.962597  0  0  -0.148688  0  3.983338  0  0  -0.076879  -0.14093  0  3.948728  0
C  C38  1  0.31360577  0.41339737  0.02829088  1  0  -0.006699  0  3.732041  0  0  0.012524  0  3.964579  0  0  0.010687  0  3.983171  0  0  0.0044  0.013787  0  3.952102  0
C  C39  1  0.68639132  0.58659830  0.97170818  1  0  -0.00675  0  3.732125  0  0  0.01251  0  3.964632  0  0  0.010676  0  3.983218  0  0  0.004413  0.013771  0  3.952157  0
C  C40  1  0.92743649  0.83387983  0.95325408  1  0  -0.1225  0  3.708353  0  0  -0.143901  0  3.95341  0  0  -0.148647  0  3.973789  0  0  -0.080696  -0.140887  0  3.939964  0
C  C41  1  0.07255939  0.16612131  0.04674939  1  0  -0.122581  0  3.708246  0  0  -0.144003  0  3.953324  0  0  -0.14875  0  3.973702  0  0  -0.080718  -0.140983  0  3.939875  0
C  C42  1  0.99688732  0.91556489  0.80138500  1  0  0.116925  0  3.65917  0  0  0.08764  0  3.904675  0  0  0.093317  0  3.924359  0  0  0.043855  0.083746  0  3.891674  0
C  C43  1  0.00310459  0.08443623  0.19861863  1  0  0.116984  0  3.659079  0  0  0.087692  0  3.904594  0  0  0.093371  0  3.924276  0  0  0.043877  0.083796  0  3.891595  0
C  C44  1  0.23415051  0.35656510  0.19424012  1  0  0.619509  0  3.916959  0  0  0.567359  0  4.200962  0  0  0.602473  0  4.19796  0  0  0.204682  0.543683  0  4.201813  0
C  C45  1  0.76584926  0.64343277  0.80576002  1  0  0.619557  0  3.916988  0  0  0.567399  0  4.200984  0  0  0.602512  0  4.197984  0  0  0.204686  0.543723  0  4.201837  0
N  N46  1  0.48081949  0.52067386  0.72202417  1  0  -0.283935  0  3.34092  0  0  -0.186666  0  3.607583  0  0  -0.209202  0  3.627547  0  0  -0.340414  -0.1714  0  3.593649  0
N  N47  1  0.51917762  0.47932292  0.27797625  1  0  -0.283832  0  3.340998  0  0  -0.186609  0  3.607675  0  0  -0.209145  0  3.627634  0  0  -0.340352  -0.171343  0  3.593741  0
N  N48  1  0.15748109  0.97972319  0.73723803  1  0  -0.277634  0  3.313805  0  0  -0.189479  0  3.584715  0  0  -0.209928  0  3.60459  0  0  -0.336724  -0.175536  0  3.571236  0
N  N49  1  0.84251611  0.02027899  0.26276275  1  0  -0.277613  0  3.31386  0  0  -0.189509  0  3.584811  0  0  -0.209956  0  3.604686  0  0  -0.336758  -0.175564  0  3.571335  0
N  N50  1  0.70509815  0.16816134  0.54799565  1  0  0.693894  0  4.120664  0  0  0.73839  0  4.382924  0  0  0.767571  0  4.390981  0  0  0.086984  0.718688  0  4.376879  0
N  N51  1  0.29490431  0.83183871  0.45200466  1  0  0.693851  0  4.120706  0  0  0.738426  0  4.382895  0  0  0.767608  0  4.390949  0  0  0.087011  0.718727  0  4.376851  0
O  O52  1  0.79126071  0.69465087  0.26171927  1  0  -0.568909  0  2.116977  0  0  -0.488765  0  2.387343  0  0  -0.521493  0  2.377954  0  0  -0.317784  -0.466322  0  2.393127  0
O  O53  1  0.20874435  0.30534602  0.73828455  1  0  -0.568908  0  2.116937  0  0  -0.488721  0  2.387321  0  0  -0.521446  0  2.377934  0  0  -0.317786  -0.466278  0  2.393102  0
O  O54  1  0.05762416  0.71555632  0.27917602  1  0  -0.586137  0  2.16941  0  0  -0.508306  0  2.443156  0  0  -0.54262  0  2.433039  0  0  -0.310703  -0.48464  0  2.449296  0
O  O55  1  0.94238365  0.28444808  0.72082367  1  0  -0.586071  0  2.169385  0  0  -0.50822  0  2.443169  0  0  -0.542533  0  2.433055  0  0  -0.310659  -0.484553  0  2.449307  0
O  O56  1  0.10571818  0.42502880  0.24514379  1  0  -0.564131  0  2.079094  0  0  -0.488178  0  2.339344  0  0  -0.521739  0  2.331739  0  0  -0.314605  -0.465116  0  2.343742  0
O  O57  1  0.89428427  0.57497124  0.75485559  1  0  -0.564152  0  2.079064  0  0  -0.488191  0  2.33932  0  0  -0.521753  0  2.331715  0  0  -0.31461  -0.465134  0  2.343732  0
O  O58  1  0.30801970  0.24569872  0.26648294  1  0  -0.592929  0  2.129528  0  0  -0.516261  0  2.396719  0  0  -0.547888  0  2.386858  0  0  -0.322897  -0.49428  0  2.402683  0
O  O59  1  0.69198140  0.75429916  0.73351684  1  0  -0.59289  0  2.129518  0  0  -0.516221  0  2.396707  0  0  -0.547851  0  2.386848  0  0  -0.32287  -0.494239  0  2.402671  0
O  O60  1  0.67733212  0.28557162  0.56142099  1  0  -0.474567  0  1.817201  0  0  -0.450789  0  2.062818  0  0  -0.471236  0  2.05209  0  0  -0.199611  -0.43637  0  2.070214  0
O  O61  1  0.32267034  0.71442843  0.43857931  1  0  -0.474672  0  1.817291  0  0  -0.450804  0  2.062783  0  0  -0.471251  0  2.052056  0  0  -0.199618  -0.436382  0  2.070173  0
O  O62  1  0.85757952  0.11440783  0.52983779  1  0  -0.459028  0  1.807372  0  0  -0.448088  0  2.046849  0  0  -0.464976  0  2.036449  0  0  -0.186941  -0.435994  0  2.054582  0
O  O63  1  0.14242294  0.88559222  0.47016251  1  0  -0.458987  0  1.807347  0  0  -0.448105  0  2.046836  0  0  -0.464993  0  2.036435  0  0  -0.186958  -0.436012  0  2.054569  0
O  O64  1  0.57972807  0.10626784  0.54987967  1  0  -0.476716  0  1.820466  0  0  -0.464887  0  2.067413  0  0  -0.481883  0  2.054834  0  0  -0.193196  -0.45281  0  2.075793  0
O  O65  1  0.42027437  0.89373113  0.45012112  1  0  -0.476641  0  1.820435  0  0  -0.464906  0  2.067433  0  0  -0.481903  0  2.054852  0  0  -0.1932  -0.452827  0  2.075806  0
