# generated using pymatgen
data_CdH14C18S2(N4O)2
_symmetry_space_group_name_H-M   'P 1'
_cell_length_a   7.65407572
_cell_length_b   9.90949568
_cell_length_c   13.88204205
_cell_angle_alpha   89.99960573
_cell_angle_beta   106.07225979
_cell_angle_gamma   90.00067347
_symmetry_Int_Tables_number   1
_chemical_formula_structural   CdH14C18S2(N4O)2
_chemical_formula_sum   'Cd2 H28 C36 S4 N16 O4'
_cell_volume   1011.77016722
_cell_formula_units_Z   2
loop_
 _symmetry_equiv_pos_site_id
 _symmetry_equiv_pos_as_xyz
  1  'x, y, z'
loop_
 _atom_site_type_symbol
 _atom_site_label
 _atom_site_symmetry_multiplicity
 _atom_site_fract_x
 _atom_site_fract_y
 _atom_site_fract_z
 _atom_site_occupancy
 _atom_site_hle17_bader_spin_density
 _atom_site_hle17_ddec_charge
 _atom_site_hle17_ddec_spin_density
 _atom_site_hle17_ddec_sum_bond_order
 _atom_site_hle17_magmom
 _atom_site_hse06_10hf_bader_spin_density
 _atom_site_hse06_10hf_ddec_charge
 _atom_site_hse06_10hf_ddec_spin_density
 _atom_site_hse06_10hf_ddec_sum_bond_order
 _atom_site_hse06_10hf_magmom
 _atom_site_hse06_bader_spin_density
 _atom_site_hse06_ddec_charge
 _atom_site_hse06_ddec_spin_density
 _atom_site_hse06_ddec_sum_bond_order
 _atom_site_hse06_magmom
 _atom_site_pbe_bader_spin_density
 _atom_site_pbe_cm5_charge
 _atom_site_pbe_ddec_charge
 _atom_site_pbe_ddec_spin_density
 _atom_site_pbe_ddec_sum_bond_order
 _atom_site_pbe_magmom
Cd  Cd0  1  0.00000258  0.49999447  0.99999927  1  0  0.944331  0  1.990766  0  0  0.761477  0  2.454775  0  0  0.807181  0  2.418189  0  0  0.718275  0.72873  0  2.481505  0
Cd  Cd1  1  0.50000183  0.00000027  0.00000040  1  0  0.944321  0  1.990816  0  0  0.761472  0  2.45481  0  0  0.807176  0  2.418224  0  0  0.71827  0.728723  0  2.481544  0
H  H2  1  0.76195824  0.58437475  0.33071415  1  0  0.12032  0  0.974403  0  0  0.119659  0  1.051708  0  0  0.12471  0  1.048319  0  0  0.107207  0.116005  0  1.054348  0
H  H3  1  0.73802884  0.08437282  0.66927658  1  0  0.120385  0  0.974292  0  0  0.119668  0  1.051694  0  0  0.124713  0  1.048295  0  0  0.107237  0.116018  0  1.054334  0
H  H4  1  0.23803382  0.41563057  0.66928424  1  0  0.120379  0  0.974337  0  0  0.119708  0  1.051659  0  0  0.124761  0  1.048265  0  0  0.107235  0.116055  0  1.054303  0
H  H5  1  0.26197948  0.91562241  0.33072330  1  0  0.120395  0  0.974311  0  0  0.119619  0  1.051815  0  0  0.124669  0  1.048417  0  0  0.107196  0.115965  0  1.054462  0
H  H6  1  0.82108610  0.63458926  0.16543644  1  0  0.084824  0  0.943999  0  0  0.09466  0  1.003422  0  0  0.096161  0  1.002626  0  0  0.117422  0.093363  0  1.004274  0
H  H7  1  0.67890294  0.13458925  0.83455287  1  0  0.084817  0  0.944094  0  0  0.094653  0  1.003516  0  0  0.096161  0  1.00271  0  0  0.117407  0.093355  0  1.00437  0
H  H8  1  0.17890167  0.36541607  0.83455777  1  0  0.084739  0  0.944098  0  0  0.094569  0  1.003528  0  0  0.09609  0  1.002711  0  0  0.117398  0.093272  0  1.004381  0
H  H9  1  0.32110670  0.86541304  0.16544646  1  0  0.084733  0  0.944146  0  0  0.094573  0  1.003552  0  0  0.096082  0  1.002746  0  0  0.117379  0.093276  0  1.004404  0
H  H10  1  0.01348063  0.24880619  0.14330110  1  0  0.088917  0  0.960098  0  0  0.093866  0  1.028835  0  0  0.096139  0  1.027703  0  0  0.110437  0.09214  0  1.02983  0
H  H11  1  0.48652208  0.74880419  0.85670291  1  0  0.088919  0  0.96003  0  0  0.093824  0  1.028833  0  0  0.096087  0  1.027727  0  0  0.110399  0.092134  0  1.02979  0
H  H12  1  0.98652099  0.75119913  0.85669931  1  0  0.088893  0  0.960102  0  0  0.093861  0  1.028834  0  0  0.096141  0  1.027687  0  0  0.110422  0.092135  0  1.029827  0
H  H13  1  0.51346328  0.25120618  0.14329601  1  0  0.088856  0  0.960028  0  0  0.093729  0  1.02886  0  0  0.096015  0  1.027715  0  0  0.110382  0.092005  0  1.029848  0
H  H14  1  0.96481165  0.18085979  0.30802896  1  0  0.114199  0  0.955953  0  0  0.124301  0  1.01702  0  0  0.127357  0  1.016319  0  0  0.110371  0.122135  0  1.017674  0
H  H15  1  0.53519244  0.68085017  0.69197587  1  0  0.11414  0  0.955957  0  0  0.124253  0  1.017034  0  0  0.127308  0  1.016332  0  0  0.110336  0.122088  0  1.017683  0
H  H16  1  0.03519129  0.81914957  0.69197091  1  0  0.114111  0  0.955974  0  0  0.12421  0  1.017068  0  0  0.127263  0  1.016369  0  0  0.110303  0.122044  0  1.017723  0
H  H17  1  0.46480120  0.31915314  0.30802634  1  0  0.114097  0  0.955988  0  0  0.124232  0  1.017037  0  0  0.127286  0  1.016337  0  0  0.110293  0.122059  0  1.017698  0
H  H18  1  0.55548204  0.45476445  0.61552860  1  0  0.154002  0  0.941856  0  0  0.166566  0  1.012764  0  0  0.169355  0  1.010094  0  0  0.106142  0.164418  0  1.015094  0
H  H19  1  0.94452148  0.95476351  0.38447124  1  0  0.153987  0  0.941799  0  0  0.166581  0  1.01268  0  0  0.169384  0  1.009992  0  0  0.106163  0.164435  0  1.015011  0
H  H20  1  0.44451954  0.54523281  0.38447108  1  0  0.154005  0  0.941869  0  0  0.166595  0  1.012727  0  0  0.169403  0  1.010019  0  0  0.106176  0.164449  0  1.015056  0
H  H21  1  0.05548154  0.04523475  0.61553008  1  0  0.153994  0  0.941824  0  0  0.166562  0  1.012724  0  0  0.169356  0  1.010032  0  0  0.106145  0.164414  0  1.015054  0
H  H22  1  0.76957999  0.53382168  0.66624895  1  0  0.129883  0  0.969927  0  0  0.144543  0  1.040489  0  0  0.145152  0  1.042547  0  0  0.095513  0.144104  0  1.039066  0
H  H23  1  0.73042709  0.03382185  0.33374978  1  0  0.129899  0  0.969909  0  0  0.144545  0  1.040483  0  0  0.145159  0  1.042536  0  0  0.095508  0.144108  0  1.039059  0
H  H24  1  0.23042163  0.46617254  0.33375146  1  0  0.129845  0  0.969962  0  0  0.144517  0  1.04052  0  0  0.145133  0  1.042561  0  0  0.095501  0.144079  0  1.039094  0
H  H25  1  0.26957584  0.96617742  0.66625009  1  0  0.129876  0  0.96993  0  0  0.144524  0  1.040505  0  0  0.145137  0  1.042553  0  0  0.095496  0.144085  0  1.039081  0
H  H26  1  0.72412910  0.37250931  0.71223702  1  0  0.141072  0  0.946142  0  0  0.159758  0  1.005553  0  0  0.161161  0  1.005639  0  0  0.099058  0.158672  0  1.005584  0
H  H27  1  0.77587194  0.87250976  0.28776288  1  0  0.141081  0  0.946125  0  0  0.159766  0  1.005542  0  0  0.161166  0  1.005631  0  0  0.099064  0.158681  0  1.005569  0
H  H28  1  0.27586984  0.62748592  0.28776375  1  0  0.141133  0  0.946086  0  0  0.159804  0  1.005512  0  0  0.161205  0  1.005603  0  0  0.099072  0.158718  0  1.005542  0
H  H29  1  0.22413248  0.12748951  0.71223935  1  0  0.141063  0  0.946132  0  0  0.159762  0  1.005526  0  0  0.161163  0  1.005615  0  0  0.099073  0.158676  0  1.005555  0
C  C30  1  0.81925514  0.50732183  0.29209519  1  0  -0.134785  0  3.669922  0  0  -0.156683  0  3.921895  0  0  -0.162437  0  3.939637  0  0  -0.079885  -0.153004  0  3.910055  0
C  C31  1  0.68073510  0.00731901  0.70789850  1  0  -0.13473  0  3.669929  0  0  -0.156608  0  3.921864  0  0  -0.162368  0  3.93965  0  0  -0.079905  -0.152918  0  3.909981  0
C  C32  1  0.18073548  0.49268349  0.70790157  1  0  -0.134808  0  3.669923  0  0  -0.156715  0  3.921857  0  0  -0.162467  0  3.9396  0  0  -0.079916  -0.153021  0  3.909978  0
C  C33  1  0.31927068  0.99267925  0.29210392  1  0  -0.134623  0  3.669975  0  0  -0.156502  0  3.92186  0  0  -0.16227  0  3.93965  0  0  -0.079839  -0.152807  0  3.909978  0
C  C34  1  0.85182108  0.53552365  0.20028502  1  0  0.14175  0  3.68782  0  0  0.114395  0  3.935128  0  0  0.121661  0  3.953081  0  0  0.054071  0.109829  0  3.922611  0
C  C35  1  0.64817231  0.03552066  0.79970968  1  0  0.141708  0  3.688037  0  0  0.114344  0  3.935367  0  0  0.121605  0  3.953314  0  0  0.054078  0.10978  0  3.922855  0
C  C36  1  0.14816953  0.46447966  0.79971174  1  0  0.141895  0  3.68769  0  0  0.114502  0  3.935045  0  0  0.121755  0  3.952989  0  0  0.054096  0.109937  0  3.922534  0
C  C37  1  0.35183475  0.96447961  0.20029146  1  0  0.141767  0  3.687894  0  0  0.114407  0  3.935216  0  0  0.121666  0  3.953165  0  0  0.054082  0.109843  0  3.922705  0
C  C38  1  0.96017558  0.31984421  0.18823516  1  0  0.126377  0  3.694756  0  0  0.098391  0  3.94495  0  0  0.104653  0  3.963127  0  0  0.044604  0.094295  0  3.932718  0
C  C39  1  0.53982478  0.81983853  0.81176562  1  0  0.126488  0  3.694525  0  0  0.098544  0  3.944707  0  0  0.104806  0  3.96288  0  0  0.044685  0.094418  0  3.932463  0
C  C40  1  0.03981779  0.68016314  0.81176269  1  0  0.126556  0  3.694634  0  0  0.098536  0  3.94482  0  0  0.104802  0  3.962994  0  0  0.044709  0.094441  0  3.93259  0
C  C41  1  0.46017144  0.18016477  0.18823478  1  0  0.126672  0  3.694492  0  0  0.098744  0  3.944678  0  0  0.104999  0  3.962847  0  0  0.044734  0.094651  0  3.932446  0
C  C42  1  0.93259855  0.28262076  0.27923779  1  0  -0.141937  0  3.695486  0  0  -0.163304  0  3.945228  0  0  -0.169387  0  3.965595  0  0  -0.080893  -0.159339  0  3.931543  0
C  C43  1  0.56740139  0.78261318  0.72076455  1  0  -0.141855  0  3.695603  0  0  -0.163272  0  3.945328  0  0  -0.169352  0  3.965696  0  0  -0.080853  -0.159308  0  3.931651  0
C  C44  1  0.06739487  0.71738658  0.72076079  1  0  -0.141809  0  3.695477  0  0  -0.163209  0  3.9452  0  0  -0.169292  0  3.965569  0  0  -0.080828  -0.159245  0  3.931515  0
C  C45  1  0.43259492  0.21738811  0.27923730  1  0  -0.141827  0  3.695551  0  0  -0.163274  0  3.945216  0  0  -0.169357  0  3.965588  0  0  -0.080806  -0.159302  0  3.931531  0
C  C46  1  0.86343258  0.37854737  0.33362022  1  0  0.0349  0  3.805151  0  0  0.046955  0  4.043714  0  0  0.049185  0  4.063293  0  0  0.009018  0.045474  0  4.030431  0
C  C47  1  0.63656310  0.87853993  0.66637892  1  0  0.034707  0  3.805308  0  0  0.046872  0  4.043806  0  0  0.049093  0  4.063394  0  0  0.009015  0.045391  0  4.030527  0
C  C48  1  0.13656079  0.62145896  0.66637763  1  0  0.034723  0  3.805344  0  0  0.046902  0  4.043765  0  0  0.049131  0  4.063343  0  0  0.009013  0.045421  0  4.030485  0
C  C49  1  0.36343996  0.12146035  0.33362313  1  0  0.034586  0  3.805469  0  0  0.046838  0  4.043843  0  0  0.049067  0  4.063414  0  0  0.008982  0.045358  0  4.030563  0
C  C50  1  0.83987513  0.34311715  0.43067184  1  0  0.323792  0  3.731394  0  0  0.288016  0  4.018589  0  0  0.303271  0  4.026185  0  0  0.213516  0.277878  0  4.013262  0
C  C51  1  0.66012410  0.84311084  0.56932723  1  0  0.323968  0  3.731378  0  0  0.288086  0  4.018662  0  0  0.30334  0  4.026264  0  0  0.213571  0.277949  0  4.013339  0
C  C52  1  0.16012776  0.65688616  0.56932730  1  0  0.323864  0  3.731444  0  0  0.288013  0  4.018687  0  0  0.303268  0  4.026284  0  0  0.213514  0.277876  0  4.013362  0
C  C53  1  0.33987900  0.15689045  0.43067554  1  0  0.323979  0  3.731328  0  0  0.288053  0  4.018614  0  0  0.303307  0  4.026209  0  0  0.213594  0.277917  0  4.013287  0
C  C54  1  0.77075323  0.36881476  0.56943755  1  0  0.472203  0  3.662003  0  0  0.445634  0  3.951978  0  0  0.463828  0  3.959872  0  0  0.230361  0.433546  0  3.946237  0
C  C55  1  0.72924639  0.86881343  0.43056217  1  0  0.472281  0  3.661796  0  0  0.44567  0  3.951821  0  0  0.46386  0  3.95972  0  0  0.230358  0.433582  0  3.946081  0
C  C56  1  0.22924834  0.63118148  0.43056213  1  0  0.472201  0  3.662063  0  0  0.445723  0  3.951904  0  0  0.463916  0  3.959801  0  0  0.230375  0.433637  0  3.946161  0
C  C57  1  0.27075807  0.13118584  0.56944079  1  0  0.472244  0  3.661927  0  0  0.4458  0  3.951688  0  0  0.463998  0  3.959576  0  0  0.230461  0.433713  0  3.945947  0
C  C58  1  0.70184277  0.43636747  0.64570415  1  0  -0.421216  0  3.718131  0  0  -0.5049  0  3.960088  0  0  -0.50878  0  3.965196  0  0  -0.239733  -0.50203  0  3.95651  0
C  C59  1  0.79815918  0.93636749  0.35429629  1  0  -0.421231  0  3.718011  0  0  -0.504923  0  3.960002  0  0  -0.508813  0  3.965097  0  0  -0.239745  -0.502052  0  3.956426  0
C  C60  1  0.29815749  0.56362676  0.35429607  1  0  -0.421255  0  3.718126  0  0  -0.504969  0  3.960052  0  0  -0.508858  0  3.965153  0  0  -0.239776  -0.502102  0  3.956475  0
C  C61  1  0.20184388  0.06363178  0.64570576  1  0  -0.421183  0  3.718184  0  0  -0.504905  0  3.960089  0  0  -0.508778  0  3.965198  0  0  -0.239741  -0.502031  0  3.95651  0
C  C62  1  0.90329686  0.82671195  0.05438982  1  0  0.309441  0  4.011063  0  0  0.285628  0  4.323518  0  0  0.30825  0  4.336183  0  0  0.146013  0.270091  0  4.314611  0
C  C63  1  0.59670220  0.32672225  0.94561003  1  0  0.309329  0  4.011179  0  0  0.285506  0  4.323642  0  0  0.308128  0  4.336311  0  0  0.145926  0.269969  0  4.314737  0
C  C64  1  0.09670327  0.17326411  0.94560823  1  0  0.309161  0  4.010876  0  0  0.285348  0  4.323349  0  0  0.30797  0  4.336019  0  0  0.145825  0.26981  0  4.314442  0
C  C65  1  0.40329666  0.67326693  0.05438929  1  0  0.309241  0  4.011143  0  0  0.285424  0  4.323612  0  0  0.308048  0  4.336281  0  0  0.145879  0.269885  0  4.314702  0
S  S66  1  0.86075366  0.96620499  0.10580822  1  0  -0.339781  0  2.140931  0  0  -0.306099  0  2.468297  0  0  -0.324481  0  2.463767  0  0  -0.147119  -0.292641  0  2.471964  0
S  S67  1  0.63924738  0.46621616  0.89419267  1  0  -0.339716  0  2.141081  0  0  -0.306046  0  2.468493  0  0  -0.32443  0  2.463969  0  0  -0.147078  -0.292589  0  2.472164  0
S  S68  1  0.13925093  0.03377713  0.89419692  1  0  -0.339604  0  2.141169  0  0  -0.305944  0  2.468597  0  0  -0.324327  0  2.464074  0  0  -0.147038  -0.292486  0  2.472261  0
S  S69  1  0.36075292  0.53378210  0.10580828  1  0  -0.339618  0  2.14123  0  0  -0.305951  0  2.468662  0  0  -0.324336  0  2.46414  0  0  -0.147048  -0.292493  0  2.472324  0
N  N70  1  0.92331583  0.44492727  0.14997937  1  0  -0.316388  0  3.253713  0  0  -0.239157  0  3.510144  0  0  -0.258081  0  3.530366  0  0  -0.322072  -0.226087  0  3.495953  0
N  N71  1  0.57668479  0.94492460  0.85001941  1  0  -0.316437  0  3.253583  0  0  -0.239217  0  3.510039  0  0  -0.258133  0  3.530249  0  0  -0.32212  -0.226151  0  3.495861  0
N  N72  1  0.07667759  0.55507704  0.85001921  1  0  -0.316544  0  3.253473  0  0  -0.239299  0  3.509971  0  0  -0.258222  0  3.53019  0  0  -0.32214  -0.22623  0  3.495781  0
N  N73  1  0.42331818  0.05507971  0.14998119  1  0  -0.316557  0  3.253563  0  0  -0.239355  0  3.510063  0  0  -0.258275  0  3.530283  0  0  -0.322164  -0.226286  0  3.495876  0
N  N74  1  0.87833279  0.22922633  0.47956612  1  0  -0.252127  0  2.92358  0  0  -0.237212  0  3.217912  0  0  -0.244518  0  3.23109  0  0  -0.218529  -0.232316  0  3.209412  0
N  N75  1  0.62166489  0.72922316  0.52043328  1  0  -0.252157  0  2.923634  0  0  -0.237219  0  3.218011  0  0  -0.244524  0  3.231193  0  0  -0.218526  -0.232323  0  3.209511  0
N  N76  1  0.12167133  0.77077495  0.52043102  1  0  -0.252108  0  2.923665  0  0  -0.237187  0  3.21804  0  0  -0.244494  0  3.23122  0  0  -0.218499  -0.232292  0  3.209542  0
N  N77  1  0.37833685  0.27077812  0.47956931  1  0  -0.25206  0  2.923627  0  0  -0.237136  0  3.218031  0  0  -0.244441  0  3.23121  0  0  -0.218533  -0.23224  0  3.20953  0
N  N78  1  0.83416451  0.24616299  0.56955353  1  0  -0.299915  0  2.902602  0  0  -0.279459  0  3.187415  0  0  -0.291621  0  3.200406  0  0  -0.225281  -0.271224  0  3.178797  0
N  N79  1  0.66583205  0.74616108  0.43044564  1  0  -0.299966  0  2.902491  0  0  -0.279504  0  3.187343  0  0  -0.291658  0  3.200315  0  0  -0.225306  -0.271266  0  3.178722  0
N  N80  1  0.16583965  0.75383426  0.43044434  1  0  -0.299961  0  2.902832  0  0  -0.279523  0  3.187604  0  0  -0.291686  0  3.200601  0  0  -0.225328  -0.271286  0  3.178983  0
N  N81  1  0.33416838  0.25384021  0.56955749  1  0  -0.300026  0  2.902685  0  0  -0.279623  0  3.187465  0  0  -0.291789  0  3.200462  0  0  -0.225367  -0.271388  0  3.178846  0
N  N82  1  0.93630751  0.72584942  0.01716224  1  0  -0.542382  0  2.89253  0  0  -0.487015  0  3.174343  0  0  -0.508146  0  3.180836  0  0  -0.392746  -0.472317  0  3.170273  0
N  N83  1  0.56369557  0.22585402  0.98283792  1  0  -0.542326  0  2.8925  0  0  -0.486935  0  3.174292  0  0  -0.508068  0  3.180789  0  0  -0.392692  -0.472235  0  3.170222  0
N  N84  1  0.06368990  0.27414379  0.98283544  1  0  -0.542277  0  2.892159  0  0  -0.486899  0  3.173974  0  0  -0.508035  0  3.180469  0  0  -0.392642  -0.472199  0  3.169904  0
N  N85  1  0.43630443  0.77414525  0.01715795  1  0  -0.54234  0  2.892307  0  0  -0.48695  0  3.174106  0  0  -0.508084  0  3.180602  0  0  -0.392678  -0.472254  0  3.170041  0
O  O86  1  0.77119580  0.43670964  0.48336249  1  0  -0.265325  0  2.28935  0  0  -0.189272  0  2.505905  0  0  -0.207015  0  2.507045  0  0  -0.096632  -0.177364  0  2.505278  0
O  O87  1  0.72880620  0.93670547  0.51663868  1  0  -0.265414  0  2.289375  0  0  -0.189316  0  2.505965  0  0  -0.207055  0  2.507104  0  0  -0.096643  -0.177412  0  2.505341  0
O  O88  1  0.22880586  0.56329064  0.51663865  1  0  -0.265322  0  2.289354  0  0  -0.189273  0  2.505875  0  0  -0.207025  0  2.507037  0  0  -0.096612  -0.177368  0  2.505247  0
O  O89  1  0.27119826  0.06329481  0.48336428  1  0  -0.265438  0  2.289312  0  0  -0.189331  0  2.505784  0  0  -0.20708  0  2.506938  0  0  -0.09665  -0.177426  0  2.505156  0
