# generated using pymatgen
data_CoH8(C3N2)4
_symmetry_space_group_name_H-M   'P 1'
_cell_length_a   6.90256644
_cell_length_b   9.60361103
_cell_length_c   10.34582058
_cell_angle_alpha   109.90148365
_cell_angle_beta   102.97864410
_cell_angle_gamma   104.84380456
_symmetry_Int_Tables_number   1
_chemical_formula_structural   CoH8(C3N2)4
_chemical_formula_sum   'Co2 H16 C24 N16'
_cell_volume   585.51666410
_cell_formula_units_Z   2
loop_
 _symmetry_equiv_pos_site_id
 _symmetry_equiv_pos_as_xyz
  1  'x, y, z'
loop_
 _atom_site_type_symbol
 _atom_site_label
 _atom_site_symmetry_multiplicity
 _atom_site_fract_x
 _atom_site_fract_y
 _atom_site_fract_z
 _atom_site_occupancy
 _atom_site_hle17_ddec_charge
 _atom_site_hle17_ddec_spin_density
 _atom_site_hle17_ddec_sum_bond_order
 _atom_site_hle17_magmom
 _atom_site_hse06_10hf_ddec_charge
 _atom_site_hse06_10hf_ddec_spin_density
 _atom_site_hse06_10hf_ddec_sum_bond_order
 _atom_site_hse06_10hf_magmom
 _atom_site_hse06_ddec_charge
 _atom_site_hse06_ddec_spin_density
 _atom_site_hse06_ddec_sum_bond_order
 _atom_site_hse06_magmom
 _atom_site_pbe_cm5_charge
 _atom_site_pbe_ddec_charge
 _atom_site_pbe_ddec_spin_density
 _atom_site_pbe_ddec_sum_bond_order
 _atom_site_pbe_magmom
Co  Co0  1  0.09670517  0.88685983  0.39561324  1  0.579879  1.186418  2.73512  1.052  0.599231  1.026021  3.163793  0.931  0.654372  1.029249  3.100224  0.945  0.703663  0.56725  1.000309  3.203384  0.891
Co  Co1  1  0.90329307  0.11314390  0.60438958  1  0.579858  1.186398  2.735078  1.052  0.599232  1.02603  3.163704  0.931  0.654448  1.029264  3.100108  0.945  0.703695  0.567332  1.00024  3.203301  0.891
H  H2  1  0.16241776  0.95958332  0.13667377  1  0.087938  0.000359  0.943345  0.001  0.09539  5e-06  1.00902  0.0  0.098942  3.9e-05  1.004511  0.0  0.120069  0.092675  -2.6e-05  1.012275  0.0
H  H3  1  0.83757668  0.04042168  0.86332694  1  0.087959  0.000358  0.943498  0.001  0.09536  5e-06  1.009232  0.0  0.098911  3.8e-05  1.00472  0.0  0.120072  0.092652  -2.7e-05  1.012484  0.0
H  H4  1  0.01532503  0.79615236  0.86747009  1  0.10254  -5.3e-05  0.976699  0.0  0.108697  0.0003  1.04352  0.0  0.112315  0.000219  1.042567  0.0  0.101774  0.105097  0.00032  1.045433  0.0
H  H5  1  0.98466967  0.20385024  0.13252989  1  0.102591  -4.8e-05  0.976712  0.0  0.108758  0.000299  1.043508  0.0  0.112377  0.000219  1.042554  0.0  0.101807  0.105159  0.000319  1.045424  0.0
H  H6  1  0.76446536  0.50957580  0.76560659  1  0.098979  -0.000146  0.960574  0.001  0.108817  -0.000528  1.026096  0.0  0.112364  -0.000472  1.022831  0.0  0.104015  0.105291  -0.000581  1.030099  0.0
H  H7  1  0.23553607  0.49042548  0.23439690  1  0.098922  -0.000137  0.960468  0.001  0.108793  -0.000527  1.025978  0.0  0.112339  -0.000471  1.022712  0.0  0.103984  0.10527  -0.00058  1.029959  0.0
H  H8  1  0.56686633  0.28506043  0.82276105  1  0.111415  -0.000277  0.945133  0.0  0.119171  -0.000214  1.010047  0.0  0.122979  -0.000207  1.00924  0.0  0.105613  0.116103  -0.000181  1.010864  0.0
H  H9  1  0.43313043  0.71494332  0.17724155  1  0.111475  -0.000285  0.945121  0.0  0.119203  -0.000214  1.010076  0.0  0.123013  -0.000207  1.009268  0.0  0.10561  0.116128  -0.00018  1.010887  0.0
H  H10  1  0.48350800  0.19426134  0.00765981  1  0.104819  -0.000116  0.969729  0.0  0.113199  0.000117  1.035616  0.0  0.116779  9.1e-05  1.034191  0.0  0.103848  0.110237  0.000161  1.036918  0.0
H  H11  1  0.51649027  0.80574242  0.99234012  1  0.104881  -0.000126  0.969566  0.0  0.113249  0.000117  1.03547  0.0  0.116841  9e-05  1.034029  0.0  0.103877  0.110288  0.000161  1.03677  0.0
H  H12  1  0.52142383  0.26245894  0.27875059  1  0.105571  0.00026  0.948324  0.001  0.114362  -7.2e-05  1.012837  0.0  0.118577  -2e-06  1.008825  0.0  0.107401  0.110866  -4.3e-05  1.016409  0.0
H  H13  1  0.47858156  0.73754711  0.72125117  1  0.105602  0.000259  0.948228  0.001  0.114412  -7.2e-05  1.012723  0.0  0.118629  -1e-06  1.00871  0.0  0.107455  0.110919  -4.3e-05  1.016286  0.0
H  H14  1  0.69274265  0.46822441  0.53770575  1  0.09996  -0.0005  0.979748  0.0  0.109081  -0.000131  1.042885  0.0  0.111785  -0.000208  1.043148  0.0  0.102426  0.107245  -7.1e-05  1.04263  0.0
H  H15  1  0.30725795  0.53177811  0.46229510  1  0.099967  -0.000491  0.979716  0.0  0.109081  -0.000131  1.042878  0.0  0.111788  -0.000208  1.043137  0.0  0.102433  0.107245  -7.1e-05  1.042619  0.0
H  H16  1  0.93190786  0.73897767  0.59396918  1  0.079798  0.000283  0.969821  0.001  0.087098  -4.9e-05  1.036612  0.0  0.089682  0.0  1.033316  0.0  0.122362  0.084926  -3e-05  1.039348  0.0
H  H17  1  0.06809187  0.26102605  0.40603289  1  0.079789  0.000295  0.969905  0.001  0.087106  -5e-05  1.036668  0.0  0.089697  0.0  1.033371  0.0  0.122373  0.084938  -3e-05  1.039404  0.0
C  C18  1  0.04886825  0.83809928  0.08981206  1  0.136867  -0.038478  3.640572  -0.024  0.108235  -0.011461  3.893269  -0.007  0.123625  -0.007357  3.901686  -0.004  0.055938  0.096424  -0.013889  3.889253  -0.008
C  C19  1  0.95112395  0.16189260  0.91018314  1  0.13698  -0.038471  3.640334  -0.024  0.108331  -0.011463  3.893068  -0.007  0.123712  -0.007359  3.901481  -0.004  0.055947  0.096524  -0.013889  3.889051  -0.008
C  C20  1  0.96357181  0.74368645  0.93795681  1  -0.114525  0.00774  3.733962  0.012  -0.123457  0.000791  3.981299  0.002  -0.13097  0.000943  3.9981  0.002  -0.084298  -0.118888  7.8e-05  3.972905  0.002
C  C21  1  0.03643526  0.25631712  0.06204925  1  -0.114655  0.007726  3.733977  0.012  -0.123584  0.000789  3.981316  0.002  -0.131096  0.000942  3.998118  0.002  -0.084305  -0.119014  7.7e-05  3.972914  0.002
C  C22  1  0.82781965  0.58709597  0.88231746  1  -0.054268  -0.041008  3.686046  -0.025  -0.08047  -0.011951  3.936276  -0.007  -0.073055  -0.007005  3.948693  -0.004  -0.071178  -0.087538  -0.015546  3.931229  -0.009
C  C23  1  0.17217885  0.41289943  0.11767693  1  -0.054245  -0.040996  3.68642  -0.025  -0.080478  -0.011944  3.936624  -0.007  -0.073072  -0.007003  3.94905  -0.004  -0.071236  -0.087537  -0.015531  3.931556  -0.009
C  C24  1  0.63356019  0.36623190  0.93869496  1  -0.09192  0.000538  3.698707  0.001  -0.115459  0.000115  3.9556  0.0  -0.118579  0.000103  3.976771  0.0  -0.081659  -0.11271  -0.000171  3.940806  0.0
C  C25  1  0.36644579  0.63377533  0.06130824  1  -0.091947  0.000547  3.69854  0.001  -0.115519  0.000115  3.955488  0.0  -0.118645  0.000104  3.976659  0.0  -0.081674  -0.112766  -0.00017  3.940682  0.0
C  C26  1  0.58720689  0.31633655  0.04126522  1  -0.0938  0.000818  3.724142  0.001  -0.116036  0.000202  3.976031  0.0  -0.119179  0.000203  3.998362  0.0  -0.080939  -0.114055  0.000223  3.960977  0.0
C  C27  1  0.41279099  0.68366358  0.95873735  1  -0.093871  0.000837  3.724022  0.001  -0.116064  0.000202  3.975902  0.0  -0.119216  0.000202  3.99826  0.0  -0.080951  -0.114083  0.000223  3.960842  0.0
C  C28  1  0.62787308  0.38160514  0.30569222  1  -0.050592  -0.040563  3.68298  -0.025  -0.074712  -0.012499  3.932483  -0.007  -0.064861  -0.007223  3.941345  -0.004  -0.068057  -0.081954  -0.014226  3.927433  -0.008
C  C29  1  0.37212742  0.61839137  0.69430863  1  -0.050578  -0.040547  3.683087  -0.025  -0.07472  -0.012503  3.932593  -0.007  -0.064861  -0.007227  3.941461  -0.004  -0.068046  -0.081963  -0.014223  3.927531  -0.008
C  C30  1  0.72223676  0.49616793  0.44882138  1  -0.12258  0.006785  3.747967  0.011  -0.135372  0.000445  4.000858  0.002  -0.14268  0.000718  4.016189  0.001  -0.089602  -0.130342  -3.5e-05  3.990705  0.002
C  C31  1  0.27776972  0.50383448  0.55118228  1  -0.12255  0.006776  3.747958  0.011  -0.135369  0.000447  4.000885  0.002  -0.142676  0.000718  4.016215  0.001  -0.089607  -0.130336  -3.5e-05  3.990718  0.002
C  C32  1  0.85921394  0.64913878  0.48183613  1  0.135667  -0.035482  3.655821  -0.023  0.106524  -0.011422  3.909956  -0.007  0.122084  -0.007546  3.919352  -0.004  0.050129  0.09586  -0.011596  3.904776  -0.007
C  C33  1  0.14078789  0.35086019  0.51815701  1  0.135727  -0.035564  3.655642  -0.023  0.106544  -0.011429  3.909728  -0.007  0.122088  -0.007551  3.919132  -0.004  0.050134  0.095879  -0.0116  3.904554  -0.007
C  C34  1  0.77282625  0.52511417  0.98034386  1  0.030954  0.003762  3.804227  0.007  0.047563  0.000233  4.03336  0.001  0.044582  0.000317  4.056118  0.001  -0.001087  0.049167  4.1e-05  4.018376  0.001
C  C35  1  0.22717301  0.47487995  0.01965797  1  0.030979  0.003755  3.804227  0.007  0.047635  0.000233  4.033318  0.001  0.044657  0.000318  4.056081  0.001  -0.000998  0.049241  4e-05  4.018321  0.001
C  C36  1  0.67328174  0.42172457  0.19371218  1  0.02908  0.003468  3.800209  0.007  0.046228  0.00023  4.027132  0.001  0.042293  0.000359  4.049444  0.001  -0.001267  0.049501  -0.000138  4.011874  0.001
C  C37  1  0.32671501  0.57827325  0.80628272  1  0.02907  0.003464  3.80022  0.007  0.046205  0.00023  4.027132  0.001  0.042239  0.000359  4.049481  0.001  -0.001325  0.049482  -0.000139  4.011867  0.001
C  C38  1  0.86344054  0.62862218  0.13079139  1  0.113693  -0.017908  3.764778  -0.011  0.107655  -0.006769  4.003513  -0.004  0.113744  -0.004365  4.02161  -0.002  0.108943  0.102882  -0.007558  3.99252  -0.004
C  C39  1  0.13655853  0.37137439  0.86920540  1  0.113594  -0.017909  3.765051  -0.011  0.107528  -0.006768  4.003742  -0.004  0.113603  -0.004367  4.021837  -0.002  0.108944  0.102755  -0.007558  3.992753  -0.004
C  C40  1  0.81259755  0.57833271  0.23649811  1  0.120362  -0.017039  3.745714  -0.011  0.115343  -0.006859  3.982639  -0.004  0.122317  -0.004408  4.000355  -0.003  0.11248  0.110486  -0.007631  3.971835  -0.004
C  C41  1  0.18740804  0.42167089  0.76350772  1  0.12045  -0.017039  3.745857  -0.011  0.115436  -0.006864  3.982689  -0.004  0.122423  -0.00441  4.000401  -0.003  0.112499  0.110581  -0.007635  3.971889  -0.004
N  N42  1  0.83674221  0.99631495  0.39485716  1  -0.458988  -0.006689  2.917321  0.003  -0.497788  0.001106  3.27401  0.008  -0.531094  -0.008239  3.283207  -0.002  -0.298242  -0.474445  0.010897  3.26667  0.018
N  N43  1  0.16325542  0.00368166  0.60513748  1  -0.458665  -0.006698  2.917623  0.003  -0.497449  0.001089  3.274315  0.008  -0.530734  -0.008259  3.283506  -0.002  -0.298085  -0.474117  0.010886  3.266979  0.018
N  N44  1  0.77136384  0.02947770  0.29524120  1  0.376065  -0.002203  4.138891  0.0  0.420992  0.002552  4.450549  0.004  0.438839  0.000319  4.486758  0.002  0.090336  0.408892  0.00467  4.423051  0.007
N  N45  1  0.22863182  0.97052376  0.70475179  1  0.375669  -0.002228  4.138816  0.0  0.420597  0.002547  4.450499  0.004  0.438445  0.000313  4.486705  0.002  0.090061  0.408491  0.004667  4.423003  0.007
N  N46  1  0.71113248  0.05464835  0.19338090  1  -0.369721  0.019583  2.379224  0.032  -0.379383  0.026282  2.613871  0.038  -0.398453  0.023112  2.63012  0.034  -0.174263  -0.361889  0.03197  2.60009  0.044
N  N47  1  0.28887292  0.94534919  0.80663070  1  -0.36968  0.019601  2.378896  0.033  -0.379333  0.026302  2.613534  0.038  -0.398405  0.023133  2.629773  0.034  -0.174204  -0.361834  0.031992  2.599748  0.044
N  N48  1  0.35822018  0.78206772  0.42318229  1  -0.379733  -0.030938  2.558583  -0.017  -0.412396  -0.003806  2.84306  0.004  -0.436507  -0.014133  2.856489  -0.006  -0.196807  -0.393648  0.007466  2.832456  0.016
N  N49  1  0.64177980  0.21793359  0.57682002  1  -0.379823  -0.030935  2.558444  -0.017  -0.412472  -0.003808  2.842908  0.004  -0.436583  -0.014136  2.856337  -0.006  -0.196837  -0.393733  0.007467  2.832335  0.016
N  N50  1  0.52942031  0.85820244  0.51253904  1  0.374204  -0.00432  4.141772  0.001  0.426975  0.002389  4.447573  0.006  0.446235  0.001642  4.486189  0.006  0.09051  0.413088  0.002803  4.419693  0.006
N  N51  1  0.47057345  0.14179539  0.48745831  1  0.374269  -0.004295  4.14169  0.001  0.427018  0.00239  4.447509  0.006  0.446277  0.001644  4.486123  0.006  0.090501  0.413129  0.002799  4.419637  0.006
N  N52  1  0.70093691  0.93162567  0.60673439  1  -0.429933  0.016129  2.761268  0.035  -0.465909  0.018803  3.08582  0.029  -0.500126  0.017059  3.100899  0.027  -0.270854  -0.441029  0.024796  3.073858  0.037
N  N53  1  0.29906335  0.06837326  0.39326527  1  -0.429927  0.016106  2.761374  0.035  -0.465881  0.018803  3.085933  0.029  -0.500089  0.01706  3.100999  0.027  -0.270818  -0.440982  0.024804  3.073941  0.037
N  N54  1  0.00198931  0.78210527  0.18557909  1  -0.26417  -0.004841  3.363453  0.002  -0.219818  -0.006667  3.642758  -0.004  -0.240685  -0.006545  3.653983  -0.004  -0.332512  -0.20771  -0.006054  3.63613  -0.004
N  N55  1  0.99801277  0.21789723  0.81442198  1  -0.264193  -0.004846  3.363517  0.002  -0.219766  -0.00667  3.642746  -0.004  -0.240617  -0.006547  3.653961  -0.004  -0.33253  -0.207672  -0.006055  3.636141  -0.004
N  N56  1  0.90498206  0.69129444  0.37830223  1  -0.257509  -0.005549  3.362014  0.001  -0.213759  -0.007161  3.641523  -0.004  -0.23536  -0.00666  3.653949  -0.004  -0.328732  -0.201824  -0.005935  3.634393  -0.003
N  N57  1  0.09501964  0.30870444  0.62170053  1  -0.2577  -0.005543  3.362026  0.001  -0.213856  -0.007162  3.641429  -0.004  -0.235459  -0.00666  3.653854  -0.004  -0.328783  -0.201938  -0.005935  3.634328  -0.003
