# generated using pymatgen
data_La2H22C8S3(NO10)2
_symmetry_space_group_name_H-M   'P 1'
_cell_length_a   6.68498172
_cell_length_b   12.73067531
_cell_length_c   13.59858562
_cell_angle_alpha   79.09155321
_cell_angle_beta   75.85078248
_cell_angle_gamma   74.78903236
_symmetry_Int_Tables_number   1
_chemical_formula_structural   La2H22C8S3(NO10)2
_chemical_formula_sum   'La4 H44 C16 S6 N4 O40'
_cell_volume   1073.15199242
_cell_formula_units_Z   2
loop_
 _symmetry_equiv_pos_site_id
 _symmetry_equiv_pos_as_xyz
  1  'x, y, z'
loop_
 _atom_site_type_symbol
 _atom_site_label
 _atom_site_symmetry_multiplicity
 _atom_site_fract_x
 _atom_site_fract_y
 _atom_site_fract_z
 _atom_site_occupancy
 _atom_site_hle17_bader_spin_density
 _atom_site_hle17_ddec_charge
 _atom_site_hle17_ddec_spin_density
 _atom_site_hle17_ddec_sum_bond_order
 _atom_site_hle17_magmom
 _atom_site_hse06_10hf_bader_spin_density
 _atom_site_hse06_10hf_ddec_charge
 _atom_site_hse06_10hf_ddec_spin_density
 _atom_site_hse06_10hf_ddec_sum_bond_order
 _atom_site_hse06_10hf_magmom
 _atom_site_hse06_bader_spin_density
 _atom_site_hse06_ddec_charge
 _atom_site_hse06_ddec_spin_density
 _atom_site_hse06_ddec_sum_bond_order
 _atom_site_hse06_magmom
 _atom_site_pbe_bader_charge
 _atom_site_pbe_bader_spin_density
 _atom_site_pbe_cm5_charge
 _atom_site_pbe_ddec_charge
 _atom_site_pbe_ddec_spin_density
 _atom_site_pbe_ddec_sum_bond_order
 _atom_site_pbe_magmom
La  La0  1  0.72107080  0.54863837  0.13109056  1  0  2.202754  0  1.732781  0  0  2.091243  0  2.239337  0  0  2.189267  0  2.136733  0  2.287963  0  1.417567  2.016779  0  2.312429  0
La  La1  1  0.40096377  0.95130787  0.36884880  1  0  2.201794  0  1.734702  0  0  2.090773  0  2.240984  0  0  2.188819  0  2.138271  0  2.289348  0  1.416909  2.016329  0  2.314095  0
La  La2  1  0.27892861  0.45136111  0.86890981  1  0  2.202735  0  1.732734  0  0  2.091181  0  2.23937  0  0  2.18921  0  2.136756  0  2.287933  0  1.417542  2.016723  0  2.312454  0
La  La3  1  0.59903601  0.04869243  0.63115073  1  0  2.201815  0  1.734706  0  0  2.0908  0  2.24097  0  0  2.188841  0  2.138259  0  2.289378  0  1.416925  2.016352  0  2.314086  0
H  H4  1  0.34643371  0.74897636  0.97451870  1  0  0.147135  0  0.925154  0  0  0.154691  0  0.988791  0  0  0.15851  0  0.986153  0  0.175652  0  0.134022  0.151843  0  0.990926  0
H  H5  1  0.07036027  0.75092389  0.52583917  1  0  0.148402  0  0.926587  0  0  0.155741  0  0.990058  0  0  0.159572  0  0.98741  0  0.173666  0  0.134177  0.1529  0  0.992217  0
H  H6  1  0.65356089  0.25102313  0.02548184  1  0  0.147122  0  0.925144  0  0  0.154645  0  0.988813  0  0  0.158463  0  0.986172  0  0.175607  0  0.134013  0.151802  0  0.990946  0
H  H7  1  0.92963977  0.24907724  0.47416118  1  0  0.148437  0  0.92657  0  0  0.155773  0  0.990047  0  0  0.159604  0  0.987398  0  0.173671  0  0.134187  0.152933  0  0.992206  0
H  H8  1  0.19880789  0.79310757  0.87454463  1  0  0.14356  0  0.924496  0  0  0.150878  0  0.987682  0  0  0.154611  0  0.98517  0  0.177638  0  0.129605  0.148122  0  0.989646  0
H  H9  1  0.86713590  0.70671957  0.62558646  1  0  0.144222  0  0.923925  0  0  0.151472  0  0.987033  0  0  0.155169  0  0.984572  0  0.177898  0  0.129621  0.148746  0  0.988997  0
H  H10  1  0.80118843  0.20689109  0.12545620  1  0  0.143575  0  0.924494  0  0  0.150916  0  0.987651  0  0  0.154654  0  0.985139  0  0.177614  0  0.129603  0.148159  0  0.989616  0
H  H11  1  0.13286326  0.29328073  0.37441215  1  0  0.144266  0  0.923848  0  0  0.151492  0  0.986986  0  0  0.15519  0  0.984522  0  0.177876  0  0.129635  0.148766  0  0.98895  0
H  H12  1  0.29334506  0.97663401  0.90961261  1  0  0.116306  0  0.93643  0  0  0.129495  0  0.994716  0  0  0.131671  0  0.993639  0  0.177531  0  0.125033  0.127794  0  0.995692  0
H  H13  1  0.18033000  0.52331962  0.59043446  1  0  0.116222  0  0.936467  0  0  0.128779  0  0.99539  0  0  0.13097  0  0.99433  0  0.142516  0  0.124933  0.127015  0  0.996441  0
H  H14  1  0.70665091  0.02336711  0.09038718  1  0  0.116329  0  0.936497  0  0  0.129523  0  0.994777  0  0  0.1317  0  0.993699  0  0.177516  0  0.125053  0.127822  0  0.995753  0
H  H15  1  0.81967359  0.47667986  0.40956482  1  0  0.116233  0  0.936454  0  0  0.128788  0  0.995351  0  0  0.130979  0  0.994291  0  0.1425  0  0.12495  0.127043  0  0.996377  0
H  H16  1  0.35506679  0.91046964  0.03082833  1  0  0.114581  0  0.89611  0  0  0.130989  0  0.949063  0  0  0.132277  0  0.948816  0  0.095431  0  0.131357  0.129885  0  0.94949  0
H  H17  1  0.29644100  0.58948482  0.46919387  1  0  0.115057  0  0.896274  0  0  0.131588  0  0.948675  0  0  0.13293  0  0.948373  0  0.108457  0  0.13215  0.130502  0  0.949073  0
H  H18  1  0.64493028  0.08953066  0.96917082  1  0  0.114566  0  0.896108  0  0  0.130961  0  0.949095  0  0  0.13225  0  0.948846  0  0.095671  0  0.131334  0.129857  0  0.949523  0
H  H19  1  0.70356332  0.41051466  0.53080467  1  0  0.115076  0  0.896287  0  0  0.13159  0  0.948656  0  0  0.132932  0  0.948352  0  0.108554  0  0.132143  0.130504  0  0.949057  0
H  H20  1  0.78666169  0.88576858  0.96802677  1  0  0.115301  0  0.908163  0  0  0.130504  0  0.962082  0  0  0.132387  0  0.960953  0  0.133193  0  0.130535  0.129016  0  0.963157  0
H  H21  1  0.64092572  0.61439533  0.53179077  1  0  0.114936  0  0.907784  0  0  0.13017  0  0.961375  0  0  0.131923  0  0.960359  0  0.130823  0  0.130692  0.128775  0  0.962361  0
H  H22  1  0.21333391  0.11423172  0.03197385  1  0  0.115296  0  0.90814  0  0  0.130514  0  0.962051  0  0  0.132398  0  0.96092  0  0.13322  0  0.130532  0.129022  0  0.963137  0
H  H23  1  0.35907823  0.38560333  0.46820860  1  0  0.114854  0  0.907786  0  0  0.130107  0  0.961386  0  0  0.131859  0  0.96037  0  0.130789  0  0.130665  0.128711  0  0.962372  0
H  H24  1  0.94832005  0.96453894  0.87573343  1  0  0.114195  0  0.913342  0  0  0.124845  0  0.975541  0  0  0.126795  0  0.974554  0  0.113935  0  0.128249  0.123317  0  0.976445  0
H  H25  1  0.78923206  0.53554284  0.62422686  1  0  0.115045  0  0.912136  0  0  0.124568  0  0.975704  0  0  0.126497  0  0.974714  0  0.109366  0  0.128333  0.123052  0  0.976606  0
H  H26  1  0.05167591  0.03546054  0.12426730  1  0  0.114169  0  0.913378  0  0  0.124833  0  0.975574  0  0  0.126783  0  0.974586  0  0.11389  0  0.128246  0.123306  0  0.976477  0
H  H27  1  0.21077362  0.46445665  0.37577187  1  0  0.114991  0  0.912123  0  0  0.124533  0  0.975703  0  0  0.126461  0  0.974713  0  0.109402  0  0.128315  0.123016  0  0.976606  0
H  H28  1  0.89460321  0.63850745  0.27836560  1  0  0.438002  0  0.861151  0  0  0.405655  0  0.928273  0  0  0.416811  0  0.911925  0  0.653859  0  0.304002  0.397672  0  0.93996  0
H  H29  1  0.81128690  0.86146425  0.22161704  1  0  0.437851  0  0.861581  0  0  0.405228  0  0.928849  0  0  0.416427  0  0.912475  0  0.659522  0  0.303751  0.397201  0  0.94059  0
H  H30  1  0.10539902  0.36149203  0.72163349  1  0  0.437974  0  0.861164  0  0  0.405628  0  0.928288  0  0  0.416781  0  0.911945  0  0.653877  0  0.303969  0.397645  0  0.939975  0
H  H31  1  0.18871521  0.13853523  0.77838371  1  0  0.437856  0  0.861563  0  0  0.405228  0  0.928844  0  0  0.416427  0  0.912468  0  0.659533  0  0.303746  0.3972  0  0.940586  0
H  H32  1  0.54609871  0.36159306  0.26485786  1  0  0.418029  0  0.894818  0  0  0.38585  0  0.962551  0  0  0.39653  0  0.947117  0  0.641922  0  0.292202  0.378246  0  0.973488  0
H  H33  1  0.17242960  0.13842023  0.23510810  1  0  0.415709  0  0.898182  0  0  0.383193  0  0.966458  0  0  0.393918  0  0.950997  0  0.633425  0  0.290865  0.375559  0  0.977417  0
H  H34  1  0.45390179  0.63840560  0.73514187  1  0  0.418013  0  0.894838  0  0  0.38584  0  0.96256  0  0  0.396519  0  0.947127  0  0.641928  0  0.292207  0.378236  0  0.973498  0
H  H35  1  0.82757018  0.86158007  0.76489143  1  0  0.415713  0  0.898177  0  0  0.383197  0  0.966452  0  0  0.393922  0  0.950991  0  0.633425  0  0.290875  0.375563  0  0.977411  0
H  H36  1  0.65034621  0.68307483  0.31995273  1  0  0.433416  0  0.847442  0  0  0.403445  0  0.920459  0  0  0.413749  0  0.905198  0  0.621196  0  0.313899  0.395978  0  0.931503  0
H  H37  1  0.65307558  0.81699545  0.17988526  1  0  0.434901  0  0.845454  0  0  0.404694  0  0.918705  0  0  0.415001  0  0.903447  0  0.632344  0  0.314465  0.397211  0  0.929755  0
H  H38  1  0.34966000  0.31692630  0.68004763  1  0  0.433393  0  0.847455  0  0  0.403431  0  0.920466  0  0  0.413735  0  0.905206  0  0.62139  0  0.313883  0.395967  0  0.931506  0
H  H39  1  0.34692447  0.18300568  0.82011509  1  0  0.434884  0  0.845481  0  0  0.404681  0  0.918723  0  0  0.414987  0  0.903467  0  0.632332  0  0.314458  0.397199  0  0.929772  0
H  H40  1  0.03626528  0.85861565  0.08166907  1  0  0.280248  0  0.894698  0  0  0.261333  0  0.957335  0  0  0.269582  0  0.951075  0  0.507774  0  0.318661  0.25542  0  0.961953  0
H  H41  1  0.97629121  0.64140041  0.41840330  1  0  0.27955  0  0.893521  0  0  0.260449  0  0.956604  0  0  0.268509  0  0.950561  0  0.507585  0  0.318456  0.254693  0  0.961017  0
H  H42  1  0.96373303  0.14138466  0.91833193  1  0  0.280251  0  0.894687  0  0  0.261357  0  0.957299  0  0  0.269609  0  0.951031  0  0.507784  0  0.318672  0.255443  0  0.961919  0
H  H43  1  0.02371421  0.35859825  0.58159460  1  0  0.279574  0  0.893507  0  0  0.260501  0  0.956556  0  0  0.26856  0  0.950514  0  0.507605  0  0.318486  0.254745  0  0.960971  0
H  H44  1  0.77641443  0.32532426  0.28106175  1  0  0.437238  0  0.854901  0  0  0.409133  0  0.914208  0  0  0.419909  0  0.898529  0  0.643375  0  0.299192  0.401405  0  0.92543  0
H  H45  1  0.38290319  0.17440976  0.21892835  1  0  0.439393  0  0.8517  0  0  0.41063  0  0.912016  0  0  0.421392  0  0.896361  0  0.651722  0  0.300005  0.402912  0  0.923222  0
H  H46  1  0.22358435  0.67467522  0.71893769  1  0  0.437239  0  0.854903  0  0  0.409128  0  0.914218  0  0  0.419905  0  0.898538  0  0.643459  0  0.299195  0.401401  0  0.92544  0
H  H47  1  0.61709696  0.82559137  0.78107035  1  0  0.43939  0  0.851705  0  0  0.410626  0  0.912021  0  0  0.421387  0  0.896368  0  0.651732  0  0.299996  0.40291  0  0.923224  0
C  C48  1  0.06204161  0.69045755  0.00632807  1  0  0.741528  0  3.83058  0  0  0.695948  0  4.129955  0  0  0.732461  0  4.120681  0  1.632741  0  0.237247  0.670727  0  4.135654  0
C  C49  1  0.75924201  0.80948295  0.49375793  1  0  0.739469  0  3.829636  0  0  0.695865  0  4.125311  0  0  0.732296  0  4.116132  0  1.619715  0  0.237695  0.670718  0  4.130947  0
C  C50  1  0.93795586  0.30954276  0.99367533  1  0  0.741484  0  3.83079  0  0  0.695901  0  4.130166  0  0  0.732411  0  4.120894  0  1.632756  0  0.237232  0.670681  0  4.135862  0
C  C51  1  0.24076086  0.19051818  0.50624114  1  0  0.739542  0  3.829472  0  0  0.695957  0  4.125118  0  0  0.732386  0  4.115936  0  1.619722  0  0.237698  0.670811  0  4.130755  0
C  C52  1  0.18661658  0.77788790  0.95783880  1  0  -0.180721  0  3.484454  0  0  -0.234571  0  3.723852  0  0  -0.236782  0  3.726831  0  0.122599  0  -0.052836  -0.233017  0  3.722159  0
C  C53  1  0.92281908  0.72204110  0.54232994  1  0  -0.18346  0  3.482963  0  0  -0.237607  0  3.722454  0  0  -0.239826  0  3.725474  0  0.136476  0  -0.05386  -0.23608  0  3.720718  0
C  C54  1  0.81337901  0.22211076  0.04216277  1  0  -0.180795  0  3.484512  0  0  -0.234607  0  3.72385  0  0  -0.236818  0  3.726833  0  0.122617  0  -0.052864  -0.233058  0  3.722161  0
C  C55  1  0.07718144  0.27795921  0.45766886  1  0  -0.18353  0  3.482896  0  0  -0.237688  0  3.722421  0  0  -0.239898  0  3.725421  0  0.136483  0  -0.053876  -0.236168  0  3.720696  0
C  C56  1  0.22734668  0.95630607  0.99120284  1  0  -0.034032  0  3.506515  0  0  -0.094111  0  3.760213  0  0  -0.091251  0  3.769129  0  0.186339  0  -0.054354  -0.095877  0  3.754286  0
C  C57  1  0.17515951  0.54363113  0.50884320  1  0  -0.033493  0  3.505097  0  0  -0.09244  0  3.757246  0  0  -0.089633  0  3.766065  0  0.201109  0  -0.054619  -0.094229  0  3.751509  0
C  C58  1  0.77264965  0.04369423  0.00879706  1  0  -0.034002  0  3.506567  0  0  -0.094118  0  3.760311  0  0  -0.091258  0  3.769227  0  0.186103  0  -0.054354  -0.095886  0  3.754385  0
C  C59  1  0.82484445  0.45636917  0.49115524  1  0  -0.033585  0  3.505267  0  0  -0.092425  0  3.757188  0  0  -0.089617  0  3.766006  0  0.20113  0  -0.054626  -0.094227  0  3.751453  0
C  C60  1  0.89047638  0.94236532  0.95795001  1  0  -0.027875  0  3.502905  0  0  -0.086606  0  3.756339  0  0  -0.083705  0  3.765209  0  0.19838  0  -0.052851  -0.088549  0  3.75065  0
C  C61  1  0.79109421  0.55767867  0.54199937  1  0  -0.027739  0  3.501967  0  0  -0.085682  0  3.754807  0  0  -0.082564  0  3.763423  0  0.204747  0  -0.052008  -0.08772  0  3.749219  0
C  C62  1  0.10952022  0.05763581  0.04205071  1  0  -0.027785  0  3.502832  0  0  -0.086588  0  3.756352  0  0  -0.083686  0  3.765222  0  0.198418  0  -0.052818  -0.088534  0  3.750661  0
C  C63  1  0.20891074  0.44232081  0.45800009  1  0  -0.027551  0  3.50178  0  0  -0.085539  0  3.75475  0  0  -0.082423  0  3.763371  0  0.20474  0  -0.051965  -0.087574  0  3.749152  0
S  S64  1  0.28716036  0.40691941  0.14570255  1  0  1.640023  0  5.789644  0  0  1.520024  0  6.329274  0  0  1.579762  0  6.292342  0  3.845973  0  0.600151  1.477971  0  6.353789  0
S  S65  1  0.83999806  0.09295425  0.35435160  1  0  1.643716  0  5.785896  0  0  1.524146  0  6.325131  0  0  1.583908  0  6.288106  0  3.842909  0  0.601188  1.482073  0  6.349752  0
S  S66  1  0.71283733  0.59308090  0.85429753  1  0  1.639998  0  5.789812  0  0  1.519971  0  6.329492  0  0  1.579707  0  6.292563  0  3.845953  0  0.600093  1.477919  0  6.354002  0
S  S67  1  0.16000135  0.90704523  0.64564877  1  0  1.643761  0  5.78579  0  0  1.524184  0  6.32503  0  0  1.583952  0  6.288002  0  3.842962  0  0.601246  1.482112  0  6.349652  0
S  S68  1  0.23579622  0.74995546  0.24995466  1  0  1.61415  0  5.784067  0  0  1.488622  0  6.33083  0  0  1.546488  0  6.295265  0  3.811671  0  0.589008  1.448408  0  6.354156  0
S  S69  1  0.76420309  0.25004566  0.75004642  1  0  1.614232  0  5.783826  0  0  1.488692  0  6.330617  0  0  1.546548  0  6.295054  0  3.812402  0  0.589048  1.448478  0  6.353944  0
N  N70  1  0.08040774  0.88214622  0.00240135  1  0  -0.071561  0  3.37925  0  0  0.007363  0  3.594239  0  0  -0.004339  0  3.611976  0  -1.02104  0  -0.349628  0.015301  0  3.582159  0
N  N71  1  0.96521049  0.61783042  0.49764071  1  0  -0.070941  0  3.377374  0  0  0.007147  0  3.593128  0  0  -0.004436  0  3.610736  0  -1.01593  0  -0.350438  0.01503  0  3.581132  0
N  N72  1  0.91959030  0.11785327  0.99759883  1  0  -0.071565  0  3.37923  0  0  0.007358  0  3.594215  0  0  -0.004364  0  3.611999  0  -1.02105  0  -0.349686  0.015297  0  3.582137  0
N  N73  1  0.03479212  0.38216989  0.50235754  1  0  -0.070934  0  3.377417  0  0  0.007119  0  3.593172  0  0  -0.004467  0  3.610783  0  -1.016028  0  -0.350454  0.015003  0  3.58118  0
O  O74  1  0.90573526  0.71201266  0.07974263  1  0  -0.692219  0  2.003074  0  0  -0.64488  0  2.24998  0  0  -0.674943  0  2.239668  0  -1.207007  0  -0.357897  -0.62338  0  2.25652  0
O  O75  1  0.69770822  0.78791059  0.42030695  1  0  -0.689845  0  2.003903  0  0  -0.643188  0  2.249574  0  0  -0.673234  0  2.239295  0  -1.198783  0  -0.356355  -0.621712  0  2.256093  0
O  O76  1  0.09425752  0.28798765  0.92025928  1  0  -0.692147  0  2.003124  0  0  -0.644831  0  2.250054  0  0  -0.674894  0  2.239748  0  -1.20696  0  -0.357858  -0.623328  0  2.25659  0
O  O77  1  0.30229711  0.21209136  0.57969073  1  0  -0.689875  0  2.003939  0  0  -0.643231  0  2.249603  0  0  -0.673275  0  2.239324  0  -1.198771  0  -0.356365  -0.621754  0  2.256121  0
O  O78  1  0.40056113  0.49672442  0.13012326  1  0  -0.802641  0  2.038899  0  0  -0.756026  0  2.325939  0  0  -0.787141  0  2.30979  0  -1.355117  0  -0.43451  -0.733072  0  2.336222  0
O  O79  1  0.02758690  0.00306299  0.36978121  1  0  -0.802058  0  2.03589  0  0  -0.756366  0  2.323277  0  0  -0.787406  0  2.306995  0  -1.356962  0  -0.434466  -0.733459  0  2.333655  0
O  O80  1  0.59943510  0.50327753  0.86987735  1  0  -0.80263  0  2.038968  0  0  -0.756014  0  2.326033  0  0  -0.787131  0  2.309886  0  -1.355122  0  -0.434514  -0.733059  0  2.336313  0
O  O81  1  0.97241324  0.99693649  0.63021842  1  0  -0.802096  0  2.035938  0  0  -0.756391  0  2.323292  0  0  -0.787428  0  2.307005  0  -1.357015  0  -0.434462  -0.733483  0  2.333671  0
O  O82  1  0.32190301  0.36278080  0.04750853  1  0  -0.786498  0  1.976999  0  0  -0.737925  0  2.249025  0  0  -0.766871  0  2.232262  0  -1.352322  0  -0.402712  -0.716697  0  2.259904  0
O  O83  1  0.73282651  0.13690311  0.45261923  1  0  -0.787986  0  1.977505  0  0  -0.739025  0  2.248969  0  0  -0.767994  0  2.232159  0  -1.355888  0  -0.402616  -0.717792  0  2.25989  0
O  O84  1  0.67809740  0.63722114  0.95249098  1  0  -0.786461  0  1.97702  0  0  -0.737887  0  2.249048  0  0  -0.766833  0  2.232288  0  -1.352326  0  -0.402663  -0.716657  0  2.259921  0
O  O85  1  0.26717425  0.86309637  0.54738132  1  0  -0.78796  0  1.977459  0  0  -0.739013  0  2.248938  0  0  -0.767982  0  2.232126  0  -1.35592  0  -0.402602  -0.717779  0  2.259858  0
O  O86  1  0.12335202  0.59975064  0.97126665  1  0  -0.729586  0  2.102014  0  0  -0.68725  0  2.376719  0  0  -0.724003  0  2.36823  0  -1.212044  0  -0.386314  -0.66051  0  2.38144  0
O  O87  1  0.69475838  0.90017507  0.52883298  1  0  -0.729145  0  2.101449  0  0  -0.687623  0  2.375285  0  0  -0.724305  0  2.36657  0  -1.217183  0  -0.387197  -0.660882  0  2.38001  0
O  O88  1  0.87664183  0.40024720  0.02873556  1  0  -0.729585  0  2.10221  0  0  -0.687218  0  2.376862  0  0  -0.723967  0  2.368375  0  -1.212061  0  -0.386283  -0.660478  0  2.381582  0
O  O89  1  0.30524310  0.09982277  0.47116778  1  0  -0.729215  0  2.101357  0  0  -0.687672  0  2.37514  0  0  -0.724376  0  2.366472  0  -1.217195  0  -0.387184  -0.66093  0  2.379866  0
O  O90  1  0.65964179  0.39170138  0.27809296  1  0  -0.886244  0  1.807472  0  0  -0.845338  0  1.994428  0  0  -0.870866  0  1.963497  0  -1.289202  0  -0.638045  -0.826615  0  2.015943  0
O  O91  1  0.32916828  0.10817063  0.22181301  1  0  -0.885532  0  1.808565  0  0  -0.843783  0  1.9962  0  0  -0.86938  0  1.965197  0  -1.290172  0  -0.636964  -0.825015  0  2.017757  0
O  O92  1  0.34035761  0.60829810  0.72190741  1  0  -0.886243  0  1.807507  0  0  -0.845329  0  1.994466  0  0  -0.870856  0  1.963534  0  -1.2893  0  -0.638056  -0.826607  0  2.015974  0
O  O93  1  0.67083186  0.89182885  0.77818663  1  0  -0.885522  0  1.808565  0  0  -0.843779  0  1.996209  0  0  -0.869375  0  1.965203  0  -1.290183  0  -0.636956  -0.825012  0  2.017763  0
O  O94  1  0.05814190  0.45046086  0.18540840  1  0  -0.781646  0  1.980047  0  0  -0.730932  0  2.258357  0  0  -0.760638  0  2.241241  0  -1.359777  0  -0.416727  -0.709056  0  2.269484  0
O  O95  1  0.69389414  0.04965100  0.31447293  1  0  -0.783509  0  1.979072  0  0  -0.732983  0  2.257265  0  0  -0.762673  0  2.240042  0  -1.353935  0  -0.417253  -0.711146  0  2.268511  0
O  O96  1  0.94185686  0.54953698  0.81459198  1  0  -0.781675  0  1.980093  0  0  -0.730931  0  2.258384  0  0  -0.760636  0  2.241266  0  -1.359726  0  -0.416712  -0.709056  0  2.26951  0
O  O97  1  0.30610490  0.95034930  0.68552734  1  0  -0.783591  0  1.979027  0  0  -0.733053  0  2.257196  0  0  -0.76274  0  2.239967  0  -1.353928  0  -0.417357  -0.711217  0  2.268442  0
O  O98  1  0.75301365  0.62097555  0.29031522  1  0  -0.875164  0  1.871471  0  0  -0.82825  0  2.07146  0  0  -0.852633  0  2.039442  0  -1.2606  0  -0.621247  -0.810416  0  2.09388  0
O  O99  1  0.66404003  0.87900684  0.20969354  1  0  -0.876545  0  1.869632  0  0  -0.829087  0  2.070365  0  0  -0.853481  0  2.038145  0  -1.279629  0  -0.621765  -0.811291  0  2.093066  0
O  O100  1  0.24699129  0.37902393  0.70968424  1  0  -0.875125  0  1.871518  0  0  -0.828202  0  2.0715  0  0  -0.85258  0  2.039477  0  -1.260801  0  -0.621195  -0.810366  0  2.093917  0
O  O101  1  0.33596246  0.12099347  0.79030637  1  0  -0.876526  0  1.86962  0  0  -0.829075  0  2.070355  0  0  -0.853469  0  2.038137  0  -1.279632  0  -0.621757  -0.811279  0  2.093056  0
O  O102  1  0.37188434  0.31682773  0.22320263  1  0  -0.745187  0  1.949406  0  0  -0.677388  0  2.180747  0  0  -0.700469  0  2.161863  0  -1.354481  0  -0.341633  -0.661146  0  2.193832  0
O  O103  1  0.91200958  0.18315024  0.27706240  1  0  -0.745926  0  1.950115  0  0  -0.67833  0  2.181674  0  0  -0.701532  0  2.162778  0  -1.349821  0  -0.341789  -0.662038  0  2.194779  0
O  O104  1  0.62811618  0.68317257  0.77679616  1  0  -0.745186  0  1.949417  0  0  -0.67738  0  2.180754  0  0  -0.700458  0  2.161867  0  -1.354494  0  -0.341627  -0.661144  0  2.193843  0
O  O105  1  0.08799020  0.81685006  0.72293713  1  0  -0.745896  0  1.950093  0  0  -0.678282  0  2.181639  0  0  -0.701499  0  2.162749  0  -1.349831  0  -0.341771  -0.661993  0  2.194748  0
O  O106  1  0.42384764  0.72029398  0.16577183  1  0  -0.800696  0  1.945903  0  0  -0.746807  0  2.218811  0  0  -0.775609  0  2.201853  0  -1.359245  0  -0.405864  -0.725722  0  2.229649  0
O  O107  1  0.31046996  0.77963501  0.33414703  1  0  -0.800813  0  1.945977  0  0  -0.747486  0  2.219251  0  0  -0.776325  0  2.202274  0  -1.354395  0  -0.406735  -0.726403  0  2.23016  0
O  O108  1  0.57615400  0.27970632  0.83423046  1  0  -0.800695  0  1.945851  0  0  -0.746805  0  2.218767  0  0  -0.775596  0  2.201787  0  -1.35928  0  -0.405899  -0.725722  0  2.229606  0
O  O109  1  0.68952871  0.22036447  0.66585407  1  0  -0.800835  0  1.945848  0  0  -0.747518  0  2.219131  0  0  -0.776357  0  2.202158  0  -1.354377  0  -0.406762  -0.726435  0  2.230041  0
O  O110  1  0.13560044  0.65482122  0.29135733  1  0  -0.735841  0  1.992916  0  0  -0.674963  0  2.242117  0  0  -0.697576  0  2.225373  0  -1.354378  0  -0.34101  -0.659088  0  2.253191  0
O  O111  1  0.08162538  0.84506670  0.20856290  1  0  -0.735842  0  1.992151  0  0  -0.675849  0  2.242234  0  0  -0.698546  0  2.225383  0  -1.350881  0  -0.342294  -0.659725  0  2.253225  0
O  O112  1  0.86439898  0.34517990  0.70864210  1  0  -0.735868  0  1.992859  0  0  -0.67499  0  2.242058  0  0  -0.697594  0  2.225331  0  -1.354244  0  -0.340995  -0.659114  0  2.253135  0
O  O113  1  0.91837849  0.15493525  0.79143626  1  0  -0.735875  0  1.992182  0  0  -0.675859  0  2.242229  0  0  -0.698566  0  2.225398  0  -1.351736  0  -0.342269  -0.659732  0  2.253215  0
