# generated using pymatgen
data_AgH17C24(NO2)2
_symmetry_space_group_name_H-M   'P 1'
_cell_length_a   8.11506819
_cell_length_b   10.29288786
_cell_length_c   12.11558128
_cell_angle_alpha   90.31468632
_cell_angle_beta   86.95442995
_cell_angle_gamma   71.23307482
_symmetry_Int_Tables_number   1
_chemical_formula_structural   AgH17C24(NO2)2
_chemical_formula_sum   'Ag2 H34 C48 N4 O8'
_cell_volume   956.55569617
_cell_formula_units_Z   2
loop_
 _symmetry_equiv_pos_site_id
 _symmetry_equiv_pos_as_xyz
  1  'x, y, z'
loop_
 _atom_site_type_symbol
 _atom_site_label
 _atom_site_symmetry_multiplicity
 _atom_site_fract_x
 _atom_site_fract_y
 _atom_site_fract_z
 _atom_site_occupancy
 _atom_site_hle17_bader_spin_density
 _atom_site_hle17_ddec_charge
 _atom_site_hle17_ddec_spin_density
 _atom_site_hle17_ddec_sum_bond_order
 _atom_site_hle17_magmom
 _atom_site_hse06_10hf_bader_spin_density
 _atom_site_hse06_10hf_ddec_charge
 _atom_site_hse06_10hf_ddec_spin_density
 _atom_site_hse06_10hf_ddec_sum_bond_order
 _atom_site_hse06_10hf_magmom
 _atom_site_hse06_bader_spin_density
 _atom_site_hse06_ddec_charge
 _atom_site_hse06_ddec_spin_density
 _atom_site_hse06_ddec_sum_bond_order
 _atom_site_hse06_magmom
 _atom_site_pbe_bader_spin_density
 _atom_site_pbe_cm5_charge
 _atom_site_pbe_ddec_charge
 _atom_site_pbe_ddec_spin_density
 _atom_site_pbe_ddec_sum_bond_order
 _atom_site_pbe_magmom
Ag  Ag0  1  0.99999909  0.99999854  0.49999914  1  0  0.552621  0  1.36134  0  0  0.414326  0  1.780316  0  0  0.441571  0  1.738619  0  0  0.471041  0.39617  0  1.809106  0
Ag  Ag1  1  0.00000121  0.99999980  0.99999934  1  0  0.529043  0  1.440759  0  0  0.381941  0  1.868592  0  0  0.410711  0  1.826952  0  0  0.492367  0.365257  0  1.895022  0
H  H2  1  0.07748455  0.02186463  0.74364881  1  0  0.392604  0  0.912155  0  0  0.358857  0  0.994709  0  0  0.373692  0  0.980051  0  0  0.281753  0.348384  0  1.004933  0
H  H3  1  0.92251264  0.97813689  0.25634967  1  0  0.392591  0  0.912198  0  0  0.358836  0  0.994769  0  0  0.37367  0  0.980112  0  0  0.281739  0.348361  0  1.004999  0
H  H4  1  0.57611140  0.42972966  0.80616749  1  0  0.089862  0  0.970568  0  0  0.098122  0  1.037618  0  0  0.101239  0  1.035571  0  0  0.097434  0.095933  0  1.038918  0
H  H5  1  0.42388825  0.57027189  0.19383421  1  0  0.089849  0  0.970616  0  0  0.098089  0  1.037689  0  0  0.101204  0  1.035641  0  0  0.09742  0.095901  0  1.038991  0
H  H6  1  0.44299560  0.64660551  0.71059610  1  0  0.084181  0  0.987491  0  0  0.093906  0  1.053019  0  0  0.095872  0  1.053458  0  0  0.094901  0.092517  0  1.052697  0
H  H7  1  0.55700405  0.35339604  0.28940560  1  0  0.084199  0  0.987497  0  0  0.093905  0  1.053039  0  0  0.095872  0  1.053478  0  0  0.094908  0.092508  0  1.052739  0
H  H8  1  0.83528373  0.50844071  0.44332566  1  0  0.085007  0  0.98704  0  0  0.095051  0  1.052924  0  0  0.097232  0  1.053181  0  0  0.09706  0.093592  0  1.052706  0
H  H9  1  0.16471595  0.49155774  0.55667439  1  0  0.084993  0  0.987062  0  0  0.095039  0  1.052944  0  0  0.097219  0  1.0532  0  0  0.097047  0.093578  0  1.052728  0
H  H10  1  0.97210401  0.29632255  0.54303552  1  0  0.095825  0  0.968768  0  0  0.102758  0  1.040319  0  0  0.106936  0  1.035767  0  0  0.101091  0.099666  0  1.043814  0
H  H11  1  0.02789363  0.70367488  0.45696460  1  0  0.095833  0  0.968754  0  0  0.102773  0  1.040293  0  0  0.106948  0  1.035749  0  0  0.101089  0.099678  0  1.043784  0
H  H12  1  0.28881074  0.75597379  0.58541016  1  0  0.070841  0  0.982218  0  0  0.080505  0  1.049979  0  0  0.081883  0  1.048862  0  0  0.111148  0.079527  0  1.050716  0
H  H13  1  0.71118895  0.24402467  0.41459071  1  0  0.070846  0  0.982229  0  0  0.08052  0  1.049974  0  0  0.081893  0  1.048864  0  0  0.11116  0.07954  0  1.050715  0
H  H14  1  0.77677250  0.72383749  0.40827679  1  0  0.094899  0  0.969306  0  0  0.105906  0  1.034089  0  0  0.108441  0  1.031779  0  0  0.10631  0.104013  0  1.035924  0
H  H15  1  0.22322553  0.27616200  0.59172414  1  0  0.094863  0  0.969316  0  0  0.105879  0  1.034093  0  0  0.108413  0  1.031784  0  0  0.106297  0.103985  0  1.035932  0
H  H16  1  0.62024957  0.93025671  0.30760343  1  0  0.109007  0  0.942107  0  0  0.123181  0  0.994947  0  0  0.125871  0  0.994758  0  0  0.109397  0.121232  0  0.995221  0
H  H17  1  0.37974931  0.06974071  0.69239582  1  0  0.109012  0  0.942065  0  0  0.123167  0  0.994926  0  0  0.125859  0  0.994733  0  0  0.109395  0.121216  0  0.9952  0
H  H18  1  0.29696031  0.04517152  0.35268254  1  0  0.09015  0  0.971455  0  0  0.098943  0  1.036186  0  0  0.101365  0  1.034063  0  0  0.114737  0.096994  0  1.038282  0
H  H19  1  0.70303734  0.95482590  0.64731676  1  0  0.090147  0  0.97146  0  0  0.098967  0  1.036162  0  0  0.101392  0  1.034035  0  0  0.114729  0.097017  0  1.038264  0
H  H20  1  0.99297538  0.59645918  0.69573179  1  0  0.099663  0  0.955941  0  0  0.109325  0  1.017958  0  0  0.112418  0  1.016303  0  0  0.103663  0.10709  0  1.019108  0
H  H21  1  0.00702636  0.40354029  0.30426653  1  0  0.099679  0  0.955931  0  0  0.109339  0  1.017955  0  0  0.112433  0  1.016294  0  0  0.103674  0.107103  0  1.019104  0
H  H22  1  0.08221436  0.37283806  0.78800593  1  0  0.09279  0  0.9818  0  0  0.10168  0  1.047464  0  0  0.104058  0  1.047162  0  0  0.099869  0.099565  0  1.048402  0
H  H23  1  0.91778861  0.62716143  0.21199401  1  0  0.092802  0  0.981824  0  0  0.10169  0  1.047482  0  0  0.104071  0  1.047182  0  0  0.099874  0.099571  0  1.048427  0
H  H24  1  0.31947046  0.54579347  0.03625890  1  0  0.091788  0  0.97638  0  0  0.100601  0  1.044132  0  0  0.103453  0  1.043182  0  0  0.100064  0.098557  0  1.044779  0
H  H25  1  0.68052713  0.45421011  0.96374039  1  0  0.091775  0  0.976383  0  0  0.100572  0  1.044158  0  0  0.103423  0  1.043208  0  0  0.100054  0.098531  0  1.044802  0
H  H26  1  0.24623165  0.76173267  0.93595911  1  0  0.093674  0  0.975372  0  0  0.101303  0  1.047487  0  0  0.105351  0  1.042798  0  0  0.099382  0.098479  0  1.050635  0
H  H27  1  0.75377006  0.23826988  0.06404004  1  0  0.09363  0  0.975387  0  0  0.101244  0  1.047545  0  0  0.10527  0  1.04288  0  0  0.09932  0.098414  0  1.050691  0
H  H28  1  0.05420312  0.24292687  0.90785623  1  0  0.078013  0  0.984839  0  0  0.087081  0  1.052565  0  0  0.089014  0  1.050887  0  0  0.113808  0.085613  0  1.053946  0
H  H29  1  0.94579900  0.75707468  0.09214456  1  0  0.078017  0  0.984824  0  0  0.087094  0  1.052535  0  0  0.089021  0  1.050861  0  0  0.113826  0.085628  0  1.053916  0
H  H30  1  0.46290461  0.33821363  0.07048848  1  0  0.090497  0  0.976082  0  0  0.103063  0  1.038388  0  0  0.104769  0  1.037762  0  0  0.105855  0.101715  0  1.038996  0
H  H31  1  0.53709586  0.66178894  0.92951237  1  0  0.090423  0  0.976138  0  0  0.103027  0  1.038405  0  0  0.104732  0  1.037781  0  0  0.105833  0.101682  0  1.039015  0
H  H32  1  0.51872947  0.11868091  0.16878843  1  0  0.110012  0  0.942643  0  0  0.122135  0  0.99903  0  0  0.125339  0  0.998063  0  0  0.109694  0.119758  0  0.999983  0
H  H33  1  0.48126895  0.88132063  0.83121248  1  0  0.110021  0  0.942647  0  0  0.12216  0  0.999018  0  0  0.125364  0  0.998049  0  0  0.109692  0.119787  0  0.99997  0
H  H34  1  0.33007543  0.96976022  0.13256769  1  0  0.095199  0  0.953077  0  0  0.103259  0  1.018188  0  0  0.105887  0  1.01601  0  0  0.117571  0.10117  0  1.020038  0
H  H35  1  0.66992712  0.03024028  0.86743143  1  0  0.095169  0  0.953147  0  0  0.103292  0  1.018187  0  0  0.105923  0  1.016009  0  0  0.11758  0.1012  0  1.02003  0
C  C36  1  0.86969265  0.22220166  0.74616897  1  0  0.630114  0  3.910949  0  0  0.580859  0  4.211765  0  0  0.614515  0  4.203977  0  0  0.200566  0.55798  0  4.216802  0
C  C37  1  0.13030662  0.77779782  0.25383109  1  0  0.630158  0  3.910933  0  0  0.580912  0  4.211728  0  0  0.614565  0  4.203943  0  0  0.200575  0.558035  0  4.216763  0
C  C38  1  0.78709229  0.35089164  0.68375118  1  0  -0.071921  0  3.755019  0  0  -0.04729  0  3.983389  0  0  -0.056346  0  4.008494  0  0  -0.022682  -0.041886  0  3.966814  0
C  C39  1  0.21290698  0.64910785  0.31624888  1  0  -0.071898  0  3.754997  0  0  -0.047252  0  3.983334  0  0  -0.056303  0  4.008437  0  0  -0.022657  -0.041854  0  3.96676  0
C  C40  1  0.63484681  0.44977940  0.72782101  1  0  -0.064952  0  3.745099  0  0  -0.086863  0  3.989655  0  0  -0.086338  0  4.010873  0  0  -0.086115  -0.086657  0  3.974745  0
C  C41  1  0.36515245  0.55022009  0.27217988  1  0  -0.064997  0  3.745132  0  0  -0.086902  0  3.98969  0  0  -0.086375  0  4.010904  0  0  -0.086133  -0.086697  0  3.97478  0
C  C42  1  0.55876465  0.57057748  0.67248916  1  0  -0.115139  0  3.734225  0  0  -0.131607  0  3.979497  0  0  -0.136377  0  4.002027  0  0  -0.091345  -0.128139  0  3.963886  0
C  C43  1  0.44123542  0.42942305  0.32751335  1  0  -0.115174  0  3.734138  0  0  -0.131613  0  3.979415  0  0  -0.136383  0  4.001944  0  0  -0.091339  -0.128141  0  3.963795  0
C  C44  1  0.62974715  0.59555474  0.56938123  1  0  0.065903  0  3.779496  0  0  0.077263  0  4.007244  0  0  0.079898  0  4.031027  0  0  -0.004266  0.075677  0  3.991411  0
C  C45  1  0.37025129  0.40444374  0.43062051  1  0  0.066052  0  3.779324  0  0  0.077391  0  4.00712  0  0  0.080027  0  4.030904  0  0  -0.004247  0.075799  0  3.991292  0
C  C46  1  0.78044738  0.49459580  0.52460427  1  0  -0.112815  0  3.727575  0  0  -0.128426  0  3.973445  0  0  -0.133416  0  3.995846  0  0  -0.089986  -0.125372  0  3.958588  0
C  C47  1  0.21954984  0.50540266  0.47539587  1  0  -0.11291  0  3.727646  0  0  -0.128515  0  3.973523  0  0  -0.133504  0  3.995923  0  0  -0.09001  -0.12546  0  3.958665  0
C  C48  1  0.85824880  0.37486263  0.58083023  1  0  -0.077433  0  3.753656  0  0  -0.101886  0  4.006453  0  0  -0.101314  0  4.026434  0  0  -0.087798  -0.101982  0  3.993246  0
C  C49  1  0.14175047  0.62513685  0.41916984  1  0  -0.077426  0  3.753719  0  0  -0.101881  0  4.006506  0  0  -0.101312  0  4.026484  0  0  -0.087786  -0.101967  0  3.993284  0
C  C50  1  0.36819245  0.79271087  0.52633080  1  0  0.079111  0  3.68574  0  0  0.04245  0  3.928373  0  0  0.049265  0  3.947664  0  0  0.045754  0.037873  0  3.915543  0
C  C51  1  0.63180601  0.20728758  0.47366846  1  0  0.079095  0  3.685724  0  0  0.042445  0  3.928403  0  0  0.049273  0  3.947672  0  0  0.045728  0.037875  0  3.915566  0
C  C52  1  0.54654015  0.72095020  0.50775303  1  0  0.001554  0  3.769238  0  0  0.024143  0  3.994007  0  0  0.01865  0  4.018972  0  0  -0.000826  0.027423  0  3.977465  0
C  C53  1  0.45345827  0.27905135  0.49224872  1  0  0.001484  0  3.769163  0  0  0.024057  0  3.993986  0  0  0.01856  0  4.018955  0  0  -0.000852  0.027333  0  3.977446  0
C  C54  1  0.63753768  0.77239836  0.42658169  1  0  -0.043466  0  3.680109  0  0  -0.068131  0  3.922918  0  0  -0.065142  0  3.941156  0  0  -0.062932  -0.069198  0  3.910166  0
C  C55  1  0.36246159  0.22760113  0.57341920  1  0  -0.043401  0  3.680069  0  0  -0.068065  0  3.922874  0  0  -0.065077  0  3.941114  0  0  -0.062913  -0.069127  0  3.910118  0
C  C56  1  0.54983736  0.88899690  0.36966415  1  0  -0.105964  0  3.740053  0  0  -0.118596  0  3.990925  0  0  -0.125597  0  4.013159  0  0  -0.082411  -0.113913  0  3.975781  0
C  C57  1  0.45016110  0.11100155  0.63033512  1  0  -0.105958  0  3.740051  0  0  -0.118565  0  3.990925  0  0  -0.125567  0  4.013161  0  0  -0.082396  -0.113883  0  3.975776  0
C  C58  1  0.37270914  0.95366079  0.39441972  1  0  0.110192  0  3.694202  0  0  0.076594  0  3.943775  0  0  0.083286  0  3.963335  0  0  0.040969  0.071589  0  3.931364  0
C  C59  1  0.62728974  0.04633662  0.60557870  1  0  0.110185  0  3.694072  0  0  0.076579  0  3.943657  0  0  0.083271  0  3.963218  0  0  0.040996  0.07158  0  3.931246  0
C  C60  1  0.06968837  0.82285774  0.74569719  1  0  0.635977  0  3.882164  0  0  0.583492  0  4.184215  0  0  0.617382  0  4.175694  0  0  0.210407  0.560398  0  4.189477  0
C  C61  1  0.93031255  0.17714071  0.25430199  1  0  0.636032  0  3.882077  0  0  0.583549  0  4.184123  0  0  0.61744  0  4.1756  0  0  0.210444  0.560461  0  4.189373  0
C  C62  1  0.12068539  0.69135309  0.80654698  1  0  -0.084767  0  3.782874  0  0  -0.05977  0  4.012655  0  0  -0.069489  0  4.037363  0  0  -0.024126  -0.053799  0  3.996615  0
C  C63  1  0.87931716  0.30864742  0.19345296  1  0  -0.08481  0  3.782921  0  0  -0.059813  0  4.012704  0  0  -0.069533  0  4.037406  0  0  -0.02416  -0.05384  0  3.996656  0
C  C64  1  0.07047722  0.58181961  0.76821472  1  0  -0.05418  0  3.729987  0  0  -0.077941  0  3.976574  0  0  -0.076504  0  3.996729  0  0  -0.080778  -0.078479  0  3.962948  0
C  C65  1  0.92952575  0.41817987  0.23178521  1  0  -0.054227  0  3.730057  0  0  -0.077993  0  3.97664  0  0  -0.076555  0  3.996796  0  0  -0.080815  -0.078533  0  3.963012  0
C  C66  1  0.11777616  0.45757594  0.82208843  1  0  -0.111886  0  3.711454  0  0  -0.1302  0  3.960122  0  0  -0.135119  0  3.981991  0  0  -0.087628  -0.12715  0  3.945942  0
C  C67  1  0.88222639  0.54242457  0.17791152  1  0  -0.111915  0  3.711473  0  0  -0.130217  0  3.960141  0  0  -0.135141  0  3.982015  0  0  -0.087625  -0.127164  0  3.94596  0
C  C68  1  0.21098128  0.44032889  0.91872392  1  0  0.069837  0  3.770957  0  0  0.080682  0  4.000368  0  0  0.083703  0  4.024091  0  0  -0.001565  0.078781  0  3.984136  0
C  C69  1  0.78902003  0.55967163  0.08127689  1  0  0.069841  0  3.77093  0  0  0.080655  0  4.000367  0  0  0.083674  0  4.024094  0  0  -0.001594  0.078746  0  3.984145  0
C  C70  1  0.25587490  0.55228649  0.95861869  1  0  -0.115453  0  3.719738  0  0  -0.133202  0  3.970311  0  0  -0.138347  0  3.991703  0  0  -0.088614  -0.12942  0  3.955458  0
C  C71  1  0.74412599  0.44771504  0.04138131  1  0  -0.115478  0  3.719712  0  0  -0.133205  0  3.970291  0  0  -0.138345  0  3.991669  0  0  -0.088581  -0.129427  0  3.955442  0
C  C72  1  0.21327923  0.67526510  0.90265164  1  0  -0.073405  0  3.76363  0  0  -0.096881  0  4.012266  0  0  -0.095659  0  4.031745  0  0  -0.086183  -0.097996  0  3.999547  0
C  C73  1  0.78672332  0.32473540  0.09734748  1  0  -0.073259  0  3.763549  0  0  -0.096723  0  4.012157  0  0  -0.095485  0  4.031656  0  0  -0.086096  -0.097828  0  3.999423  0
C  C74  1  0.16038766  0.21966611  0.96332174  1  0  0.082136  0  3.670911  0  0  0.045313  0  3.90727  0  0  0.052577  0  3.925774  0  0  0.046584  0.040801  0  3.894791  0
C  C75  1  0.83961365  0.78033440  0.03667826  1  0  0.082014  0  3.671031  0  0  0.045194  0  3.907367  0  0  0.052475  0  3.925844  0  0  0.046507  0.040681  0  3.894888  0
C  C76  1  0.25432603  0.31034591  0.97866482  1  0  0.005522  0  3.768093  0  0  0.027749  0  3.992453  0  0  0.022297  0  4.016848  0  0  0.000198  0.030992  0  3.976047  0
C  C77  1  0.74567363  0.68965563  0.02133605  1  0  0.005598  0  3.768087  0  0  0.027848  0  3.992428  0  0  0.022393  0  4.016828  0  0  0.000219  0.031097  0  3.976026  0
C  C78  1  0.38474319  0.27237342  0.05507999  1  0  -0.040268  0  3.67811  0  0  -0.063465  0  3.91588  0  0  -0.060374  0  3.935124  0  0  -0.061176  -0.065327  0  3.902931  0
C  C79  1  0.61525894  0.72762812  0.94491997  1  0  -0.04015  0  3.678102  0  0  -0.063397  0  3.915878  0  0  -0.060303  0  3.935117  0  0  -0.061131  -0.065269  0  3.902949  0
C  C80  1  0.41562573  0.14969465  0.11080681  1  0  -0.109483  0  3.729737  0  0  -0.121019  0  3.980561  0  0  -0.128412  0  4.002299  0  0  -0.081501  -0.116224  0  3.965984  0
C  C81  1  0.58437393  0.85030689  0.88919323  1  0  -0.109574  0  3.729722  0  0  -0.121132  0  3.980589  0  0  -0.128524  0  4.002328  0  0  -0.081555  -0.116338  0  3.96602  0
C  C82  1  0.31459894  0.06626056  0.09081911  1  0  0.115387  0  3.68265  0  0  0.079956  0  3.932905  0  0  0.087284  0  3.95197  0  0  0.045109  0.075239  0  3.919959  0
C  C83  1  0.68540113  0.93373995  0.90918175  1  0  0.115376  0  3.682662  0  0  0.0799  0  3.932899  0  0  0.087222  0  3.951972  0  0  0.045102  0.07519  0  3.919944  0
N  N84  1  0.28319015  0.90567429  0.47202723  1  0  -0.288442  0  3.33697  0  0  -0.201025  0  3.61276  0  0  -0.220614  0  3.631084  0  0  -0.341664  -0.187754  0  3.600488  0
N  N85  1  0.71680954  0.09432416  0.52797117  1  0  -0.288404  0  3.336766  0  0  -0.201047  0  3.612624  0  0  -0.220638  0  3.630949  0  0  -0.341676  -0.187778  0  3.600354  0
N  N86  1  0.18859478  0.10198053  0.01794805  1  0  -0.288619  0  3.375473  0  0  -0.196091  0  3.650923  0  0  -0.216257  0  3.669235  0  0  -0.35282  -0.182999  0  3.638218  0
N  N87  1  0.81140654  0.89801997  0.98205111  1  0  -0.288491  0  3.375545  0  0  -0.195964  0  3.650959  0  0  -0.216133  0  3.669277  0  0  -0.352748  -0.182869  0  3.638247  0
O  O88  1  0.02028918  0.14425815  0.70370535  1  0  -0.635573  0  2.059888  0  0  -0.580417  0  2.310056  0  0  -0.60584  0  2.296676  0  0  -0.332778  -0.562645  0  2.319175  0
O  O89  1  0.97970847  0.85573926  0.29629312  1  0  -0.635595  0  2.05989  0  0  -0.58047  0  2.310105  0  0  -0.605893  0  2.296731  0  0  -0.332785  -0.562695  0  2.319221  0
O  O90  1  0.79517894  0.19866485  0.83341455  1  0  -0.614717  0  1.913537  0  0  -0.56845  0  2.147218  0  0  -0.590435  0  2.137256  0  0  -0.325714  -0.55338  0  2.15367  0
O  O91  1  0.20482195  0.80133669  0.16658628  1  0  -0.614731  0  1.913483  0  0  -0.568451  0  2.147141  0  0  -0.590431  0  2.137171  0  0  -0.325707  -0.553383  0  2.153598  0
O  O92  1  0.96990949  0.83887489  0.66853549  1  0  -0.58766  0  1.984237  0  0  -0.539336  0  2.230374  0  0  -0.560695  0  2.218921  0  0  -0.306906  -0.524417  0  2.23783  0
O  O93  1  0.03009101  0.16112459  0.33146453  1  0  -0.587668  0  1.98422  0  0  -0.539326  0  2.230334  0  0  -0.560686  0  2.21888  0  0  -0.306899  -0.524412  0  2.237788  0
O  O94  1  0.13881968  0.91457122  0.77919424  1  0  -0.604424  0  2.115179  0  0  -0.551707  0  2.364859  0  0  -0.575542  0  2.348706  0  0  -0.335201  -0.534527  0  2.375044  0
O  O95  1  0.86118125  0.08542723  0.22080494  1  0  -0.604454  0  2.115209  0  0  -0.551734  0  2.364888  0  0  -0.575566  0  2.34873  0  0  -0.335223  -0.534555  0  2.375068  0
