# generated using pymatgen
data_CoH35C44(N2O)5
_symmetry_space_group_name_H-M   'P 1'
_cell_length_a   9.47575657
_cell_length_b   11.44021063
_cell_length_c   18.06115653
_cell_angle_alpha   99.42960266
_cell_angle_beta   94.95723212
_cell_angle_gamma   101.46967974
_symmetry_Int_Tables_number   1
_chemical_formula_structural   CoH35C44(N2O)5
_chemical_formula_sum   'Co2 H70 C88 N20 O10'
_cell_volume   1878.49456098
_cell_formula_units_Z   2
loop_
 _symmetry_equiv_pos_site_id
 _symmetry_equiv_pos_as_xyz
  1  'x, y, z'
loop_
 _atom_site_type_symbol
 _atom_site_label
 _atom_site_symmetry_multiplicity
 _atom_site_fract_x
 _atom_site_fract_y
 _atom_site_fract_z
 _atom_site_occupancy
 _atom_site_pbe_bader_charge
 _atom_site_pbe_bader_spin_density
 _atom_site_pbe_cm5_charge
 _atom_site_pbe_ddec_charge
 _atom_site_pbe_ddec_spin_density
 _atom_site_pbe_ddec_sum_bond_order
 _atom_site_pbe_magmom
Co  Co0  1  0.02656873  0.01793949  0.26441922  1  1.278153  2.620702  0.66486  0.847232  2.8319  2.505187  2.602
Co  Co1  1  0.97168071  0.98421848  0.73662693  1  1.2685  2.612398  0.658075  0.834484  2.822674  2.502769  2.594
H  H2  1  0.09241320  0.83397462  0.44793769  1  0.105882  0.00022  0.096179  0.093393  8.3e-05  1.034889  0.0
H  H3  1  0.90764777  0.16630919  0.55173452  1  0.110445  0.000126  0.09629  0.093878  3.2e-05  1.03487  0.0
H  H4  1  0.08268265  0.71042630  0.54689336  1  0.076409  -2.8e-05  0.095081  0.094172  -4.9e-05  1.0481  0.0
H  H5  1  0.91703381  0.29007272  0.45283124  1  0.070374  -2.1e-05  0.094472  0.092718  -6.6e-05  1.049644  0.0
H  H6  1  0.93942709  0.38685611  0.37486801  1  0.080675  0.000118  0.095766  0.092225  2.6e-05  1.051147  0.0
H  H7  1  0.06061339  0.61342166  0.62508496  1  0.078362  0.000124  0.09611  0.092629  1.5e-05  1.05008  0.0
H  H8  1  0.95086011  0.51439986  0.27723787  1  0.078761  3e-06  0.101301  0.101999  -3.2e-05  1.024005  0.0
H  H9  1  0.04882215  0.48561477  0.72258768  1  0.07922  4e-05  0.101328  0.102091  1e-06  1.023401  0.0
H  H10  1  0.02858956  0.37432708  0.19601197  1  0.049714  0.00038  0.104416  0.109943  0.000183  1.008767  0.0
H  H11  1  0.97186472  0.62526641  0.80393037  1  0.049345  0.000292  0.104567  0.10995  0.00012  1.009654  0.0
H  H12  1  0.02389987  0.55021386  0.13466040  1  0.111245  3.1e-05  0.099668  0.108645  2.4e-05  1.059016  0.0
H  H13  1  0.97548062  0.44943646  0.86551564  1  0.108529  2.5e-05  0.099448  0.108035  2.3e-05  1.058625  0.0
H  H14  1  0.99180685  0.31689657  0.91599942  1  0.06654  0.000279  0.103015  0.106952  0.000127  1.033816  0.0
H  H15  1  0.00805124  0.68351063  0.08398011  1  0.069429  0.000333  0.103522  0.108681  0.000137  1.032137  0.0
H  H16  1  0.98962251  0.14236993  0.98016468  1  0.117608  0.00012  0.104662  0.109733  4.3e-05  1.05073  0.0
H  H17  1  0.01032995  0.85778512  0.01952429  1  0.140472  5.6e-05  0.104618  0.109575  -2.5e-05  1.051157  0.0
H  H18  1  0.80097546  0.92709505  0.38327218  1  0.144306  0.000368  0.134432  0.102307  -0.000107  1.018226  0.0
H  H19  1  0.19638502  0.07154301  0.61653779  1  0.147691  0.000356  0.133547  0.102075  -0.000138  1.019332  0.0
H  H20  1  0.80542308  0.20817924  0.25908172  1  0.149151  0.000647  0.116924  0.113638  0.000115  1.022794  0.001
H  H21  1  0.19312985  0.79051138  0.74059423  1  0.130488  0.000614  0.116274  0.113072  6.7e-05  1.023828  0.001
H  H22  1  0.58864911  0.21244043  0.35391361  1  0.123745  0.000828  0.122325  0.121988  0.000319  1.041544  0.0
H  H23  1  0.41135785  0.78803277  0.64643556  1  0.126195  0.000719  0.12154  0.121395  0.000253  1.043437  0.0
H  H24  1  0.63136213  0.21435602  0.50894901  1  0.101682  -1.1e-05  0.112728  0.127086  -2.1e-05  0.992521  0.0
H  H25  1  0.36803666  0.78552464  0.49139077  1  0.098623  -1.2e-05  0.113096  0.127412  -2.5e-05  0.992733  0.0
H  H26  1  0.51327514  0.84266002  0.38992510  1  0.09282  5.2e-05  0.106768  0.113066  2.4e-05  1.05187  0.0
H  H27  1  0.48598993  0.15716028  0.61034702  1  0.134301  5.6e-05  0.10669  0.113036  2.4e-05  1.052121  0.0
H  H28  1  0.28702542  0.27899053  0.31790787  1  0.197709  0.00043  0.137209  0.109538  -8.2e-05  1.034606  0.0
H  H29  1  0.71606088  0.71975041  0.68190476  1  0.188124  0.000363  0.13603  0.108315  -0.00016  1.034336  0.0
H  H30  1  0.07207597  0.02799722  0.44017811  1  0.100819  0.000749  0.11584  0.107821  0.000163  1.03609  0.001
H  H31  1  0.93033651  0.97140902  0.55990666  1  0.140457  0.000546  0.114713  0.105557  -3.3e-05  1.039359  0.001
H  H32  1  0.23790932  0.22641909  0.54232347  1  0.062344  0.000779  0.117027  0.110612  0.000307  1.052788  0.0
H  H33  1  0.76150445  0.77452616  0.45768880  1  0.058577  0.000777  0.11675  0.109076  0.000315  1.055388  0.0
H  H34  1  0.51206768  0.38400067  0.37265259  1  0.092575  6.7e-05  0.108448  0.111858  3.5e-05  1.066101  0.0
H  H35  1  0.48827139  0.61646801  0.62729776  1  0.119012  2.4e-05  0.108573  0.112441  -1.6e-05  1.06555  0.0
H  H36  1  0.29329142  0.43666372  0.57077382  1  0.068328  4.4e-05  0.106042  0.108107  2.3e-05  1.029367  0.0
H  H37  1  0.70705012  0.56376034  0.42921578  1  0.07027  2.2e-05  0.105818  0.107992  1e-06  1.029153  0.0
H  H38  1  0.16794255  0.01635032  0.10483633  1  0.165804  0.000255  0.132889  0.094748  -0.000269  1.076496  0.0
H  H39  1  0.83264386  0.98547824  0.89570450  1  0.181337  0.000352  0.134107  0.096639  -0.000136  1.072923  0.0
H  H40  1  0.33835811  0.93271873  0.30739682  1  0.10837  0.000715  0.116372  0.113421  9.9e-05  1.009373  0.0
H  H41  1  0.66165391  0.06914123  0.69319592  1  0.11226  0.000727  0.117512  0.114444  0.000131  1.007483  0.0
H  H42  1  0.54364302  0.92792084  0.20673186  1  0.107439  0.000762  0.123926  0.129092  0.000269  1.015472  0.0
H  H43  1  0.45532028  0.07103511  0.79324483  1  0.116652  0.00074  0.125147  0.131189  0.000269  1.013865  0.0
H  H44  1  0.23562860  0.98722561  0.00011397  1  0.124058  -8e-06  0.106912  0.120477  -1.6e-05  1.056759  0.0
H  H45  1  0.76394703  0.01276966  0.00018032  1  0.13063  1.3e-05  0.106421  0.119913  1.2e-05  1.057059  0.0
H  H46  1  0.65845563  0.98967706  0.11485264  1  0.101105  0.000162  0.111567  0.127306  2.8e-05  0.99727  0.0
H  H47  1  0.34092661  0.01001421  0.88529173  1  0.100294  0.000144  0.111568  0.12703  3e-05  0.997666  0.0
H  H48  1  0.93681292  0.81600277  0.18112045  1  0.627009  0.000331  0.280014  0.360618  0.000523  0.996232  0.001
H  H49  1  0.06101828  0.18390537  0.82015209  1  0.619444  -0.000314  0.279714  0.35849  -0.0005  0.997861  0.0
H  H50  1  0.91190973  0.92334148  0.13247656  1  0.641546  -5.4e-05  0.281114  0.365885  -2.3e-05  0.987034  0.0
H  H51  1  0.08914094  0.07499679  0.86740114  1  0.643267  0.000184  0.282309  0.36789  0.000176  0.985354  0.001
H  H52  1  0.68301663  0.75097613  0.85758252  1  0.123258  -5.3e-05  0.126272  0.09087  -9.2e-05  1.022905  0.0
H  H53  1  0.31699480  0.24896047  0.14260996  1  0.125352  -0.000143  0.126499  0.091496  -0.000215  1.02312  0.0
H  H54  1  0.31378971  0.58516702  0.70089822  1  0.088421  -5e-06  0.107866  0.094958  0.0  1.035443  0.0
H  H55  1  0.68636592  0.41508398  0.29910526  1  0.066027  -7e-06  0.107711  0.094673  -8e-06  1.03569  0.0
H  H56  1  0.24842790  0.55720341  0.84396224  1  0.126394  -1e-05  0.117061  0.116273  -2.3e-05  1.042826  0.0
H  H57  1  0.75156243  0.44285368  0.15600803  1  0.127671  -1.2e-05  0.117166  0.116403  -2.5e-05  1.043259  0.0
H  H58  1  0.70315477  0.63819137  0.96422666  1  0.106227  -4e-06  0.103385  0.109598  -1.2e-05  1.028692  0.0
H  H59  1  0.29681195  0.36177118  0.03579412  1  0.106016  -9e-06  0.103504  0.109806  -1.9e-05  1.028833  0.0
H  H60  1  0.71718622  0.64146050  0.10199596  1  0.087027  0.000404  0.109446  0.118701  0.000207  1.004722  0.0
H  H61  1  0.28282856  0.35857639  0.89803986  1  0.087393  0.000439  0.109325  0.118518  0.000228  1.004794  0.0
H  H62  1  0.27789719  0.69134889  0.09927937  1  0.062092  -5e-06  0.106897  0.113704  -2e-05  1.017226  0.0
H  H63  1  0.72211699  0.30872615  0.90076259  1  0.061745  -7e-06  0.106803  0.113613  -2.2e-05  1.017547  0.0
H  H64  1  0.26496286  0.69127693  0.96179620  1  0.076175  -3e-06  0.101931  0.10644  -1.3e-05  1.048865  0.0
H  H65  1  0.73501735  0.30870466  0.03822610  1  0.077032  -9e-06  0.102118  0.106685  -2.3e-05  1.048746  0.0
H  H66  1  0.28375332  0.57410070  0.19780027  1  0.142802  -1.2e-05  0.125795  0.092305  -2.1e-05  1.016858  0.0
H  H67  1  0.71614217  0.42595656  0.80220742  1  0.143804  -6e-06  0.125743  0.09231  -1.2e-05  1.01683  0.0
H  H68  1  0.72763614  0.75079367  0.22425499  1  0.181245  0.00013  0.119789  0.135717  -9e-05  1.054057  0.0
H  H69  1  0.27227416  0.24906001  0.77576889  1  0.18034  0.000214  0.119446  0.135678  3.2e-05  1.054114  0.0
H  H70  1  0.64794908  0.69966528  0.36173966  1  0.04194  6.6e-05  0.098684  0.076636  3.3e-05  1.074409  0.0
H  H71  1  0.35197661  0.30016567  0.63827099  1  0.04206  7e-05  0.098619  0.076592  3.8e-05  1.074176  0.0
C  C72  1  0.01382492  0.76053169  0.29646179  1  1.566466  -0.002672  0.205717  0.574222  -0.003685  4.192817  -0.001
C  C73  1  0.98586539  0.23898424  0.70291938  1  1.570635  0.001485  0.207397  0.575401  0.000574  4.189815  0.001
C  C74  1  0.02001655  0.68282728  0.35582340  1  -0.004518  0.005331  -0.02156  -0.037292  0.00265  3.971993  0.004
C  C75  1  0.97980843  0.31730996  0.64385246  1  -0.004639  0.004188  -0.021611  -0.037144  0.00214  3.970025  0.003
C  C76  1  0.05915612  0.73553878  0.43236045  1  -0.075065  -0.000888  -0.090401  -0.097686  -0.001122  4.01671  -0.001
C  C77  1  0.94066040  0.26471755  0.56729356  1  -0.070783  0.000796  -0.091177  -0.099717  0.000383  4.020033  0.0
C  C78  1  0.05336780  0.66476919  0.48814811  1  -0.030485  0.000464  -0.096091  -0.137151  0.000165  3.98542  0.0
C  C79  1  0.94637030  0.33561704  0.51160850  1  -0.034328  -0.000547  -0.096221  -0.136092  -0.000648  3.987974  0.0
C  C80  1  0.00701902  0.53753373  0.47000670  1  -0.072847  -0.00173  -0.007916  0.068843  -0.001917  3.979707  -0.001
C  C81  1  0.99294719  0.46282624  0.52984204  1  -0.133279  0.000774  -0.00834  0.067532  0.000352  3.9792  0.001
C  C82  1  0.97312481  0.48497723  0.39248634  1  -0.054057  0.001013  -0.094706  -0.136404  0.000458  3.969518  0.001
C  C83  1  0.02672516  0.51531844  0.60740704  1  -0.030978  -0.000273  -0.093926  -0.135341  -0.0004  3.965825  0.0
C  C84  1  0.97952342  0.55603760  0.33675998  1  -0.064275  -0.000432  -0.086594  -0.090225  -0.000835  3.983399  0.0
C  C85  1  0.02017531  0.44406607  0.66304239  1  -0.063333  0.001499  -0.085622  -0.088606  0.000708  3.98241  0.001
C  C86  1  0.99156166  0.13641690  0.12794113  1  1.564167  -0.004712  0.204707  0.554892  -0.006076  4.207924  -0.003
C  C87  1  0.01053288  0.86286953  0.87126454  1  1.588014  -0.001425  0.206049  0.554228  -0.002177  4.207504  -0.001
C  C88  1  0.00315799  0.24632417  0.09184306  1  -0.029706  0.00453  -0.024728  -0.049174  0.002187  4.001427  0.004
C  C89  1  0.99717348  0.75340537  0.90793844  1  -0.042416  0.003501  -0.025419  -0.050547  0.001765  4.001693  0.003
C  C90  1  0.01831668  0.36293069  0.13450230  1  -0.046191  -0.001631  -0.088207  -0.103184  -0.001903  4.006243  -0.001
C  C91  1  0.98170258  0.63667582  0.86541386  1  -0.042009  -0.000171  -0.088371  -0.10283  -0.000372  4.007444  0.0
C  C92  1  0.01726025  0.46207652  0.09899499  1  -0.107801  0.000146  -0.096433  -0.154722  -9.5e-05  3.976264  0.0
C  C93  1  0.98220070  0.53767194  0.90107724  1  -0.107368  -0.000656  -0.096078  -0.154828  -0.000752  3.977109  0.0
C  C94  1  0.00392884  0.44826936  0.01931030  1  0.03129  -0.002744  -0.006716  0.066177  -0.003063  3.979229  -0.002
C  C95  1  0.99582927  0.55182171  0.98077441  1  -0.008465  -0.000839  -0.005847  0.06912  -0.000959  3.977436  0.0
C  C96  1  0.99744580  0.33153983  0.97742661  1  -0.059814  0.001006  -0.09046  -0.127811  0.000445  3.951291  0.001
C  C97  1  0.00221473  0.66866443  0.02253379  1  -0.061838  0.000134  -0.090799  -0.12996  -3.6e-05  3.948373  0.0
C  C98  1  0.99564944  0.23240488  0.01290393  1  -0.068594  -0.001218  -0.087047  -0.095771  -0.001531  3.972574  -0.001
C  C99  1  0.00421626  0.76765117  0.98686907  1  -0.087502  9.2e-05  -0.086732  -0.094182  -0.00023  3.970931  0.0
C  C100  1  0.77403403  0.00376959  0.36164891  1  0.959393  -0.004463  0.142187  0.096544  -0.00581  3.900149  -0.003
C  C101  1  0.22401194  0.99514359  0.63823330  1  0.947471  -0.004597  0.141479  0.094986  -0.005797  3.900585  -0.003
C  C102  1  0.77370712  0.15180429  0.30010166  1  0.373991  0.000414  -0.000554  -0.034119  -0.000135  3.999756  0.0
C  C103  1  0.22497898  0.84721535  0.69975667  1  0.388729  -0.000976  -0.000314  -0.031121  -0.001683  3.995495  -0.001
C  C104  1  0.66801680  0.15651144  0.34737283  1  0.308835  0.002555  0.001081  -0.106689  0.001255  3.930207  0.002
C  C105  1  0.33129069  0.84329535  0.65279699  1  0.303803  0.003088  -0.000568  -0.110952  0.001584  3.932194  0.002
C  C106  1  0.58121446  0.03146846  0.44347552  1  0.327956  0.000374  0.093885  0.155571  0.000135  4.017081  0.0
C  C107  1  0.41791336  0.96840860  0.55677024  1  0.287928  0.000697  0.095519  0.158418  0.000333  4.013905  0.001
C  C108  1  0.57198795  0.12102675  0.50445779  1  0.009777  9.6e-05  -0.080824  -0.133836  -1.1e-05  3.951616  0.0
C  C109  1  0.42720765  0.87888558  0.49577781  1  0.00658  -0.000167  -0.081306  -0.134669  -0.000262  3.953257  0.0
C  C110  1  0.50875208  0.91097006  0.43885595  1  -0.033806  0.000338  -0.084325  -0.150111  0.000153  3.984871  0.0
C  C111  1  0.49040102  0.08890151  0.56137388  1  -0.044935  1.6e-05  -0.084772  -0.151268  -7.1e-05  3.982447  0.0
C  C112  1  0.24737162  0.23721021  0.36419894  1  0.948261  -0.000806  0.150082  0.115628  -0.001688  3.837911  0.0
C  C113  1  0.75516727  0.76206432  0.63572947  1  0.920392  -0.008354  0.146251  0.110082  -0.010016  3.843729  -0.005
C  C114  1  0.14022730  0.11066445  0.43062465  1  0.395855  -0.000321  -0.006217  -0.039088  -0.001138  4.01829  0.0
C  C115  1  0.86181340  0.88891087  0.56945489  1  0.377199  -0.001576  -0.006345  -0.037605  -0.002467  4.019988  -0.001
C  C116  1  0.22215722  0.20723643  0.48131527  1  0.356713  0.004286  -0.002438  -0.102919  0.002276  3.958646  0.003
C  C117  1  0.77840530  0.79306983  0.51868354  1  0.328798  0.003039  -0.004467  -0.106148  0.001445  3.964456  0.002
C  C118  1  0.39400599  0.39679534  0.46918952  1  0.304055  -8.1e-05  0.095659  0.164247  -0.000321  4.006619  0.0
C  C119  1  0.60622561  0.60376097  0.53070537  1  0.325282  0.00059  0.096914  0.165731  0.000239  4.00463  0.001
C  C120  1  0.50849739  0.43456557  0.42875814  1  0.010348  -4e-06  -0.0841  -0.146796  -8.8e-05  3.971382  0.0
C  C121  1  0.49178022  0.56593421  0.57117303  1  -0.025624  -0.000714  -0.084526  -0.147614  -0.000806  3.967843  0.0
C  C122  1  0.38495667  0.46319838  0.54017631  1  0.009595  0.000349  -0.084055  -0.135537  0.000146  3.963767  0.0
C  C123  1  0.61523932  0.53729622  0.45973313  1  0.021749  -0.000235  -0.083922  -0.135859  -0.000344  3.964813  0.0
C  C124  1  0.24149183  0.99435386  0.14694242  1  0.937081  -0.003575  0.135806  0.089554  -0.004552  3.914553  -0.002
C  C125  1  0.75888731  0.00754225  0.85370150  1  0.929583  -0.001649  0.136416  0.08811  -0.002374  3.913354  -0.001
C  C126  1  0.33424159  0.95045445  0.25018989  1  0.404509  -0.000396  0.000287  -0.015163  -0.001116  3.981194  0.0
C  C127  1  0.66594716  0.05126160  0.75035622  1  0.409724  0.000171  0.000888  -0.01484  -0.000488  3.980571  0.0
C  C128  1  0.43672743  0.94787172  0.20095105  1  0.309408  0.003102  -0.00133  -0.104259  0.001693  3.902185  0.002
C  C129  1  0.56289483  0.05241646  0.79930629  1  0.304599  0.003238  -0.000454  -0.104411  0.001759  3.901464  0.002
C  C130  1  0.43927077  0.98767510  0.06712121  1  0.243518  0.000589  0.091991  0.158934  0.000291  4.028793  0.001
C  C131  1  0.56022349  0.01216845  0.93304722  1  0.251595  0.00025  0.091327  0.155912  3.2e-05  4.028984  0.0
C  C132  1  0.35210822  0.99399013  0.00182856  1  0.040852  -0.000475  -0.093626  -0.161707  -0.000527  3.978022  0.0
C  C133  1  0.64740018  0.00580980  0.99832332  1  0.028309  -9e-05  -0.093388  -0.160294  -0.000149  3.978897  0.0
C  C134  1  0.58746728  0.99365805  0.06499786  1  -0.01229  0.000265  -0.087302  -0.139326  0.000125  3.961709  0.0
C  C135  1  0.41200630  0.00614565  0.93513829  1  -0.022731  0.000504  -0.08752  -0.138801  0.000268  3.960542  0.0
C  C136  1  0.57457590  0.70290912  0.83246696  1  0.933718  -3.2e-05  0.130952  0.094143  -5.1e-05  3.938899  0.0
C  C137  1  0.42546405  0.29709760  0.16762235  1  0.939065  -0.000106  0.131467  0.095104  -0.000126  3.935521  0.0
C  C138  1  0.38205008  0.61822331  0.75462789  1  0.425041  7e-06  -0.012394  -0.036015  1.9e-05  4.057068  0.0
C  C139  1  0.61809794  0.38187958  0.24539143  1  0.44585  -1.9e-05  -0.012422  -0.036057  -2.1e-05  4.05708  0.0
C  C140  1  0.34611999  0.60313722  0.82495714  1  0.252768  -8e-06  -0.006613  -0.111421  -1.7e-05  3.928991  0.0
C  C141  1  0.65393814  0.39685694  0.17503764  1  0.251526  1.5e-05  -0.00671  -0.111506  -4e-06  3.929515  0.0
C  C142  1  0.48222453  0.66320042  0.95424032  1  0.334146  -6.9e-05  0.093115  0.162071  -0.000104  4.024666  0.0
C  C143  1  0.51773831  0.33674847  0.04579823  1  0.334061  -8e-05  0.093364  0.162475  -0.000114  4.023913  0.0
C  C144  1  0.61060791  0.65161381  0.99383686  1  -0.078153  0.000297  -0.088079  -0.148707  0.000151  3.97831  0.0
C  C145  1  0.38936899  0.34835961  0.00619107  1  -0.07826  0.000315  -0.088064  -0.148743  0.000155  3.978713  0.0
C  C146  1  0.61817749  0.65236571  0.07117637  1  -0.002795  0.000451  -0.083713  -0.133635  0.000274  3.959259  0.0
C  C147  1  0.38180932  0.34762130  0.92885513  1  0.002534  0.000482  -0.083925  -0.133757  0.000286  3.960184  0.0
C  C148  1  0.49730473  0.66385687  0.10903259  1  0.310643  0.000295  0.093607  0.160059  0.000154  4.020629  0.0
C  C149  1  0.50267128  0.33614107  0.89099286  1  0.304654  0.000307  0.093479  0.160183  0.00016  4.021041  0.0
C  C150  1  0.36995060  0.67741775  0.06941608  1  0.04355  -8.6e-05  -0.08976  -0.154411  -0.000116  3.997929  0.0
C  C151  1  0.63002284  0.32257474  0.93061421  1  0.044694  -7.8e-05  -0.089838  -0.154598  -0.00011  3.998262  0.0
C  C152  1  0.36270486  0.67750402  0.99227349  1  0.034614  0.000296  -0.089882  -0.148313  0.000127  3.991209  0.0
C  C153  1  0.63725717  0.32244491  0.00774897  1  0.032781  0.000318  -0.090153  -0.148598  0.000136  3.990881  0.0
C  C154  1  0.39221742  0.61556018  0.22599929  1  0.938228  -4e-06  0.129783  0.096218  -5e-06  3.946129  0.0
C  C155  1  0.60768722  0.38443981  0.77401455  1  0.93672  -7e-06  0.129777  0.096398  -1e-05  3.946582  0.0
C  C156  1  0.62619106  0.70509640  0.23991926  1  0.236452  0.000145  -0.010836  -0.121092  1.9e-05  3.927653  0.0
C  C157  1  0.37371060  0.29485721  0.76011233  1  0.23525  0.000244  -0.011048  -0.121796  0.0001  3.927904  0.0
C  C158  1  0.58210033  0.68158734  0.30742077  1  0.417912  5.7e-05  -0.023465  -0.056648  7e-06  4.112119  0.0
C  C159  1  0.41778446  0.31836634  0.69260501  1  0.418993  6.6e-05  -0.023223  -0.055903  2.1e-05  4.110987  0.0
N  N160  1  0.83929231  0.05675439  0.30994931  1  -1.197087  0.050881  -0.344676  -0.281381  0.027552  3.573442  0.043
N  N161  1  0.15856273  0.94166746  0.68967548  1  -1.192129  0.0502  -0.342369  -0.279623  0.026384  3.565393  0.044
N  N162  1  0.66892133  0.06182271  0.38630767  1  -1.270923  0.0021  -0.228977  0.000535  0.000891  3.804583  0.002
N  N163  1  0.33009954  0.93792582  0.61385085  1  -1.264291  0.001034  -0.231822  -0.001677  -3.1e-05  3.804706  0.001
N  N164  1  0.15658951  0.13042397  0.35804070  1  -1.217971  0.059031  -0.347476  -0.285177  0.03166  3.581776  0.047
N  N165  1  0.84715451  0.86826205  0.64197860  1  -1.175307  0.05827  -0.345464  -0.282216  0.031218  3.581835  0.047
N  N166  1  0.29017378  0.28765989  0.43906761  1  -1.252381  0.002551  -0.225288  0.006369  0.001007  3.778419  0.002
N  N167  1  0.71051261  0.71255093  0.56080837  1  -1.256081  0.001118  -0.226452  0.007277  -7.3e-05  3.782858  0.001
N  N168  1  0.21343479  0.98045075  0.21601644  1  -1.183795  0.052413  -0.347116  -0.303032  0.027298  3.589831  0.047
N  N169  1  0.78751790  0.02267166  0.78484479  1  -1.203774  0.052291  -0.349035  -0.301427  0.028216  3.597351  0.044
N  N170  1  0.37638808  0.97598174  0.13490131  1  -1.24972  0.002105  -0.226658  0.007848  0.000896  3.795987  0.002
N  N171  1  0.62336638  0.02445503  0.86538293  1  -1.256289  0.002858  -0.226427  0.010095  0.001344  3.795408  0.002
N  N172  1  0.50375894  0.66187786  0.18740592  1  -1.284546  2.7e-05  -0.235038  -0.01037  0.0  3.81713  0.0
N  N173  1  0.49617327  0.33811476  0.81261903  1  -1.285744  2.8e-05  -0.235032  -0.010769  -5e-06  3.817597  0.0
N  N174  1  0.47007687  0.65748258  0.87485614  1  -1.272466  -0.0  -0.23139  0.000551  -0.0  3.800773  0.0
N  N175  1  0.52991710  0.34246804  0.12518744  1  -1.27471  -1.8e-05  -0.231228  0.000202  -1.4e-05  3.800246  0.0
N  N176  1  0.52414411  0.68114622  0.75971994  1  -1.172354  1e-06  -0.344906  -0.319428  2e-06  3.326261  0.0
N  N177  1  0.47600217  0.31895745  0.24036084  1  -1.175185  8.8e-05  -0.344816  -0.318974  6e-05  3.325374  0.0
N  N178  1  0.43659429  0.62600831  0.29862468  1  -1.156484  2e-05  -0.361268  -0.319299  1e-05  3.276721  0.0
N  N179  1  0.56328253  0.37396267  0.70138921  1  -1.15377  1.5e-05  -0.361169  -0.319414  -2e-06  3.276353  0.0
O  O180  1  0.02001392  0.87323853  0.32218871  1  -1.172484  0.074088  -0.32107  -0.565077  0.038406  2.348947  0.064
O  O181  1  0.98180926  0.12662577  0.67651806  1  -1.173547  0.069235  -0.321781  -0.565382  0.035659  2.340108  0.059
O  O182  1  0.99812389  0.71181416  0.22702161  1  -1.192487  -0.002175  -0.330213  -0.571136  -0.003268  2.159774  -0.002
O  O183  1  0.99960276  0.28683813  0.77230526  1  -1.183256  0.005746  -0.325901  -0.565028  0.002348  2.163796  0.005
O  O184  1  0.02505920  0.15312904  0.19963545  1  -1.173704  0.073483  -0.316212  -0.552617  0.038051  2.32918  0.063
O  O185  1  0.98123020  0.84533653  0.79926057  1  -1.18842  0.067136  -0.315058  -0.550366  0.034536  2.317502  0.057
O  O186  1  0.95090139  0.03345680  0.08420968  1  -1.189679  -0.003235  -0.311836  -0.541458  -0.004175  2.235668  -0.003
O  O187  1  0.04974438  0.96609285  0.91480736  1  -1.187798  0.002706  -0.310213  -0.538187  0.000831  2.239958  0.003
O  O188  1  0.88492375  0.88304879  0.17617009  1  -1.268335  0.062976  -0.587046  -0.770348  0.032317  2.189567  0.051
O  O189  1  0.11419618  0.11751499  0.82413590  1  -1.261169  0.064049  -0.587551  -0.769114  0.033219  2.193225  0.052
