# generated using pymatgen
data_ZnH10C15NO5
_symmetry_space_group_name_H-M   'P 1'
_cell_length_a   11.25677369
_cell_length_b   14.01325975
_cell_length_c   15.34554710
_cell_angle_alpha   90.39981712
_cell_angle_beta   92.37373419
_cell_angle_gamma   104.74340485
_symmetry_Int_Tables_number   1
_chemical_formula_structural   ZnH10C15NO5
_chemical_formula_sum   'Zn2 H20 C30 N2 O10'
_cell_volume   2338.57626859
_cell_formula_units_Z   2
loop_
 _symmetry_equiv_pos_site_id
 _symmetry_equiv_pos_as_xyz
  1  'x, y, z'
loop_
 _atom_site_type_symbol
 _atom_site_label
 _atom_site_symmetry_multiplicity
 _atom_site_fract_x
 _atom_site_fract_y
 _atom_site_fract_z
 _atom_site_occupancy
 _atom_site_pbe_bader_charge
 _atom_site_pbe_bader_spin_density
 _atom_site_pbe_cm5_charge
 _atom_site_pbe_ddec_charge
 _atom_site_pbe_ddec_spin_density
 _atom_site_pbe_ddec_sum_bond_order
 _atom_site_pbe_magmom
Zn  Zn0  1  0.48663701  0.39674665  0.50608130  1  1.286985  0  0.670704  0.83092  0  2.398393  0
Zn  Zn1  1  0.49768480  0.60153979  0.50493857  1  1.287136  0  0.670326  0.829277  0  2.410366  0
H  H2  1  0.11544647  0.58592261  0.51498179  1  0.116045  0  0.107213  0.105267  0  0.987452  0
H  H3  1  0.87237670  0.41615816  0.50513575  1  0.103764  0  0.110353  0.109123  0  0.979464  0
H  H4  1  0.31808745  0.88954673  0.43752384  1  0.0772  0  0.110908  0.122753  0  0.998673  0
H  H5  1  0.58649861  0.09169958  0.62775418  1  0.105102  0  0.110394  0.121508  0  1.000082  0
H  H6  1  0.06982748  0.35920005  0.50966849  1  0.085317  0  0.109422  0.126907  0  0.98126  0
H  H7  1  0.92100102  0.64246215  0.52304757  1  0.059105  0  0.107763  0.126765  0  0.984606  0
H  H8  1  0.57219309  0.36640172  0.94571979  1  0.059637  0  0.101029  0.099649  0  1.005344  0
H  H9  1  0.57553570  0.65698795  0.06897477  1  0.058037  0  0.102242  0.101186  0  1.002822  0
H  H10  1  0.56943406  0.36545249  0.78345594  1  0.117729  0  0.102471  0.104164  0  1.005067  0
H  H11  1  0.56264418  0.65434299  0.23053076  1  0.10845  0  0.105889  0.110893  0  0.996346  0
H  H12  1  0.45291928  0.63383916  0.78054323  1  0.102159  0  0.10571  0.111393  0  0.995749  0
H  H13  1  0.42670262  0.33837514  0.21872235  1  0.087004  0  0.10516  0.107799  0  1.015153  0
H  H14  1  0.45021240  0.63411104  0.94282342  1  0.057839  0  0.100699  0.098625  0  1.004914  0
H  H15  1  0.43601310  0.34051876  0.05852278  1  0.043345  0  0.102485  0.10204  0  1.00158  0
H  H16  1  0.68157766  0.97623633  0.56423484  1  0.090083  0  0.116946  0.14189  0  0.982941  0
H  H17  1  0.40697701  0.04443102  0.37004453  1  0.105336  0  0.117106  0.142566  0  0.981976  0
H  H18  1  0.33452969  0.71503009  0.44391500  1  0.130486  0  0.124731  0.101744  0  0.988524  0
H  H19  1  0.57614668  0.26759554  0.61834888  1  0.106832  0  0.124586  0.102314  0  0.990257  0
H  H20  1  0.70715382  0.72907948  0.55487109  1  0.664955  0  0.308842  0.371843  0  0.966868  0
H  H21  1  0.41862982  0.30029602  0.35634397  1  0.644474  0  0.306358  0.366186  0  0.981096  0
C  C22  1  0.50667215  0.49779516  0.67467929  1  1.586132  0  0.215208  0.594  0  4.170421  0
C  C23  1  0.48829805  0.49750492  0.33240236  1  1.53845  0  0.22346  0.605904  0  4.13685  0
C  C24  1  0.51029876  0.49992518  0.95596896  1  -0.020293  0  -0.004496  0.071897  0  4.005631  0
C  C25  1  0.50629755  0.49893909  0.05190775  1  -0.073511  0  -0.001445  0.077315  0  4.00108  0
C  C26  1  0.60138033  0.92149465  0.53746646  1  -0.027093  0  -0.091832  -0.28865  0  3.883865  0
C  C27  1  0.44454542  0.09005117  0.42739461  1  0.019957  0  -0.091959  -0.289376  0  3.882694  0
C  C28  1  0.60492615  0.82176126  0.53626786  1  1.151623  0  0.223376  0.490422  0  4.065312  0
C  C29  1  0.44551157  0.19073084  0.42612236  1  1.142742  0  0.222778  0.491627  0  4.063014  0
C  C30  1  0.40907983  0.77630594  0.46871457  1  0.445731  0  0.048187  0.119679  0  3.964713  0
C  C31  1  0.54117418  0.21476379  0.56499442  1  0.473315  0  0.048144  0.119351  0  3.964899  0
C  C32  1  0.40075221  0.87281498  0.46545840  1  -0.002319  0  -0.100654  -0.222915  0  3.997548  0
C  C33  1  0.54655753  0.11760853  0.56965737  1  -0.055519  0  -0.100048  -0.222081  0  3.999612  0
C  C34  1  0.49936635  0.94801603  0.50121547  1  -0.030858  0  0.012338  0.128437  0  4.014814  0
C  C35  1  0.49594094  0.05275881  0.49928858  1  -0.007132  0  0.012422  0.12898  0  4.014801  0
C  C36  1  0.73450619  0.54445332  0.50835966  1  1.504071  0  0.215247  0.645731  0  4.160173  0
C  C37  1  0.25516095  0.45915184  0.50625211  1  1.579011  0  0.20817  0.632096  0  4.178419  0
C  C38  1  0.86992978  0.56520785  0.51512666  1  -0.066152  0  -0.093168  -0.241918  0  3.888953  0
C  C39  1  0.11942079  0.43706596  0.50956316  1  0.010943  0  -0.084407  -0.214294  0  3.866654  0
C  C40  1  0.92855413  0.49223750  0.51165044  1  0.003265  0  -0.069894  -0.016985  0  4.012916  0
C  C41  1  0.05998038  0.50944155  0.51302532  1  -0.101592  0  -0.076802  -0.038945  0  4.026324  0
C  C42  1  0.54386567  0.42442040  0.90981409  1  -0.023441  0  -0.092906  -0.138399  0  3.995029  0
C  C43  1  0.54107808  0.58715510  0.10168198  1  -0.061402  0  -0.091031  -0.136689  0  3.98985  0
C  C44  1  0.54356175  0.42397660  0.81919817  1  -0.094292  0  -0.085362  -0.087376  0  3.996517  0
C  C45  1  0.53486850  0.58611063  0.19194182  1  -0.002279  0  -0.082053  -0.081291  0  3.984231  0
C  C46  1  0.51037822  0.49931955  0.77219833  1  0.001533  0  -0.019331  -0.034435  0  3.97149  0
C  C47  1  0.49373200  0.49669679  0.23536641  1  -0.023271  0  -0.022212  -0.048811  0  3.98325  0
C  C48  1  0.47882675  0.57572476  0.81768247  1  -0.120726  0  -0.083858  -0.085185  0  3.986768  0
C  C49  1  0.45947412  0.40841185  0.18626727  1  -0.072065  0  -0.084155  -0.085955  0  3.987688  0
C  C50  1  0.47853168  0.57585670  0.90826369  1  0.00645  0  -0.090622  -0.134134  0  3.990003  0
C  C51  1  0.46573510  0.40959789  0.09593733  1  0.028054  0  -0.089479  -0.133476  0  3.983079  0
N  N52  1  0.50869287  0.75030988  0.50343115  1  -1.24813  0  -0.339256  -0.33979  0  3.465236  0
N  N53  1  0.49120990  0.25137695  0.49511173  1  -1.267009  0  -0.339011  -0.338184  0  3.462649  0
O  O54  1  0.52352158  0.42100363  0.63684144  1  -1.168191  0  -0.320986  -0.555837  0  2.332971  0
O  O55  1  0.51696157  0.58007328  0.37239547  1  -1.161521  0  -0.307651  -0.532078  0  2.309481  0
O  O56  1  0.48624776  0.57267201  0.63630607  1  -1.162576  0  -0.31907  -0.550385  0  2.323296  0
O  O57  1  0.45507786  0.41427080  0.37123843  1  -1.189243  0  -0.313702  -0.569345  0  2.405108  0
O  O58  1  0.67226984  0.45777221  0.48815513  1  -1.165659  0  -0.312032  -0.543233  0  2.303918  0
O  O59  1  0.31270095  0.54781561  0.48989804  1  -1.173714  0  -0.321347  -0.558218  0  2.331435  0
O  O60  1  0.68672314  0.61723923  0.52285299  1  -1.178307  0  -0.314297  -0.567498  0  2.367845  0
O  O61  1  0.30363617  0.38724553  0.51949271  1  -1.157635  0  -0.32203  -0.543661  0  2.261735  0
O  O62  1  0.70627418  0.79978457  0.56812604  1  -1.168987  0  -0.342702  -0.467746  0  2.244631  0
O  O63  1  0.40074710  0.22517944  0.35490877  1  -1.165384  0  -0.342868  -0.47336  0  2.262633  0
