# generated using pymatgen
data_MnH20C20(N2O)4
_symmetry_space_group_name_H-M   'P 1'
_cell_length_a   8.13036194
_cell_length_b   8.44193691
_cell_length_c   8.87453838
_cell_angle_alpha   72.98955214
_cell_angle_beta   64.81791373
_cell_angle_gamma   76.90258347
_symmetry_Int_Tables_number   1
_chemical_formula_structural   MnH20C20(N2O)4
_chemical_formula_sum   'Mn1 H20 C20 N8 O4'
_cell_volume   523.42383899
_cell_formula_units_Z   1
loop_
 _symmetry_equiv_pos_site_id
 _symmetry_equiv_pos_as_xyz
  1  'x, y, z'
loop_
 _atom_site_type_symbol
 _atom_site_label
 _atom_site_symmetry_multiplicity
 _atom_site_fract_x
 _atom_site_fract_y
 _atom_site_fract_z
 _atom_site_occupancy
 _atom_site_hle17_bader_charge
 _atom_site_hle17_bader_spin_density
 _atom_site_hle17_ddec_charge
 _atom_site_hle17_ddec_spin_density
 _atom_site_hle17_ddec_sum_bond_order
 _atom_site_hle17_magmom
 _atom_site_hse06_10hf_ddec_charge
 _atom_site_hse06_10hf_ddec_spin_density
 _atom_site_hse06_10hf_ddec_sum_bond_order
 _atom_site_hse06_10hf_magmom
 _atom_site_hse06_ddec_charge
 _atom_site_hse06_ddec_spin_density
 _atom_site_hse06_ddec_sum_bond_order
 _atom_site_hse06_magmom
 _atom_site_pbe_cm5_charge
 _atom_site_pbe_ddec_charge
 _atom_site_pbe_ddec_spin_density
 _atom_site_pbe_ddec_sum_bond_order
 _atom_site_pbe_magmom
Mn  Mn0  1  0.49999951  0.49999806  0.50000294  1  1.398936  -1.154475  0.732232  -1.203739  2.835104  -1.159  0.624022  -1.10187  3.389247  -1.06  0.66503  -1.054748  3.328122  -1.011  0.643812  0.595791  -1.119197  3.4259  -1.077
H  H1  1  0.55379848  0.29763724  0.88946215  1  0.017851  -0.000163  0.096247  -6.1e-05  0.98887  0.0  0.104002  8.2e-05  1.052951  0.0  0.107889  8.3e-05  1.051569  0.0  0.10327  0.101023  5.7e-05  1.054338  0.0
H  H2  1  0.44619969  0.70236634  0.11053522  1  0.017878  -0.000163  0.096281  -6.1e-05  0.988791  0.0  0.103983  8.2e-05  1.052949  0.0  0.107868  8.3e-05  1.051571  0.0  0.103274  0.101005  5.7e-05  1.054337  0.0
H  H3  1  0.98715437  0.35234177  0.77087154  1  0.573249  -2e-05  0.306541  -1.2e-05  0.93672  0.0  0.284897  4.3e-05  0.999269  0.0  0.294363  -1.3e-05  0.991461  0.0  0.301411  0.278018  9.4e-05  1.005008  0.0
H  H4  1  0.01284284  0.64765808  0.22913287  1  0.573186  -2e-05  0.306547  -1.2e-05  0.936725  0.0  0.284931  4.3e-05  0.999215  0.0  0.294364  -1.3e-05  0.991465  0.0  0.301418  0.278015  9.4e-05  1.005014  0.0
H  H5  1  0.98681757  0.14877700  0.09330296  1  0.557409  5e-05  0.301464  3.5e-05  0.939728  0.0  0.279345  8.3e-05  1.006356  0.0  0.287339  4e-05  1.000447  0.0  0.303839  0.273698  0.000101  1.010488  0.0
H  H6  1  0.01318062  0.85122659  0.90669214  1  0.557201  5e-05  0.301524  3.5e-05  0.939707  0.0  0.279399  8.3e-05  1.006341  0.0  0.287392  4e-05  1.000431  0.0  0.303843  0.273753  0.000101  1.010474  0.0
H  H7  1  0.86565379  0.28971142  0.57112874  1  0.106769  0.000435  0.08503  0.000391  0.950002  0.0  0.094268  0.00018  1.014739  0.0  0.095508  0.000123  1.013687  0.0  0.133753  0.093426  0.000223  1.015517  0.0
H  H8  1  0.13434961  0.71029341  0.42886966  1  0.106759  0.000435  0.085053  0.000391  0.949957  0.0  0.094281  0.00018  1.014709  0.0  0.095522  0.000123  1.013655  0.0  0.133757  0.093437  0.000223  1.015491  0.0
H  H9  1  0.24991537  0.90348039  0.97107731  1  0.018649  -0.000204  0.09738  -0.000168  0.97086  0.0  0.103868  -5e-06  1.03853  0.0  0.108176  -2.2e-05  1.03559  0.0  0.099368  0.100638  1.8e-05  1.040919  0.0
H  H10  1  0.75008602  0.09651945  0.02891649  1  0.018711  -0.000203  0.097442  -0.000167  0.970856  0.0  0.103886  -5e-06  1.038563  0.0  0.108192  -2.2e-05  1.035625  0.0  0.099381  0.100657  1.8e-05  1.040953  0.0
H  H11  1  0.81675862  0.62528841  0.86455549  1  0.039057  0.000717  0.096926  0.000649  0.978544  0.0  0.104769  0.000421  1.044719  0.0  0.105693  0.000366  1.045596  0.0  0.11324  0.10409  0.00044  1.044208  0.0
H  H12  1  0.18323101  0.37470648  0.13545770  1  0.039335  0.000717  0.096918  0.000649  0.978536  0.0  0.104745  0.000421  1.044726  0.0  0.105668  0.000366  1.045603  0.0  0.113244  0.104067  0.000439  1.04421  0.0
H  H13  1  0.82963535  0.43127905  0.14600931  1  0.071942  -0.000206  0.086836  -4e-06  0.95089  0.0  0.094608  0.000186  1.017039  0.0  0.09714  0.000139  1.013281  0.0  0.131388  0.092426  0.00025  1.020339  0.0
H  H14  1  0.17036161  0.56872330  0.85398886  1  0.071967  -0.000206  0.086785  -4e-06  0.950899  0.0  0.094566  0.000186  1.017048  0.0  0.097098  0.000139  1.013288  0.0  0.131363  0.092385  0.00025  1.020349  0.0
H  H15  1  0.55489906  0.73031900  0.72258109  1  0.057002  3.4e-05  0.102517  7.9e-05  0.972093  0.0  0.111491  0.000241  1.032299  0.0  0.11218  0.000174  1.033803  0.0  0.1156  0.111085  0.000288  1.031342  0.0
H  H16  1  0.44509572  0.26967837  0.27742718  1  0.057009  3.4e-05  0.102551  7.9e-05  0.972112  0.0  0.111534  0.000241  1.032298  0.0  0.112223  0.000174  1.033802  0.0  0.115588  0.111129  0.000288  1.031341  0.0
H  H17  1  0.58695908  0.08492742  0.60323440  1  0.049265  0.000167  0.100533  0.000315  0.984526  0.0  0.106002  0.000397  1.05036  0.0  0.106783  0.000253  1.051579  0.0  0.113063  0.10534  0.000467  1.049882  0.0
H  H18  1  0.41304247  0.91507116  0.39676081  1  0.049227  0.000167  0.100541  0.000315  0.984641  0.0  0.106003  0.000397  1.050475  0.0  0.106786  0.000253  1.05169  0.0  0.113067  0.105338  0.000467  1.049999  0.0
H  H19  1  0.85533311  0.91398291  0.36640772  1  0.051281  0.000266  0.11345  0.00023  0.961571  0.0  0.122707  0.000173  1.020325  0.0  0.125459  0.000123  1.019308  0.0  0.119371  0.120632  0.000189  1.02122  0.0
H  H20  1  0.14467117  0.08601567  0.63358533  1  0.05129  0.000266  0.113423  0.00023  0.961629  0.0  0.122666  0.000173  1.020383  0.0  0.125419  0.000123  1.019361  0.0  0.119332  0.120581  0.000189  1.021317  0.0
C  C21  1  0.53262591  0.16666217  0.93615974  1  0.081689  0.004958  -0.081834  0.005306  3.752596  0.003  -0.101491  0.004117  3.996979  0.002  -0.099306  0.001827  4.009708  0.001  -0.090849  -0.103259  0.005486  3.989448  0.002
C  C22  1  0.46736947  0.83334143  0.06384432  1  0.081611  0.004948  -0.081806  0.005296  3.752639  0.003  -0.101443  0.004114  3.997034  0.002  -0.099259  0.001825  4.009763  0.001  -0.090888  -0.103219  0.005482  3.989498  0.002
C  C23  1  0.28059716  0.23357090  0.82760835  1  1.494863  0.036002  0.617389  0.043784  3.903369  0.029  0.565743  0.025375  4.206007  0.017  0.60622  0.017603  4.190015  0.012  0.204822  0.53835  0.02654  4.215561  0.018
C  C24  1  0.71940193  0.76642521  0.17239187  1  1.494671  0.035991  0.617392  0.043769  3.90343  0.029  0.56576  0.025367  4.20603  0.017  0.606235  0.017598  4.190036  0.012  0.2048  0.538363  0.026529  4.215577  0.018
C  C25  1  0.81616953  0.39630340  0.62959140  1  0.989887  -0.007691  0.206124  -0.007075  3.66699  -0.006  0.146236  -0.004007  3.945698  -0.004  0.159527  -0.005028  3.958977  -0.004  0.142056  0.137284  -0.003531  3.936466  -0.003
C  C26  1  0.18383162  0.60369769  0.37040890  1  0.989951  -0.007691  0.206088  -0.007075  3.666979  -0.006  0.146193  -0.004007  3.945664  -0.004  0.159486  -0.005027  3.95894  -0.004  0.142075  0.137243  -0.00353  3.93643  -0.003
C  C27  1  0.39076244  0.11371500  0.91902380  1  -0.052006  0.009721  -0.076227  0.010771  3.79678  0.004  -0.053641  0.007186  4.029211  0.003  -0.055521  0.001822  4.041126  0.0  -0.02614  -0.053639  0.010769  4.022459  0.005
C  C28  1  0.60923257  0.88628111  0.08097910  1  -0.051926  0.009728  -0.076314  0.010781  3.796963  0.004  -0.053715  0.007189  4.029348  0.003  -0.055593  0.001825  4.041258  0.0  -0.026128  -0.053694  0.010772  4.022571  0.005
C  C29  1  0.35847221  0.94567835  0.98524917  1  -0.01096  0.00491  -0.088532  0.005012  3.742251  0.003  -0.107666  0.003544  3.988122  0.002  -0.106404  0.001481  4.000746  0.001  -0.095275  -0.108711  0.004885  3.980562  0.002
C  C30  1  0.64152533  0.05431901  0.01475467  1  -0.011086  0.004901  -0.088568  0.005002  3.742379  0.003  -0.107685  0.003541  3.988274  0.002  -0.106421  0.001478  4.000897  0.001  -0.095323  -0.108736  0.004881  3.980708  0.002
C  C31  1  0.78717846  0.57186961  0.78316695  1  0.388976  0.000634  -0.032931  0.000654  3.738821  0.0  -0.070197  -0.000198  4.003911  0.0  -0.071144  0.000122  4.0286  0.0  -0.008152  -0.069269  -0.000391  3.986921  0.0
C  C32  1  0.21281998  0.42813148  0.21683438  1  0.388731  0.000634  -0.032809  0.000654  3.73871  0.0  -0.070063  -0.000198  4.003791  0.0  -0.071007  0.000123  4.028475  0.0  -0.008099  -0.069134  -0.000391  3.986791  0.0
C  C33  1  0.79949996  0.31559712  0.24013583  1  1.019248  0.005664  0.19579  0.006683  3.650072  0.004  0.135713  0.005221  3.92899  0.003  0.15182  0.002358  3.938269  0.001  0.131808  0.12404  0.007718  3.923527  0.004
C  C34  1  0.20050124  0.68440397  0.75986107  1  1.019258  0.005663  0.195864  0.006683  3.649962  0.004  0.13579  0.00522  3.928884  0.003  0.151894  0.002357  3.93816  0.001  0.131815  0.124115  0.007717  3.923423  0.004
C  C35  1  0.65852245  0.62332887  0.71108776  1  0.437094  0.002551  -0.020893  0.004308  3.739516  0.003  -0.049915  0.002352  4.003356  0.001  -0.04872  0.002747  4.02643  0.001  -0.005392  -0.050899  0.00168  3.987504  0.001
C  C36  1  0.34147493  0.37666974  0.28891580  1  0.437108  0.00255  -0.02106  0.004307  3.739576  0.003  -0.050109  0.002352  4.003424  0.001  -0.048912  0.002747  4.026502  0.001  -0.005458  -0.051091  0.00168  3.987574  0.001
C  C37  1  0.67779896  0.13242190  0.47364596  1  0.428277  0.00234  -0.031767  0.002704  3.730565  0.002  -0.060553  0.002219  3.997247  0.001  -0.058357  0.001385  4.017387  0.001  -0.008583  -0.062603  0.002832  3.984158  0.002
C  C38  1  0.32220207  0.86758044  0.52635066  1  0.428176  0.00234  -0.031718  0.002705  3.730636  0.002  -0.060468  0.002219  3.997291  0.001  -0.058277  0.001385  4.017434  0.001  -0.008565  -0.062513  0.002833  3.984198  0.002
C  C39  1  0.81204815  0.04612240  0.35823231  1  0.428889  -0.001349  -0.018811  -0.001023  3.716542  -0.001  -0.056675  -0.000233  3.979637  0.0  -0.056317  -0.000134  3.999752  0.0  -0.004624  -0.056859  -0.000262  3.966512  0.0
C  C40  1  0.18795292  0.95387993  0.64176204  1  0.42894  -0.001349  -0.018821  -0.001023  3.716529  -0.001  -0.056674  -0.000232  3.979657  0.0  -0.056317  -0.000134  3.999773  0.0  -0.004633  -0.056864  -0.000262  3.966527  0.0
N  N41  1  0.67711568  0.51184316  0.61577417  1  -1.179428  0.018273  -0.317332  0.022305  3.275127  0.022  -0.262286  0.010742  3.571622  0.012  -0.284645  0.009972  3.58703  0.011  -0.341636  -0.24628  0.011074  3.55946  0.012
N  N42  1  0.32288687  0.48815792  0.38422335  1  -1.179434  0.018275  -0.317252  0.022306  3.275054  0.022  -0.262168  0.010743  3.571507  0.012  -0.284537  0.009973  3.586928  0.011  -0.34159  -0.246165  0.011075  3.55935  0.012
N  N43  1  0.67086033  0.30177162  0.39851695  1  -1.193773  0.015582  -0.31175  0.017639  3.30792  0.015  -0.255604  0.00923  3.601632  0.008  -0.275253  0.007333  3.613621  0.007  -0.351417  -0.241954  0.010688  3.592117  0.009
N  N44  1  0.32914341  0.69823071  0.60147977  1  -1.193733  0.015584  -0.31175  0.017639  3.307752  0.015  -0.255658  0.00923  3.601521  0.008  -0.275294  0.007333  3.613494  0.007  -0.35138  -0.242008  0.010688  3.592006  0.009
N  N45  1  0.88541583  0.42866174  0.73011009  1  -1.331359  -0.000214  -0.28876  0.000307  3.472645  0.001  -0.220755  -4e-05  3.710524  0.0  -0.238198  -0.000332  3.727856  0.0  -0.381694  -0.208859  3.8e-05  3.698728  0.0
N  N46  1  0.11458002  0.57133812  0.26989484  1  -1.331387  -0.000214  -0.288822  0.000307  3.472694  0.001  -0.220814  -4e-05  3.71051  0.0  -0.238236  -0.000332  3.727875  0.0  -0.381751  -0.208896  3.8e-05  3.698741  0.0
N  N47  1  0.88720180  0.16380834  0.21198895  1  -1.329602  0.001373  -0.294881  0.001342  3.50091  0.001  -0.230596  0.001593  3.743569  0.001  -0.247349  0.000781  3.760113  0.0  -0.387285  -0.219537  0.002364  3.732749  0.001
N  N48  1  0.11280226  0.83619149  0.78800833  1  -1.329334  0.001373  -0.29495  0.001341  3.500762  0.001  -0.230663  0.001593  3.743425  0.001  -0.247416  0.000781  3.759966  0.0  -0.387275  -0.219601  0.002363  3.732605  0.001
O  O49  1  0.11116569  0.21559298  0.87549656  1  -1.210572  0.014045  -0.640344  0.014021  1.986236  0.011  -0.589435  0.009355  2.215544  0.007  -0.611284  0.006513  2.201521  0.005  -0.326877  -0.572914  0.009576  2.223977  0.007
O  O50  1  0.88883681  0.78439812  0.12449925  1  -1.210535  0.014039  -0.640352  0.014015  1.986186  0.011  -0.589452  0.009351  2.215472  0.007  -0.611289  0.00651  2.201457  0.005  -0.326868  -0.572921  0.009571  2.223916  0.007
O  O51  1  0.35884188  0.35018440  0.70605850  1  -1.203095  -0.030631  -0.568316  -0.026313  2.294485  -0.027  -0.506865  -0.02732  2.58746  -0.027  -0.538134  -0.02234  2.576533  -0.022  -0.30696  -0.483174  -0.031989  2.591427  -0.031
O  O52  1  0.64115521  0.64981670  0.29394222  1  -1.203112  -0.030619  -0.568269  -0.026302  2.294592  -0.027  -0.506816  -0.027312  2.587537  -0.027  -0.538083  -0.022333  2.57661  -0.022  -0.306919  -0.483129  -0.03198  2.591508  -0.031
