# generated using pymatgen
data_HoH6(C2N3)3
_symmetry_space_group_name_H-M   'P 1'
_cell_length_a   9.26005451
_cell_length_b   9.26006032
_cell_length_c   12.60053557
_cell_angle_alpha   91.83248712
_cell_angle_beta   91.83278415
_cell_angle_gamma   119.07685286
_symmetry_Int_Tables_number   1
_chemical_formula_structural   HoH6(C2N3)3
_chemical_formula_sum   'Ho4 H24 C24 N36'
_cell_volume   942.42409462
_cell_formula_units_Z   4
loop_
 _symmetry_equiv_pos_site_id
 _symmetry_equiv_pos_as_xyz
  1  'x, y, z'
loop_
 _atom_site_type_symbol
 _atom_site_label
 _atom_site_symmetry_multiplicity
 _atom_site_fract_x
 _atom_site_fract_y
 _atom_site_fract_z
 _atom_site_occupancy
 _atom_site_hle17_bader_spin_density
 _atom_site_hle17_ddec_charge
 _atom_site_hle17_ddec_spin_density
 _atom_site_hle17_ddec_sum_bond_order
 _atom_site_hle17_magmom
 _atom_site_hse06_10hf_bader_spin_density
 _atom_site_hse06_10hf_ddec_charge
 _atom_site_hse06_10hf_ddec_spin_density
 _atom_site_hse06_10hf_ddec_sum_bond_order
 _atom_site_hse06_10hf_magmom
 _atom_site_hse06_bader_spin_density
 _atom_site_hse06_ddec_charge
 _atom_site_hse06_ddec_spin_density
 _atom_site_hse06_ddec_sum_bond_order
 _atom_site_hse06_magmom
 _atom_site_pbe_bader_spin_density
 _atom_site_pbe_cm5_charge
 _atom_site_pbe_ddec_charge
 _atom_site_pbe_ddec_spin_density
 _atom_site_pbe_ddec_sum_bond_order
 _atom_site_pbe_magmom
Ho  Ho0  1  0.52389742  0.25899799  0.42800377  1  0  1.830938  0  2.13987  0  0  1.593976  0  2.698852  0  0  1.669189  0  2.623151  0  0  1.791609  1.53923  0  2.752756  0
Ho  Ho1  1  0.74100043  0.47610018  0.07199677  1  0  1.830904  0  2.139894  0  0  1.593953  0  2.698841  0  0  1.669174  0  2.623131  0  0  1.791601  1.539208  0  2.752744  0
Ho  Ho2  1  0.47610126  0.74100082  0.57199630  1  0  1.830898  0  2.139901  0  0  1.593997  0  2.69877  0  0  1.669205  0  2.623076  0  0  1.7916  1.53925  0  2.752679  0
Ho  Ho3  1  0.25900101  0.52389987  0.92800338  1  0  1.830851  0  2.139974  0  0  1.593907  0  2.698911  0  0  1.669125  0  2.623205  0  0  1.79159  1.539166  0  2.752809  0
H  H4  1  0.23065606  0.29353313  0.23186914  1  0  0.107499  0  0.959505  0  0  0.11576  0  1.02243  0  0  0.117759  0  1.022385  0  0  0.122406  0.11433  0  1.022519  0
H  H5  1  0.70646929  0.76934324  0.26812932  1  0  0.107522  0  0.959561  0  0  0.115781  0  1.022465  0  0  0.11778  0  1.022423  0  0  0.12244  0.114356  0  1.022549  0
H  H6  1  0.76934381  0.70646815  0.76812942  1  0  0.10753  0  0.959489  0  0  0.115768  0  1.022429  0  0  0.117767  0  1.022385  0  0  0.122434  0.11434  0  1.022514  0
H  H7  1  0.29353167  0.23065804  0.73187006  1  0  0.107501  0  0.959525  0  0  0.115766  0  1.022436  0  0  0.117766  0  1.022391  0  0  0.122423  0.114341  0  1.022522  0
H  H8  1  0.13187770  0.53156671  0.26762684  1  0  0.112044  0  0.954801  0  0  0.120172  0  1.014743  0  0  0.12252  0  1.014245  0  0  0.122396  0.1189  0  1.014477  0
H  H9  1  0.46843707  0.86812212  0.23237260  1  0  0.112008  0  0.954789  0  0  0.120157  0  1.014715  0  0  0.122506  0  1.014214  0  0  0.122404  0.118884  0  1.01445  0
H  H10  1  0.86812220  0.46843459  0.73237489  1  0  0.112095  0  0.954713  0  0  0.120214  0  1.014654  0  0  0.122562  0  1.014153  0  0  0.122415  0.118942  0  1.014386  0
H  H11  1  0.53156437  0.13187792  0.76762755  1  0  0.111997  0  0.954797  0  0  0.120148  0  1.014722  0  0  0.122495  0  1.014223  0  0  0.122399  0.118875  0  1.014458  0
H  H12  1  0.90196843  0.24647377  0.33654006  1  0  0.100813  0  0.971481  0  0  0.106242  0  1.04046  0  0  0.108562  0  1.039689  0  0  0.120407  0.104504  0  1.041441  0
H  H13  1  0.75353301  0.09803126  0.16346065  1  0  0.100809  0  0.971436  0  0  0.106234  0  1.040407  0  0  0.108529  0  1.039712  0  0  0.120408  0.104494  0  1.041393  0
H  H14  1  0.09802941  0.75352998  0.66345771  1  0  0.10081  0  0.971428  0  0  0.106233  0  1.040406  0  0  0.108531  0  1.039701  0  0  0.120421  0.104497  0  1.041386  0
H  H15  1  0.24647059  0.90196879  0.83654034  1  0  0.1008  0  0.971469  0  0  0.106218  0  1.040453  0  0  0.108532  0  1.039697  0  0  0.120407  0.104478  0  1.041439  0
H  H16  1  0.96667259  0.99539521  0.39919862  1  0  0.103649  0  0.961695  0  0  0.111277  0  1.025776  0  0  0.113756  0  1.024918  0  0  0.119612  0.109609  0  1.026363  0
H  H17  1  0.00461138  0.03332792  0.10080318  1  0  0.103632  0  0.961712  0  0  0.111252  0  1.025812  0  0  0.113732  0  1.024951  0  0  0.119634  0.109587  0  1.026396  0
H  H18  1  0.03332692  0.00460978  0.60079921  1  0  0.103599  0  0.961698  0  0  0.111234  0  1.025785  0  0  0.113715  0  1.024927  0  0  0.119592  0.109568  0  1.026371  0
H  H19  1  0.99539283  0.96667338  0.89919864  1  0  0.103598  0  0.961735  0  0  0.11122  0  1.02583  0  0  0.113699  0  1.024968  0  0  0.119604  0.109556  0  1.026413  0
H  H20  1  0.16259536  0.88116506  0.15982391  1  0  0.113246  0  0.962532  0  0  0.119888  0  1.027227  0  0  0.122746  0  1.025692  0  0  0.123638  0.117739  0  1.028606  0
H  H21  1  0.11883313  0.83740151  0.34017712  1  0  0.113267  0  0.962547  0  0  0.119932  0  1.027213  0  0  0.122795  0  1.025677  0  0  0.12365  0.117783  0  1.028594  0
H  H22  1  0.83740212  0.11883128  0.84017687  1  0  0.113284  0  0.962573  0  0  0.119948  0  1.027235  0  0  0.122808  0  1.025703  0  0  0.12366  0.117797  0  1.028617  0
H  H23  1  0.88116495  0.16259607  0.65982370  1  0  0.113253  0  0.962534  0  0  0.119896  0  1.027227  0  0  0.122754  0  1.025692  0  0  0.123639  0.117747  0  1.028607  0
H  H24  1  0.36756300  0.07267516  0.00383041  1  0  0.10205  0  0.978604  0  0  0.110625  0  1.042683  0  0  0.112534  0  1.042835  0  0  0.121153  0.108896  0  1.04327  0
H  H25  1  0.92732133  0.63243273  0.49617011  1  0  0.102037  0  0.978594  0  0  0.110632  0  1.042651  0  0  0.112552  0  1.042777  0  0  0.121153  0.108905  0  1.043238  0
H  H26  1  0.63243448  0.92732119  0.99617117  1  0  0.102037  0  0.978598  0  0  0.110627  0  1.042661  0  0  0.112541  0  1.042806  0  0  0.121155  0.108884  0  1.043265  0
H  H27  1  0.07267506  0.36756361  0.50382986  1  0  0.102064  0  0.978579  0  0  0.11064  0  1.042658  0  0  0.112553  0  1.042801  0  0  0.121164  0.108913  0  1.043245  0
C  C28  1  0.26819278  0.38928701  0.29479309  1  0  0.0238  0  3.672248  0  0  -0.011649  0  3.940094  0  0  -0.008448  0  3.95688  0  0  0.019369  -0.01358  0  3.928789  0
C  C29  1  0.61071284  0.73180176  0.20520986  1  0  0.02371  0  3.672391  0  0  -0.011754  0  3.940273  0  0  -0.008555  0  3.95706  0  0  0.019297  -0.013688  0  3.928971  0
C  C30  1  0.73180531  0.61071058  0.70520853  1  0  0.023757  0  3.672272  0  0  -0.011681  0  3.940126  0  0  -0.008481  0  3.956912  0  0  0.019329  -0.013613  0  3.928824  0
C  C31  1  0.38928921  0.26819954  0.79479113  1  0  0.023685  0  3.672432  0  0  -0.011788  0  3.94031  0  0  -0.00859  0  3.957099  0  0  0.019285  -0.013723  0  3.929009  0
C  C32  1  0.21876574  0.50756927  0.31283427  1  0  0.011127  0  3.694758  0  0  -0.016637  0  3.962854  0  0  -0.01523  0  3.978703  0  0  0.012641  -0.017533  0  3.951496  0
C  C33  1  0.49243132  0.78123106  0.18716683  1  0  0.011193  0  3.694732  0  0  -0.016569  0  3.962788  0  0  -0.015159  0  3.978632  0  0  0.012662  -0.017466  0  3.951433  0
C  C34  1  0.78123353  0.49243078  0.68716504  1  0  0.011068  0  3.694705  0  0  -0.016687  0  3.962817  0  0  -0.015278  0  3.978662  0  0  0.012638  -0.017584  0  3.95146  0
C  C35  1  0.50756904  0.21876899  0.81283330  1  0  0.01121  0  3.694734  0  0  -0.016553  0  3.962791  0  0  -0.015144  0  3.978641  0  0  0.012666  -0.01745  0  3.951438  0
C  C36  1  0.83047360  0.13980337  0.38235036  1  0  0.004841  0  3.721542  0  0  -0.025962  0  3.986386  0  0  -0.022909  0  4.002873  0  0  0.016848  -0.028368  0  3.976174  0
C  C37  1  0.86020124  0.16952562  0.11765195  1  0  0.004892  0  3.7215  0  0  -0.025894  0  3.986325  0  0  -0.022851  0  4.002799  0  0  0.016844  -0.028301  0  3.976112  0
C  C38  1  0.16952594  0.86020164  0.61765065  1  0  0.004919  0  3.721552  0  0  -0.025871  0  3.98639  0  0  -0.022823  0  4.002868  0  0  0.016862  -0.028278  0  3.976179  0
C  C39  1  0.13980236  0.83047443  0.88234904  1  0  0.004923  0  3.721527  0  0  -0.025851  0  3.986333  0  0  -0.0228  0  4.002817  0  0  0.016861  -0.028261  0  3.976127  0
C  C40  1  0.86249266  0.01481600  0.41358044  1  0  0.002482  0  3.71556  0  0  -0.023825  0  3.977974  0  0  -0.02289  0  3.993883  0  0  0.012167  -0.024526  0  3.967057  0
C  C41  1  0.98519165  0.13750726  0.08641987  1  0  0.002474  0  3.715522  0  0  -0.023834  0  3.977933  0  0  -0.022894  0  3.993832  0  0  0.012122  -0.024534  0  3.967012  0
C  C42  1  0.13750638  0.98519021  0.58641662  1  0  0.00247  0  3.715465  0  0  -0.023845  0  3.977857  0  0  -0.022912  0  3.993762  0  0  0.012136  -0.024547  0  3.966938  0
C  C43  1  0.01481256  0.86249403  0.91358116  1  0  0.002527  0  3.715571  0  0  -0.023777  0  3.977971  0  0  -0.022836  0  3.993873  0  0  0.012159  -0.024478  0  3.967053  0
C  C44  1  0.27925860  0.99607323  0.16733232  1  0  0.001384  0  3.693031  0  0  -0.025811  0  3.959456  0  0  -0.024851  0  3.974856  0  0  0.012555  -0.026362  0  3.949226  0
C  C45  1  0.00392447  0.72074122  0.33266877  1  0  0.001327  0  3.693053  0  0  -0.025882  0  3.959457  0  0  -0.024927  0  3.974864  0  0  0.012529  -0.026431  0  3.949227  0
C  C46  1  0.72074272  0.00392435  0.83266857  1  0  0.001371  0  3.693005  0  0  -0.025838  0  3.9594  0  0  -0.024883  0  3.974807  0  0  0.012559  -0.026387  0  3.94917  0
C  C47  1  0.99607265  0.27925884  0.66733209  1  0  0.001334  0  3.693056  0  0  -0.025861  0  3.959478  0  0  -0.024901  0  3.97488  0  0  0.012543  -0.026411  0  3.94925  0
C  C48  1  0.38175264  0.09036691  0.08954880  1  0  0.025517  0  3.684922  0  0  -0.011286  0  3.950946  0  0  -0.007762  0  3.967697  0  0  0.020672  -0.013216  0  3.939403  0
C  C49  1  0.90962948  0.61824397  0.41045093  1  0  0.025573  0  3.684953  0  0  -0.011248  0  3.950988  0  0  -0.007723  0  3.967746  0  0  0.020707  -0.01318  0  3.939444  0
C  C50  1  0.61824651  0.90963067  0.91045125  1  0  0.025559  0  3.684977  0  0  -0.011256  0  3.950998  0  0  -0.007732  0  3.967752  0  0  0.020693  -0.013174  0  3.939461  0
C  C51  1  0.09036690  0.38175237  0.58954824  1  0  0.025555  0  3.684872  0  0  -0.011246  0  3.950893  0  0  -0.007722  0  3.967648  0  0  0.020684  -0.013176  0  3.93935  0
N  N52  1  0.38331084  0.41270306  0.37250034  1  0  -0.316117  0  3.261371  0  0  -0.270895  0  3.553703  0  0  -0.284687  0  3.574869  0  0  -0.313837  -0.261191  0  3.538912  0
N  N53  1  0.58729544  0.61668623  0.12749963  1  0  -0.316105  0  3.261309  0  0  -0.270877  0  3.553636  0  0  -0.284672  0  3.574805  0  0  -0.313835  -0.261175  0  3.538846  0
N  N54  1  0.61669060  0.58729698  0.62749981  1  0  -0.316025  0  3.261355  0  0  -0.2708  0  3.553665  0  0  -0.284592  0  3.574832  0  0  -0.313787  -0.261098  0  3.538876  0
N  N55  1  0.41270492  0.38331382  0.87250050  1  0  -0.316073  0  3.261353  0  0  -0.270847  0  3.553674  0  0  -0.28464  0  3.574843  0  0  -0.313832  -0.261145  0  3.538886  0
N  N56  1  0.40370766  0.54131975  0.43459072  1  0  -0.222887  0  3.36275  0  0  -0.180275  0  3.64951  0  0  -0.190892  0  3.675038  0  0  -0.271154  -0.172532  0  3.631564  0
N  N57  1  0.45868171  0.59629336  0.06540840  1  0  -0.222755  0  3.362767  0  0  -0.180126  0  3.649499  0  0  -0.190744  0  3.675027  0  0  -0.271092  -0.172384  0  3.631548  0
N  N58  1  0.59629329  0.45868153  0.56540866  1  0  -0.222919  0  3.362734  0  0  -0.180293  0  3.649489  0  0  -0.190914  0  3.675022  0  0  -0.271171  -0.172549  0  3.63154  0
N  N59  1  0.54131865  0.40370669  0.93459173  1  0  -0.222759  0  3.362742  0  0  -0.180131  0  3.649476  0  0  -0.190751  0  3.675006  0  0  -0.271079  -0.17239  0  3.631529  0
N  N60  1  0.30618104  0.60089778  0.40096222  1  0  -0.313719  0  3.161311  0  0  -0.272919  0  3.439443  0  0  -0.283981  0  3.459874  0  0  -0.299242  -0.265358  0  3.425773  0
N  N61  1  0.39910396  0.69381886  0.09903737  1  0  -0.313809  0  3.161424  0  0  -0.273021  0  3.439579  0  0  -0.284084  0  3.460007  0  0  -0.299293  -0.26546  0  3.425907  0
N  N62  1  0.69381764  0.39910103  0.59903784  1  0  -0.313743  0  3.161325  0  0  -0.272947  0  3.439458  0  0  -0.284011  0  3.459889  0  0  -0.29926  -0.265385  0  3.425788  0
N  N63  1  0.60089748  0.30618119  0.90096278  1  0  -0.313814  0  3.161412  0  0  -0.273019  0  3.439557  0  0  -0.284083  0  3.459988  0  0  -0.299289  -0.265458  0  3.425889  0
N  N64  1  0.68427223  0.11012902  0.42113463  1  0  -0.310584  0  3.249447  0  0  -0.267086  0  3.541594  0  0  -0.280275  0  3.561711  0  0  -0.308912  -0.257593  0  3.528036  0
N  N65  1  0.88987202  0.31572374  0.07886731  1  0  -0.310579  0  3.249447  0  0  -0.267096  0  3.541606  0  0  -0.280282  0  3.561727  0  0  -0.308902  -0.257604  0  3.52805  0
N  N66  1  0.31572321  0.88986980  0.57886616  1  0  -0.310588  0  3.249464  0  0  -0.267109  0  3.541626  0  0  -0.280299  0  3.561749  0  0  -0.308902  -0.257619  0  3.528072  0
N  N67  1  0.11012990  0.68427507  0.92113362  1  0  -0.31065  0  3.249509  0  0  -0.26717  0  3.541672  0  0  -0.28036  0  3.561792  0  0  -0.308935  -0.257678  0  3.528114  0
N  N68  1  0.62974312  0.97180262  0.47368541  1  0  -0.22212  0  3.342732  0  0  -0.18351  0  3.638362  0  0  -0.193875  0  3.662245  0  0  -0.264076  -0.175557  0  3.621072  0
N  N69  1  0.02819860  0.37025708  0.02631568  1  0  -0.222091  0  3.342676  0  0  -0.18347  0  3.638294  0  0  -0.193839  0  3.662184  0  0  -0.264022  -0.17552  0  3.621007  0
N  N70  1  0.37025724  0.02819743  0.52631393  1  0  -0.222166  0  3.342726  0  0  -0.183551  0  3.638356  0  0  -0.193918  0  3.662242  0  0  -0.264082  -0.175597  0  3.621066  0
N  N71  1  0.97180345  0.62974421  0.97368610  1  0  -0.22209  0  3.342746  0  0  -0.183468  0  3.638365  0  0  -0.193835  0  3.662252  0  0  -0.264049  -0.175514  0  3.621075  0
N  N72  1  0.73443749  0.91171846  0.47077670  1  0  -0.30984  0  3.147444  0  0  -0.273826  0  3.431524  0  0  -0.283705  0  3.450328  0  0  -0.296151  -0.266659  0  3.418882  0
N  N73  1  0.08828578  0.26556429  0.02922322  1  0  -0.309882  0  3.147441  0  0  -0.273858  0  3.431519  0  0  -0.283737  0  3.450324  0  0  -0.296178  -0.266692  0  3.418878  0
N  N74  1  0.26556636  0.08828652  0.52922203  1  0  -0.309779  0  3.147315  0  0  -0.273747  0  3.431387  0  0  -0.283626  0  3.450191  0  0  -0.296137  -0.266581  0  3.418745  0
N  N75  1  0.91171734  0.73443699  0.97077700  1  0  -0.309876  0  3.147493  0  0  -0.273856  0  3.431567  0  0  -0.283737  0  3.450373  0  0  -0.296145  -0.266691  0  3.418926  0
N  N76  1  0.35440645  0.07147019  0.26288190  1  0  -0.318799  0  3.144101  0  0  -0.279032  0  3.423998  0  0  -0.288829  0  3.44185  0  0  -0.29136  -0.272351  0  3.412598  0
N  N77  1  0.92852930  0.64559170  0.23711791  1  0  -0.318768  0  3.144054  0  0  -0.278999  0  3.423945  0  0  -0.288796  0  3.441801  0  0  -0.291339  -0.272317  0  3.412543  0
N  N78  1  0.64559330  0.92852862  0.73711739  1  0  -0.318824  0  3.144046  0  0  -0.279061  0  3.423944  0  0  -0.288857  0  3.441795  0  0  -0.291373  -0.27238  0  3.412545  0
N  N79  1  0.07146985  0.35440587  0.76288214  1  0  -0.318775  0  3.144051  0  0  -0.279011  0  3.423945  0  0  -0.288808  0  3.441798  0  0  -0.291344  -0.272328  0  3.412544  0
N  N80  1  0.49630312  0.20525462  0.24338882  1  0  -0.216079  0  3.334079  0  0  -0.174629  0  3.620967  0  0  -0.184677  0  3.645056  0  0  -0.261406  -0.167642  0  3.604705  0
N  N81  1  0.79474533  0.50369553  0.25661103  1  0  -0.216062  0  3.334057  0  0  -0.174609  0  3.620941  0  0  -0.18466  0  3.645034  0  0  -0.261438  -0.167623  0  3.604678  0
N  N82  1  0.50369616  0.79474543  0.75661128  1  0  -0.216065  0  3.334078  0  0  -0.174617  0  3.620962  0  0  -0.184666  0  3.645053  0  0  -0.261428  -0.167632  0  3.604701  0
N  N83  1  0.20525381  0.49630204  0.74338823  1  0  -0.216046  0  3.334038  0  0  -0.17459  0  3.620923  0  0  -0.18464  0  3.645012  0  0  -0.26142  -0.167605  0  3.604659  0
N  N84  1  0.51618649  0.22070258  0.13902665  1  0  -0.309222  0  3.233734  0  0  -0.26062  0  3.518855  0  0  -0.274061  0  3.539456  0  0  -0.309333  -0.25076  0  3.504  0
N  N85  1  0.77929555  0.48381218  0.36097238  1  0  -0.309287  0  3.233716  0  0  -0.260688  0  3.518849  0  0  -0.274128  0  3.539452  0  0  -0.309341  -0.250825  0  3.503994  0
N  N86  1  0.48381494  0.77929747  0.86097271  1  0  -0.309264  0  3.233801  0  0  -0.26067  0  3.518935  0  0  -0.274108  0  3.539536  0  0  -0.30936  -0.250808  0  3.504075  0
N  N87  1  0.22070312  0.51618663  0.63902689  1  0  -0.30927  0  3.233753  0  0  -0.260675  0  3.518867  0  0  -0.274113  0  3.539469  0  0  -0.309337  -0.250811  0  3.504012  0
