# generated using pymatgen
data_YH2(CO3)2
_symmetry_space_group_name_H-M   'P 1'
_cell_length_a   7.77752313
_cell_length_b   8.47986161
_cell_length_c   9.56797538
_cell_angle_alpha   89.99998721
_cell_angle_beta   90.00007313
_cell_angle_gamma   117.31205993
_symmetry_Int_Tables_number   1
_chemical_formula_structural   YH2(CO3)2
_chemical_formula_sum   'Y4 H8 C8 O24'
_cell_volume   560.68335431
_cell_formula_units_Z   4
loop_
 _symmetry_equiv_pos_site_id
 _symmetry_equiv_pos_as_xyz
  1  'x, y, z'
loop_
 _atom_site_type_symbol
 _atom_site_label
 _atom_site_symmetry_multiplicity
 _atom_site_fract_x
 _atom_site_fract_y
 _atom_site_fract_z
 _atom_site_occupancy
 _atom_site_pbe_bader_spin_density
 _atom_site_pbe_cm5_charge
 _atom_site_pbe_ddec_charge
 _atom_site_pbe_ddec_spin_density
 _atom_site_pbe_ddec_sum_bond_order
 _atom_site_pbe_magmom
Y  Y0  1  0.29228869  0.58462160  0.25010943  1  0  1.321635  1.809864  0  2.35121  0
Y  Y1  1  0.70771078  0.41537757  0.75010991  1  0  1.321635  1.809865  0  2.351265  0
Y  Y2  1  0.70794759  0.41586984  0.24991631  1  0  1.321497  1.809777  0  2.35203  0
Y  Y3  1  0.29205255  0.58413066  0.74991632  1  0  1.321518  1.809808  0  2.351984  0
H  H4  1  0.00552881  0.79900665  0.25548135  1  0  0.309023  0.405349  0  0.918314  0
H  H5  1  0.99447067  0.20099252  0.75548216  1  0  0.309031  0.405347  0  0.918322  0
H  H6  1  0.20634414  0.20096624  0.74448465  1  0  0.309097  0.405071  0  0.918478  0
H  H7  1  0.79365599  0.79903425  0.24448466  1  0  0.309099  0.405084  0  0.918462  0
H  H8  1  0.20660485  0.20150629  0.25542717  1  0  0.308803  0.404586  0  0.919043  0
H  H9  1  0.79339592  0.79849287  0.75542765  1  0  0.308827  0.404595  0  0.919022  0
H  H10  1  0.00529942  0.79849580  0.74456078  1  0  0.308918  0.405011  0  0.918744  0
H  H11  1  0.99469938  0.20150204  0.24456216  1  0  0.30891  0.40502  0  0.918727  0
C  C12  1  0.40089957  0.00025042  0.25763151  1  0  0.241058  0.505001  0  4.187819  0
C  C13  1  0.59910120  0.99974875  0.75763176  1  0  0.241126  0.505102  0  4.187714  0
C  C14  1  0.40067622  0.99973468  0.74233897  1  0  0.241395  0.505771  0  4.188204  0
C  C15  1  0.59932581  0.00026449  0.24233894  1  0  0.241436  0.505803  0  4.188261  0
C  C16  1  0.91672839  0.44708621  0.50002053  1  0  0.281653  0.861155  0  4.247959  0
C  C17  1  0.08327129  0.55291415  0.00002298  1  0  0.281594  0.861029  0  4.248044  0
C  C18  1  0.46992272  0.55280293  0.49999834  1  0  0.281743  0.860252  0  4.250894  0
C  C19  1  0.53007372  0.44719611  0.99999814  1  0  0.281737  0.860217  0  4.250842  0
O  O20  1  0.25302123  0.85035044  0.26327936  1  0  -0.313475  -0.536106  0  2.310835  0
O  O21  1  0.74698022  0.14965006  0.76327888  1  0  -0.313494  -0.53615  0  2.310827  0
O  O22  1  0.40270869  0.14963216  0.73687395  1  0  -0.31431  -0.536374  0  2.310725  0
O  O23  1  0.59729076  0.85036700  0.23687374  1  0  -0.314324  -0.536378  0  2.310788  0
O  O24  1  0.40289280  0.15012443  0.26315409  1  0  -0.314357  -0.536277  0  2.310218  0
O  O25  1  0.59710798  0.84987474  0.76315436  1  0  -0.314381  -0.53631  0  2.310181  0
O  O26  1  0.25278216  0.84983826  0.73664910  1  0  -0.313866  -0.536555  0  2.310786  0
O  O27  1  0.74721858  0.15016090  0.23664918  1  0  -0.313865  -0.536545  0  2.310794  0
O  O28  1  0.00159863  0.49387452  0.38083392  1  0  -0.408887  -0.690676  0  2.336599  0
O  O29  1  0.99839851  0.50612471  0.88083258  1  0  -0.408828  -0.690591  0  2.336552  0
O  O30  1  0.50826008  0.50633518  0.61920018  1  0  -0.408196  -0.689998  0  2.336899  0
O  O31  1  0.49173658  0.49366391  0.11919993  1  0  -0.408225  -0.689993  0  2.336901  0
O  O32  1  0.72885927  0.35361742  0.49996087  1  0  -0.392959  -0.713718  0  2.180924  0
O  O33  1  0.27114004  0.64638320  0.99996084  1  0  -0.392957  -0.71369  0  2.180944  0
O  O34  1  0.37506780  0.64587255  0.50005890  1  0  -0.394231  -0.714174  0  2.183644  0
O  O35  1  0.62493383  0.35412914  0.00005673  1  0  -0.394186  -0.714161  0  2.183562  0
O  O36  1  0.00145499  0.49335300  0.61929816  1  0  -0.408744  -0.690425  0  2.336842  0
O  O37  1  0.99854424  0.50664609  0.11929739  1  0  -0.408735  -0.690373  0  2.336852  0
O  O38  1  0.50857726  0.50677179  0.38073384  1  0  -0.408465  -0.689917  0  2.3378  0
O  O39  1  0.49142440  0.49322877  0.88073617  1  0  -0.40846  -0.689876  0  2.33784  0
O  O40  1  0.13677454  0.27372904  0.25017105  1  0  -0.623567  -0.818453  0  2.072545  0
O  O41  1  0.86322555  0.72626879  0.75016953  1  0  -0.623599  -0.818447  0  2.072552  0
O  O42  1  0.86346647  0.72681813  0.24981812  1  0  -0.623805  -0.819261  0  2.071419  0
O  O43  1  0.13653429  0.27318104  0.74982012  1  0  -0.623819  -0.81926  0  2.071453  0
