# generated using pymatgen
data_ZnH16C12N2O5
_symmetry_space_group_name_H-M   'P 1'
_cell_length_a   10.42477009
_cell_length_b   17.45241463
_cell_length_c   17.45218314
_cell_angle_alpha   120.00044776
_cell_angle_beta   89.99999509
_cell_angle_gamma   90.00000684
_symmetry_Int_Tables_number   1
_chemical_formula_structural   ZnH16C12N2O5
_chemical_formula_sum   'Zn6 H96 C72 N12 O30'
_cell_volume   2749.79578408
_cell_formula_units_Z   6
loop_
 _symmetry_equiv_pos_site_id
 _symmetry_equiv_pos_as_xyz
  1  'x, y, z'
loop_
 _atom_site_type_symbol
 _atom_site_label
 _atom_site_symmetry_multiplicity
 _atom_site_fract_x
 _atom_site_fract_y
 _atom_site_fract_z
 _atom_site_occupancy
 _atom_site_pbe_bader_charge
 _atom_site_pbe_bader_spin_density
 _atom_site_pbe_cm5_charge
 _atom_site_pbe_ddec_charge
 _atom_site_pbe_ddec_spin_density
 _atom_site_pbe_ddec_sum_bond_order
 _atom_site_pbe_magmom
Zn  Zn0  1  0.90813798  0.07533044  0.53930837  1  1.269818  0  0.685788  0.789463  0  2.313088  0
Zn  Zn1  1  0.74138520  0.53929596  0.46398627  1  1.26598  0  0.685466  0.788327  0  2.314607  0
Zn  Zn2  1  0.57481266  0.46397719  0.92467488  1  1.267168  0  0.685996  0.789177  0  2.313148  0
Zn  Zn3  1  0.40813760  0.92466943  0.46069169  1  1.269814  0  0.685775  0.789444  0  2.313135  0
Zn  Zn4  1  0.24138471  0.46070423  0.53601347  1  1.265982  0  0.685477  0.788363  0  2.314575  0
Zn  Zn5  1  0.07481225  0.53602243  0.07532429  1  1.267164  0  0.686026  0.789218  0  2.31311  0
H  H6  1  0.90594809  0.93071181  0.59934933  1  0.634202  0  0.28534  0.339846  0  1.020429  0
H  H7  1  0.73924989  0.59933378  0.66861872  1  0.645316  0  0.284807  0.338677  0  1.022046  0
H  H8  1  0.57266881  0.66863414  0.06928518  1  0.634345  0  0.285074  0.338394  0  1.022433  0
H  H9  1  0.40594754  0.06928806  0.40065073  1  0.633381  0  0.285325  0.339825  0  1.020463  0
H  H10  1  0.23924942  0.40066642  0.33138101  1  0.645319  0  0.284806  0.338676  0  1.022049  0
H  H11  1  0.07266919  0.33136629  0.93071546  1  0.633981  0  0.285083  0.338405  0  1.022411  0
H  H12  1  0.02024511  0.92636957  0.45868208  1  0.468252  0  0.295933  0.249501  0  0.992505  0
H  H13  1  0.85351907  0.45872115  0.53233192  1  0.476351  0  0.295649  0.249315  0  0.99191  0
H  H14  1  0.68695525  0.53234254  0.07363984  1  0.472878  0  0.296032  0.249504  0  0.991992  0
H  H15  1  0.52024549  0.07363028  0.54131799  1  0.468928  0  0.295932  0.249498  0  0.99251  0
H  H16  1  0.35351957  0.54127848  0.46766724  1  0.476345  0  0.295665  0.249339  0  0.991879  0
H  H17  1  0.18695566  0.46765765  0.92635990  1  0.472724  0  0.29603  0.249507  0  0.991996  0
H  H18  1  0.21487194  0.68628447  0.22083382  1  0.13868  0  0.122137  0.098786  0  1.02771  0
H  H19  1  0.04815452  0.22087032  0.53458328  1  0.135644  0  0.121835  0.098529  0  1.028026  0
H  H20  1  0.88149669  0.53459571  0.31378476  1  0.138506  0  0.121648  0.09857  0  1.028148  0
H  H21  1  0.71487138  0.31371572  0.77916592  1  0.138678  0  0.122136  0.098781  0  1.02772  0
H  H22  1  0.54815410  0.77912954  0.46541680  1  0.135605  0  0.121834  0.098522  0  1.028037  0
H  H23  1  0.38149618  0.46540474  0.68621588  1  0.136374  0  0.121632  0.098501  0  1.028223  0
H  H24  1  0.18021603  0.84609661  0.33045782  1  0.118271  0  0.112547  0.127041  0  1.030138  0
H  H25  1  0.01351876  0.33050198  0.48440224  1  0.105065  0  0.112796  0.127336  0  1.030011  0
H  H26  1  0.84690121  0.48437698  0.15394346  1  0.133955  0  0.112264  0.126757  0  1.030061  0
H  H27  1  0.68021545  0.15390358  0.66954192  1  0.117733  0  0.112541  0.127019  0  1.030196  0
H  H28  1  0.51351831  0.66949821  0.51559750  1  0.10507  0  0.112794  0.127335  0  1.030028  0
H  H29  1  0.34690069  0.51562322  0.84605627  1  0.133319  0  0.112277  0.126795  0  1.030037  0
H  H30  1  0.80575884  0.82221147  0.21341838  1  0.093132  0  0.115555  0.128346  0  0.982408  0
H  H31  1  0.63907692  0.21342503  0.39121582  1  0.099474  0  0.115841  0.129064  0  0.981688  0
H  H32  1  0.47247759  0.39120048  0.17776285  1  0.096077  0  0.115979  0.129255  0  0.981752  0
H  H33  1  0.30575922  0.17778840  0.78658169  1  0.09313  0  0.115547  0.128337  0  0.982385  0
H  H34  1  0.13907744  0.78657483  0.60878425  1  0.099472  0  0.115838  0.129061  0  0.981698  0
H  H35  1  0.97247804  0.60879973  0.82223689  1  0.096077  0  0.115979  0.129259  0  0.981747  0
H  H36  1  0.85305676  0.66390654  0.11212900  1  0.164302  0  0.11683  0.097192  0  1.034761  0
H  H37  1  0.68636044  0.11216660  0.44826296  1  0.157296  0  0.117128  0.096652  0  1.035347  0
H  H38  1  0.51966232  0.44822157  0.33606404  1  0.168274  0  0.11714  0.096906  0  1.034857  0
H  H39  1  0.35305716  0.33609366  0.88787073  1  0.164011  0  0.116839  0.097215  0  1.034764  0
H  H40  1  0.18636099  0.88783326  0.55173710  1  0.157299  0  0.117136  0.096649  0  1.035364  0
H  H41  1  0.01966279  0.55177861  0.66393571  1  0.167973  0  0.117137  0.096894  0  1.034845  0
H  H42  1  0.04400680  0.98459714  0.36407078  1  0.103846  0  0.118934  0.115644  0  0.969262  0
H  H43  1  0.87729418  0.36408341  0.37950068  1  0.104037  0  0.119452  0.116626  0  0.968517  0
H  H44  1  0.71074857  0.37950151  0.01541968  1  0.098968  0  0.119697  0.116847  0  0.968281  0
H  H45  1  0.54400716  0.01540271  0.63592929  1  0.103838  0  0.118929  0.115624  0  0.969269  0
H  H46  1  0.37729371  0.63591646  0.62049939  1  0.103258  0  0.11944  0.116614  0  0.968517  0
H  H47  1  0.21074804  0.62049926  0.98458063  1  0.10097  0  0.119685  0.116852  0  0.968235  0
H  H48  1  0.87712829  0.96772384  0.33725889  1  0.063987  0  0.109991  0.094639  0  0.967262  0
H  H49  1  0.71042527  0.33725248  0.36955705  1  0.052639  0  0.109794  0.094547  0  0.96664  0
H  H50  1  0.54389021  0.36956463  0.03229014  1  0.057392  0  0.110901  0.095643  0  0.966689  0
H  H51  1  0.37712866  0.03227604  0.66274118  1  0.063987  0  0.109983  0.094637  0  0.967247  0
H  H52  1  0.21042576  0.66274738  0.63044301  1  0.052645  0  0.109784  0.094548  0  0.966676  0
H  H53  1  0.04388969  0.63043555  0.96770960  1  0.057383  0  0.110899  0.095632  0  0.966691  0
H  H54  1  0.80373481  0.83970250  0.36644193  1  0.092909  0  0.113705  0.087241  0  1.005022  0
H  H55  1  0.63703947  0.36641497  0.52676380  1  0.061059  0  0.113863  0.087958  0  1.004842  0
H  H56  1  0.47046893  0.52675614  0.16033939  1  0.064379  0  0.113913  0.087243  0  1.004849  0
H  H57  1  0.30373425  0.16029794  0.63355871  1  0.092891  0  0.113697  0.08723  0  1.005007  0
H  H58  1  0.13703902  0.63358489  0.47323627  1  0.061062  0  0.113862  0.087968  0  1.004852  0
H  H59  1  0.97046839  0.47324407  0.83966034  1  0.064448  0  0.11391  0.087237  0  1.004843  0
H  H60  1  0.77561907  0.81472415  0.50051020  1  0.071132  0  0.100664  0.038998  0  0.992461  0
H  H61  1  0.60893717  0.50051818  0.68583231  1  0.060289  0  0.100111  0.03892  0  0.992726  0
H  H62  1  0.44233979  0.68579174  0.18526985  1  0.060182  0  0.100191  0.03889  0  0.992753  0
H  H63  1  0.27561949  0.18527572  0.49948987  1  0.071136  0  0.100666  0.039007  0  0.992455  0
H  H64  1  0.10893768  0.49948201  0.31416743  1  0.059802  0  0.100114  0.038926  0  0.992721  0
H  H65  1  0.94233922  0.31420904  0.81473046  1  0.060188  0  0.10019  0.038895  0  0.992746  0
H  H66  1  0.87265334  0.70610547  0.35442554  1  0.019361  0  0.086451  0.122123  0  1.016697  0
H  H67  1  0.70599637  0.35443981  0.64835454  1  0.024966  0  0.086055  0.121708  0  1.017606  0
H  H68  1  0.53931074  0.64835680  0.29391273  1  0.015178  0  0.086411  0.122054  0  1.017317  0
H  H69  1  0.37265377  0.29389440  0.64557452  1  0.019552  0  0.086454  0.122152  0  1.016664  0
H  H70  1  0.20599595  0.64556095  0.35164577  1  0.024793  0  0.086053  0.121699  0  1.017615  0
H  H71  1  0.03931116  0.35164396  0.70608759  1  0.015954  0  0.08641  0.122046  0  1.017331  0
H  H72  1  0.94485733  0.70379919  0.44549561  1  0.057158  0  0.090529  0.137484  0  1.017886  0
H  H73  1  0.77822051  0.44550842  0.74174429  1  0.055514  0  0.090746  0.137621  0  1.018081  0
H  H74  1  0.61153488  0.74174152  0.29624092  1  0.016514  0  0.090485  0.137435  0  1.017603  0
H  H75  1  0.44485776  0.29620069  0.55450445  1  0.057161  0  0.090528  0.137502  0  1.01788  0
H  H76  1  0.27822104  0.55449260  0.25825692  1  0.055539  0  0.090744  0.137633  0  1.018112  0
H  H77  1  0.11153529  0.25825834  0.70375915  1  0.016507  0  0.090487  0.137444  0  1.017589  0
H  H78  1  0.02553634  0.75658040  0.39384637  1  0.013617  0  0.080095  0.111165  0  1.04406  0
H  H79  1  0.85887073  0.39385385  0.63727898  1  0.000473  0  0.080233  0.111429  0  1.043866  0
H  H80  1  0.69220620  0.63729544  0.24346950  1  0.017883  0  0.080069  0.110991  0  1.044213  0
H  H81  1  0.52553675  0.24341945  0.60615370  1  0.013609  0  0.080095  0.111181  0  1.044032  0
H  H82  1  0.35887126  0.60614659  0.36272165  1  0.000459  0  0.08023  0.111456  0  1.04388  0
H  H83  1  0.19220662  0.36270442  0.75653057  1  0.017884  0  0.080063  0.110984  0  1.044231  0
H  H84  1  0.99347607  0.18284906  0.82917288  1  0.078848  0  0.098046  0.157817  0  1.012224  0
H  H85  1  0.82672714  0.82912345  0.64624392  1  0.067607  0  0.098261  0.157971  0  1.011778  0
H  H86  1  0.66009994  0.64630712  0.81716385  1  0.092693  0  0.0981  0.157437  0  1.011946  0
H  H87  1  0.49347570  0.81715139  0.17082775  1  0.078855  0  0.098025  0.157803  0  1.012192  0
H  H88  1  0.32672662  0.17087585  0.35375557  1  0.067598  0  0.098269  0.157986  0  1.011764  0
H  H89  1  0.16009948  0.35369308  0.18283589  1  0.092695  0  0.098088  0.157412  0  1.011977  0
H  H90  1  0.88779123  0.11016300  0.84457214  1  0.05168  0  0.09502  0.149977  0  0.990409  0
H  H91  1  0.72109219  0.84454890  0.73433543  1  0.048213  0  0.09492  0.149746  0  0.990144  0
H  H92  1  0.55438346  0.73437103  0.88980056  1  0.094943  0  0.09537  0.150064  0  0.990619  0
H  H93  1  0.38779088  0.88983744  0.15542850  1  0.051686  0  0.095027  0.150005  0  0.990385  0
H  H94  1  0.22109168  0.15545096  0.26566464  1  0.048215  0  0.094918  0.149732  0  0.990163  0
H  H95  1  0.05438395  0.26562883  0.11019951  1  0.095006  0  0.095369  0.15006  0  0.990626  0
H  H96  1  0.82709350  0.20320024  0.83978963  1  0.035183  0  0.094693  0.14607  0  1.006921  0
H  H97  1  0.66034937  0.83977645  0.63653723  1  0.047936  0  0.094544  0.145404  0  1.007472  0
H  H98  1  0.49373272  0.63650987  0.79676186  1  0.051384  0  0.094431  0.145488  0  1.007384  0
H  H99  1  0.32709313  0.79679930  0.16021077  1  0.035537  0  0.094706  0.146086  0  1.006891  0
H  H100  1  0.16034885  0.16022365  0.36346374  1  0.047916  0  0.094544  0.145398  0  1.00751  0
H  H101  1  0.99373225  0.36349001  0.20323821  1  0.051384  0  0.094432  0.145493  0  1.007357  0
C  C102  1  0.12585415  0.71956241  0.22221932  1  0.48495  0  0.048732  0.09367  0  3.926682  0
C  C103  1  0.95912809  0.22225820  0.50270022  1  0.43519  0  0.048561  0.09256  0  3.927943  0
C  C104  1  0.79247986  0.50270353  0.28050684  1  0.431571  0  0.048757  0.092612  0  3.928345  0
C  C105  1  0.62585454  0.28043745  0.77778075  1  0.484988  0  0.048766  0.093717  0  3.926667  0
C  C106  1  0.45912767  0.77774201  0.49729952  1  0.435596  0  0.048574  0.092598  0  3.927946  0
C  C107  1  0.29247935  0.49729634  0.71949323  1  0.433704  0  0.048789  0.092683  0  3.928339  0
C  C108  1  0.10606859  0.80841906  0.28212764  1  -0.024196  0  -0.079934  -0.17054  0  3.924452  0
C  C109  1  0.93938474  0.28215247  0.47372239  1  0.023646  0  -0.080072  -0.170903  0  3.92445  0
C  C110  1  0.77276048  0.47373278  0.19163019  1  0.017058  0  -0.079178  -0.169197  0  3.92175  0
C  C111  1  0.60606897  0.19158079  0.71787243  1  -0.023656  0  -0.079915  -0.170516  0  3.924479  0
C  C112  1  0.43938430  0.71784741  0.52627768  1  0.023288  0  -0.080038  -0.170886  0  3.924503  0
C  C113  1  0.27276093  0.52626741  0.80836954  1  0.017693  0  -0.07916  -0.169162  0  3.921672  0
C  C114  1  0.98989815  0.84812468  0.28119602  1  -0.082962  0  0.012507  0.142763  0  3.939734  0
C  C115  1  0.82321623  0.28121303  0.43309286  1  -0.06299  0  0.013071  0.144159  0  3.939102  0
C  C116  1  0.65663706  0.43308104  0.15189314  1  -0.057779  0  0.013227  0.144584  0  3.938098  0
C  C117  1  0.48989758  0.15187520  0.71880404  1  -0.083089  0  0.012526  0.142791  0  3.93967  0
C  C118  1  0.32321675  0.71878684  0.56690721  1  -0.062994  0  0.013069  0.144186  0  3.939121  0
C  C119  1  0.15663750  0.56691915  0.84810660  1  -0.05774  0  0.013152  0.144453  0  3.938036  0
C  C120  1  0.89864722  0.79577032  0.21771715  1  0.048598  0  -0.079578  -0.180557  0  3.940471  0
C  C121  1  0.73197009  0.21772031  0.42194804  1  -0.023329  0  -0.080073  -0.181824  0  3.940964  0
C  C122  1  0.56538516  0.42190662  0.20421627  1  -0.040773  0  -0.079802  -0.181613  0  3.941201  0
C  C123  1  0.39864760  0.20423013  0.78228349  1  0.048734  0  -0.079582  -0.18055  0  3.940441  0
C  C124  1  0.23196966  0.78227956  0.57805203  1  -0.023335  0  -0.080079  -0.18185  0  3.940972  0
C  C125  1  0.06538466  0.57809357  0.79578347  1  -0.040782  0  -0.079833  -0.181661  0  3.941192  0
C  C126  1  0.92457297  0.70662848  0.15998493  1  0.393697  0  0.048168  0.095841  0  3.92742  0
C  C127  1  0.75786322  0.16002186  0.45338504  1  0.463719  0  0.048369  0.09673  0  3.928903  0
C  C128  1  0.59123129  0.45333509  0.29335802  1  0.454787  0  0.047837  0.095607  0  3.928786  0
C  C129  1  0.42457240  0.29337173  0.84001481  1  0.393919  0  0.048176  0.095814  0  3.927431  0
C  C130  1  0.25786281  0.83997801  0.54661502  1  0.463714  0  0.048364  0.096741  0  3.928929  0
C  C131  1  0.09123175  0.54666476  0.70664205  1  0.455096  0  0.04788  0.095696  0  3.928767  0
C  C132  1  0.96174790  0.94109384  0.35355149  1  0.240178  0  -0.061955  -0.089114  0  3.897827  0
C  C133  1  0.79504871  0.35355828  0.41248317  1  0.247045  0  -0.063442  -0.091988  0  3.897842  0
C  C134  1  0.62851462  0.41248548  0.05893517  1  0.252186  0  -0.065677  -0.094554  0  3.900482  0
C  C135  1  0.46174827  0.05890603  0.64644858  1  0.240176  0  -0.061934  -0.089075  0  3.897793  0
C  C136  1  0.29504922  0.64644159  0.58751689  1  0.247821  0  -0.063437  -0.092013  0  3.897904  0
C  C137  1  0.12851410  0.58751471  0.94106457  1  0.250169  0  -0.065639  -0.094488  0  3.900366  0
C  C138  1  0.82964329  0.88723017  0.43543408  1  0.234826  0  -0.00817  -0.095663  0  3.828124  0
C  C139  1  0.66293549  0.43541478  0.54824833  1  0.259171  0  -0.008396  -0.098312  0  3.83067  0
C  C140  1  0.49637167  0.54822286  0.11281312  1  0.271876  0  -0.009465  -0.0971  0  3.829857  0
C  C141  1  0.32964273  0.11277027  0.56456655  1  0.234828  0  -0.00815  -0.095676  0  3.828098  0
C  C142  1  0.16293599  0.56458508  0.45175174  1  0.259739  0  -0.008384  -0.098354  0  3.830773  0
C  C143  1  0.99637112  0.45177735  0.88718661  1  0.271795  0  -0.009489  -0.097124  0  3.829849  0
C  C144  1  0.70773078  0.94219212  0.47493348  1  1.589131  0  0.213204  0.582976  0  4.153494  0
C  C145  1  0.54104599  0.47489959  0.53273916  1  1.574803  0  0.21287  0.581963  0  4.154192  0
C  C146  1  0.37443900  0.53276964  0.05787346  1  1.595496  0  0.212703  0.581919  0  4.155162  0
C  C147  1  0.20773117  0.05780774  0.52506659  1  1.589165  0  0.213192  0.582965  0  4.153494  0
C  C148  1  0.04104553  0.52510059  0.46726058  1  1.574809  0  0.212897  0.582006  0  4.154184  0
C  C149  1  0.87443941  0.46723023  0.94212660  1  1.595495  0  0.212699  0.58193  0  4.155202  0
C  C150  1  0.86620524  0.83061214  0.47884134  1  0.48386  0  -0.002427  0.246983  0  3.861952  0
C  C151  1  0.69951855  0.47883322  0.64827059  1  0.515345  0  -0.000332  0.249013  0  3.861338  0
C  C152  1  0.53292116  0.64824088  0.16940304  1  0.493981  0  -0.001029  0.247607  0  3.862313  0
C  C153  1  0.36620470  0.16938716  0.52115815  1  0.483856  0  -0.0024  0.247027  0  3.86193  0
C  C154  1  0.19951810  0.52116697  0.35172915  1  0.51608  0  -0.000331  0.249043  0  3.861333  0
C  C155  1  0.03292156  0.35175931  0.83059670  1  0.493874  0  -0.001007  0.24762  0  3.862233  0
C  C156  1  0.93154961  0.74410598  0.41395926  1  -0.047861  0  -0.252713  -0.426984  0  3.912218  0
C  C157  1  0.76490607  0.41396838  0.66990187  1  -0.048278  0  -0.253623  -0.427864  0  3.913089  0
C  C158  1  0.59823482  0.66990206  0.25593893  1  -0.018246  0  -0.252912  -0.427077  0  3.912212  0
C  C159  1  0.43155003  0.25589389  0.58604081  1  -0.048039  0  -0.252737  -0.427085  0  3.912144  0
C  C160  1  0.26490660  0.58603264  0.33009934  1  -0.048377  0  -0.253615  -0.427904  0  3.91314  0
C  C161  1  0.09823524  0.33009755  0.74406024  1  -0.019032  0  -0.252909  -0.427068  0  3.912188  0
C  C162  1  0.88301320  0.09420252  0.71365662  1  1.548404  0  0.206759  0.679652  0  4.151725  0
C  C163  1  0.71627002  0.71362619  0.61939796  1  1.585302  0  0.206083  0.680111  0  4.151908  0
C  C164  1  0.54967831  0.61948221  0.90583814  1  1.560284  0  0.206694  0.680468  0  4.153487  0
C  C165  1  0.38301283  0.90579735  0.28634345  1  1.548385  0  0.206856  0.679864  0  4.15143  0
C  C166  1  0.21627048  0.28637367  0.38060211  1  1.585307  0  0.206033  0.680003  0  4.151967  0
C  C167  1  0.04967787  0.38051764  0.09416193  1  1.560252  0  0.206653  0.680408  0  4.153569  0
C  C168  1  0.89940876  0.15025157  0.81289762  1  -0.061431  0  -0.247797  -0.521205  0  3.901691  0
C  C169  1  0.73265216  0.81285339  0.66256712  1  -0.092497  0  -0.247925  -0.520423  0  3.901703  0
C  C170  1  0.56600673  0.66261198  0.84973446  1  -0.136323  0  -0.248412  -0.520432  0  3.902719  0
C  C171  1  0.39940840  0.84974830  0.18710245  1  -0.061791  0  -0.247796  -0.521266  0  3.901577  0
C  C172  1  0.23265165  0.18714648  0.33743294  1  -0.092482  0  -0.247912  -0.520381  0  3.901709  0
C  C173  1  0.06600723  0.33738821  0.15026528  1  -0.136382  0  -0.248406  -0.52041  0  3.902726  0
N  N174  1  0.03615529  0.66872511  0.16224971  1  -1.260292  0  -0.327351  -0.233923  0  3.534958  0
N  N175  1  0.86943210  0.16229776  0.49357655  1  -1.262277  0  -0.327533  -0.233424  0  3.53539  0
N  N176  1  0.70277044  0.49354671  0.33130852  1  -1.266754  0  -0.327441  -0.23339  0  3.536328  0
N  N177  1  0.53615568  0.33127450  0.83774946  1  -1.260266  0  -0.327397  -0.233956  0  3.534978  0
N  N178  1  0.36943170  0.83770211  0.50642352  1  -1.262281  0  -0.327558  -0.233464  0  3.535445  0
N  N179  1  0.20276994  0.50645315  0.66869154  1  -1.266761  0  -0.327447  -0.233422  0  3.536313  0
N  N180  1  0.93728212  0.94324271  0.43854354  1  -1.087743  0  -0.478111  -0.337461  0  3.53466  0
N  N181  1  0.77055417  0.43854102  0.49533157  1  -1.082858  0  -0.477613  -0.335411  0  3.532394  0
N  N182  1  0.60400281  0.49532524  0.05678219  1  -1.091294  0  -0.476862  -0.335155  0  3.533761  0
N  N183  1  0.43728155  0.05675716  0.56145652  1  -1.088404  0  -0.478123  -0.337467  0  3.534649  0
N  N184  1  0.27055371  0.56145827  0.50466792  1  -1.083424  0  -0.477611  -0.335409  0  3.53243  0
N  N185  1  0.10400228  0.50467462  0.94321788  1  -1.091131  0  -0.476859  -0.335181  0  3.533784  0
O  O186  1  0.71312553  0.02631610  0.51428643  1  -1.18726  0  -0.311104  -0.546614  0  2.31666  0
O  O187  1  0.54651567  0.51425366  0.48797147  1  -1.185288  0  -0.310529  -0.544919  0  2.31716  0
O  O188  1  0.37984816  0.48800980  0.97374062  1  -1.195492  0  -0.311079  -0.546189  0  2.317574  0
O  O189  1  0.21312611  0.97368376  0.48571363  1  -1.187266  0  -0.311111  -0.546618  0  2.316664  0
O  O190  1  0.04651519  0.48574620  0.51202860  1  -1.185283  0  -0.310566  -0.544985  0  2.317167  0
O  O191  1  0.87984871  0.51198917  0.02625920  1  -1.195474  0  -0.311048  -0.546177  0  2.31761  0
O  O192  1  0.60699762  0.89706457  0.46292362  1  -1.200307  0  -0.316297  -0.554424  0  2.371111  0
O  O193  1  0.44025240  0.46288163  0.56578431  1  -1.194259  0  -0.31685  -0.554481  0  2.371073  0
O  O194  1  0.27369433  0.56586737  0.10297815  1  -1.201846  0  -0.315867  -0.553491  0  2.371142  0
O  O195  1  0.10699801  0.10293528  0.53707645  1  -1.200336  0  -0.316285  -0.554415  0  2.371114  0
O  O196  1  0.94025193  0.53711825  0.43421575  1  -1.194275  0  -0.31686  -0.554492  0  2.371108  0
O  O197  1  0.77369378  0.43413226  0.89702101  1  -1.201851  0  -0.315872  -0.553483  0  2.371127  0
O  O198  1  0.95132175  0.87737466  0.55129750  1  -1.156476  0  -0.410182  -0.528074  0  2.241448  0
O  O199  1  0.78463602  0.55128556  0.67390967  1  -1.172124  0  -0.409863  -0.527201  0  2.242398  0
O  O200  1  0.61803671  0.67392618  0.12263173  1  -1.153225  0  -0.410269  -0.526751  0  2.243528  0
O  O201  1  0.45132120  0.12262555  0.44870223  1  -1.155654  0  -0.410189  -0.528077  0  2.241505  0
O  O202  1  0.28463556  0.44871464  0.32609007  1  -1.172108  0  -0.409862  -0.527199  0  2.242389  0
O  O203  1  0.11803711  0.32607368  0.87736834  1  -1.152737  0  -0.410265  -0.526749  0  2.243506  0
O  O204  1  0.91315679  0.13303251  0.66918726  1  -1.185362  0  -0.342405  -0.570715  0  2.291028  0
O  O205  1  0.74640498  0.66916168  0.53609912  1  -1.186475  0  -0.341542  -0.570333  0  2.291003  0
O  O206  1  0.57981422  0.53618427  0.86702242  1  -1.183479  0  -0.341946  -0.571014  0  2.291352  0
O  O207  1  0.41315738  0.86696794  0.33081338  1  -1.185365  0  -0.342465  -0.570806  0  2.290958  0
O  O208  1  0.24640543  0.33083818  0.46390094  1  -1.186481  0  -0.341549  -0.570322  0  2.291036  0
O  O209  1  0.07981379  0.46381534  0.13297675  1  -1.183465  0  -0.34194  -0.571001  0  2.291391  0
O  O210  1  0.84113985  0.01646944  0.68049183  1  -1.20203  0  -0.333297  -0.57735  0  2.152299  0
O  O211  1  0.67449355  0.68046560  0.66399426  1  -1.203472  0  -0.332846  -0.577668  0  2.15293  0
O  O212  1  0.50792295  0.66409361  0.98360043  1  -1.213086  0  -0.33314  -0.577722  0  2.154511  0
O  O213  1  0.34113949  0.98353100  0.31950881  1  -1.202011  0  -0.333329  -0.577432  0  2.152204  0
O  O214  1  0.17449402  0.31953369  0.33600524  1  -1.203469  0  -0.332815  -0.577615  0  2.152953  0
O  O215  1  0.00792251  0.33590657  0.01639931  1  -1.213071  0  -0.333095  -0.577664  0  2.154504  0
