# generated using pymatgen
data_CdH24C34S(NO3)2
_symmetry_space_group_name_H-M   'P 1'
_cell_length_a   8.22760230
_cell_length_b   12.84127854
_cell_length_c   15.08230739
_cell_angle_alpha   85.84095113
_cell_angle_beta   101.82337408
_cell_angle_gamma   90.73621527
_symmetry_Int_Tables_number   1
_chemical_formula_structural   CdH24C34S(NO3)2
_chemical_formula_sum   'Cd2 H48 C68 S2 N4 O12'
_cell_volume   1555.57171976
_cell_formula_units_Z   2
loop_
 _symmetry_equiv_pos_site_id
 _symmetry_equiv_pos_as_xyz
  1  'x, y, z'
loop_
 _atom_site_type_symbol
 _atom_site_label
 _atom_site_symmetry_multiplicity
 _atom_site_fract_x
 _atom_site_fract_y
 _atom_site_fract_z
 _atom_site_occupancy
 _atom_site_pbe_bader_charge
 _atom_site_pbe_bader_spin_density
 _atom_site_pbe_cm5_charge
 _atom_site_pbe_ddec_charge
 _atom_site_pbe_ddec_spin_density
 _atom_site_pbe_ddec_sum_bond_order
 _atom_site_pbe_magmom
Cd  Cd0  1  0.65322193  0.83314390  0.61515785  1  1.225628  0  0.768661  0.826972  0  2.14977  0
Cd  Cd1  1  0.34679463  0.16684686  0.38484373  1  1.225578  0  0.768701  0.826928  0  2.150109  0
H  H2  1  0.42910517  0.66326214  0.68460297  1  0.139395  0  0.126848  0.107777  0  0.969323  0
H  H3  1  0.57090854  0.33673507  0.31539496  1  0.139544  0  0.126905  0.107831  0  0.969356  0
H  H4  1  0.14788920  0.58663735  0.64598360  1  0.074255  0  0.112285  0.119401  0  0.99  0
H  H5  1  0.85213460  0.41336228  0.35402570  1  0.074384  0  0.112179  0.119326  0  0.989749  0
H  H6  1  0.07669074  0.77028763  0.38873607  1  0.073036  0  0.105939  0.115465  0  1.012494  0
H  H7  1  0.92328379  0.22969966  0.61128239  1  0.072835  0  0.10592  0.115359  0  1.012369  0
H  H8  1  0.35842399  0.84262366  0.43889834  1  0.158735  0  0.112864  0.085781  0  1.061894  0
H  H9  1  0.64154377  0.15737061  0.56109555  1  0.158388  0  0.112861  0.085785  0  1.061776  0
H  H10  1  0.86417038  0.64460556  0.41250861  1  0.036963  0  0.099579  0.095188  0  1.022264  0
H  H11  1  0.13580389  0.35537323  0.58750864  1  0.036466  0  0.099683  0.09531  0  1.022286  0
H  H12  1  0.88601782  0.57147495  0.61386048  1  0.062084  0  0.104748  0.102874  0  1.018968  0
H  H13  1  0.11401340  0.42851267  0.38617885  1  0.063108  0  0.104803  0.102973  0  1.019182  0
H  H14  1  0.61535482  0.58545400  0.37300232  1  0.048112  0  0.103429  0.103513  0  1.001745  0
H  H15  1  0.38467161  0.41452319  0.62702949  1  0.04805  0  0.103479  0.103635  0  1.001811  0
H  H16  1  0.66724707  0.48695119  0.65740371  1  0.117888  0  0.107863  0.116764  0  0.989627  0
H  H17  1  0.33278631  0.51302579  0.34264394  1  0.1184  0  0.107888  0.116701  0  0.98991  0
H  H18  1  0.60560898  0.75434471  0.40722295  1  0.077344  0  0.107816  0.067987  0  1.041243  0
H  H19  1  0.39440083  0.24565104  0.59277338  1  0.077364  0  0.107793  0.068015  0  1.041175  0
H  H20  1  0.71731491  0.79670149  0.26885644  1  0.065979  0  0.103773  0.110916  0  1.0156  0
H  H21  1  0.28266736  0.20330075  0.73113508  1  0.065316  0  0.103777  0.110909  0  1.015696  0
H  H22  1  0.91942659  0.07964088  0.38732093  1  0.13322  0  0.109124  0.131337  0  1.028414  0
H  H23  1  0.08055245  0.92036584  0.61267361  1  0.133204  0  0.109126  0.131321  0  1.028603  0
H  H24  1  0.80202074  0.02212739  0.52374879  1  0.143905  0  0.112934  0.08545  0  1.037409  0
H  H25  1  0.19797426  0.97786525  0.47624716  1  0.143915  0  0.112944  0.085422  0  1.037283  0
H  H26  1  0.96430113  0.05234323  0.24419744  1  0.095432  0  0.101519  0.108719  0  1.051517  0
H  H27  1  0.03568750  0.94765813  0.75579591  1  0.095434  0  0.101492  0.108713  0  1.051354  0
H  H28  1  0.83695140  0.84736456  0.15851326  1  0.074129  0  0.099205  0.092665  0  1.021053  0
H  H29  1  0.16303232  0.15264071  0.84147965  1  0.073959  0  0.099263  0.09275  0  1.021081  0
H  H30  1  0.86665605  0.82590053  0.01071652  1  0.107104  0  0.102728  0.115692  0  1.016621  0
H  H31  1  0.13333250  0.17410949  0.98927535  1  0.107474  0  0.102711  0.115602  0  1.016604  0
H  H32  1  0.05015689  0.11158970  0.13094694  1  0.10814  0  0.10182  0.105777  0  1.018962  0
H  H33  1  0.94982941  0.88841630  0.86904682  1  0.108079  0  0.101848  0.105741  0  1.018997  0
H  H34  1  0.73885251  0.18765010  0.71805523  1  0.083455  0  0.102843  0.101722  0  1.030594  0
H  H35  1  0.26114776  0.81237118  0.28193134  1  0.080989  0  0.102779  0.101733  0  1.030614  0
H  H36  1  0.68418909  0.33392395  0.81061020  1  0.085141  0  0.108303  0.116476  0  0.995718  0
H  H37  1  0.31581372  0.66609494  0.18937727  1  0.085322  0  0.108322  0.116411  0  0.995898  0
H  H38  1  0.43568145  0.11731587  0.96964967  1  0.114064  0  0.108596  0.110606  0  1.014187  0
H  H39  1  0.56429835  0.88269855  0.03032151  1  0.113876  0  0.108524  0.110488  0  1.014077  0
H  H40  1  0.48887237  0.97305030  0.87547594  1  0.117904  0  0.106863  0.109919  0  1.011972  0
H  H41  1  0.51110866  0.02697196  0.12449455  1  0.117715  0  0.106853  0.1099  0  1.011967  0
H  H42  1  0.77547660  0.19696659  0.25642776  1  0.091169  0  0.104939  0.107831  0  1.026742  0
H  H43  1  0.22453526  0.80302153  0.74356619  1  0.091312  0  0.104945  0.10784  0  1.026893  0
H  H44  1  0.53010307  0.22855808  0.13078869  1  0.121228  0  0.111344  0.125926  0  1.003259  0
H  H45  1  0.46992265  0.77141638  0.86919985  1  0.121514  0  0.111269  0.126047  0  1.003135  0
H  H46  1  0.82503322  0.43335800  0.98685310  1  0.097143  0  0.111053  0.116894  0  0.993393  0
H  H47  1  0.17497521  0.56665464  0.01315951  1  0.096638  0  0.111079  0.116852  0  0.993389  0
H  H48  1  0.07135195  0.40273847  0.11669943  1  0.096989  0  0.109806  0.118718  0  0.993809  0
H  H49  1  0.92864199  0.59727560  0.88331474  1  0.09706  0  0.109772  0.118719  0  0.993831  0
C  C50  1  0.34573702  0.68542813  0.62006580  1  0.455105  0  0.050581  0.094609  0  3.958463  0
C  C51  1  0.65426213  0.31456506  0.37993377  1  0.454861  0  0.050553  0.094566  0  3.958161  0
C  C52  1  0.18827381  0.64327843  0.59775974  1  -0.020622  0  -0.07732  -0.162894  0  3.920246  0
C  C53  1  0.81174359  0.35671210  0.40225788  1  -0.020921  0  -0.077225  -0.162901  0  3.919745  0
C  C54  1  0.08499068  0.67194219  0.51315024  1  0.018796  0  0.011947  0.162978  0  4.005785  0
C  C55  1  0.91502412  0.32805310  0.48686578  1  0.019143  0  0.011807  0.162828  0  4.006151  0
C  C56  1  0.15072347  0.74388819  0.45489592  1  -0.05071  0  -0.084322  -0.173587  0  3.906576  0
C  C57  1  0.84925665  0.25610546  0.54510822  1  -0.05052  0  -0.084199  -0.173348  0  3.90643  0
C  C58  1  0.30881415  0.78409667  0.48246159  1  0.431228  0  0.03941  0.079652  0  3.9763  0
C  C59  1  0.69115777  0.21589816  0.51753593  1  0.431841  0  0.039377  0.079629  0  3.976142  0
C  C60  1  0.91880831  0.63090267  0.48468951  1  0.018684  0  -0.091177  -0.143288  0  3.985967  0
C  C61  1  0.08120589  0.36908683  0.51533188  1  0.017291  0  -0.091265  -0.14323  0  3.986052  0
C  C62  1  0.83041603  0.58153197  0.54155286  1  -0.047974  0  -0.077902  -0.105178  0  3.981544  0
C  C63  1  0.16960928  0.41845692  0.45847868  1  -0.047708  0  -0.07794  -0.105332  0  3.982812  0
C  C64  1  0.66313779  0.54136165  0.51808882  1  -0.015519  0  -0.011895  0.099921  0  4.040275  0
C  C65  1  0.33685616  0.45861420  0.48193859  1  -0.014557  0  -0.01191  0.099775  0  4.041274  0
C  C66  1  0.56511852  0.54939295  0.42937570  1  -0.042555  0  -0.086674  -0.126665  0  3.982019  0
C  C67  1  0.43488098  0.45058103  0.57065682  1  -0.043553  0  -0.08685  -0.12691  0  3.982504  0
C  C68  1  0.59403371  0.49102535  0.58815795  1  -0.0599  0  -0.081776  -0.117275  0  3.953821  0
C  C69  1  0.40595816  0.50894031  0.41188278  1  -0.061687  0  -0.081783  -0.117117  0  3.954017  0
C  C70  1  0.67883941  0.82490570  0.40099883  1  0.515367  0  0.035354  0.083083  0  4.01243  0
C  C71  1  0.32114830  0.17509315  0.59899714  1  0.515322  0  0.035372  0.083098  0  4.012386  0
C  C72  1  0.74218900  0.84906741  0.32380689  1  -0.062714  0  -0.089152  -0.191262  0  3.955112  0
C  C73  1  0.25779522  0.15093605  0.67619008  1  -0.06169  0  -0.089163  -0.191355  0  3.955295  0
C  C74  1  0.83363810  0.94195744  0.31651661  1  -0.054285  0  0.009452  0.159067  0  4.006091  0
C  C75  1  0.16635526  0.05803853  0.68347583  1  -0.054771  0  0.009541  0.159126  0  4.005981  0
C  C76  1  0.85229164  0.00607156  0.39005342  1  0.038375  0  -0.081863  -0.173299  0  3.891264  0
C  C77  1  0.14767576  0.99392994  0.60993701  1  0.038058  0  -0.081894  -0.173293  0  3.891622  0
C  C78  1  0.78647153  0.97517883  0.46531799  1  0.370024  0  0.039615  0.090568  0  3.964839  0
C  C79  1  0.21352021  0.02481672  0.53468099  1  0.370066  0  0.039663  0.09074  0  3.964707  0
C  C80  1  0.90343888  0.97639653  0.23877438  1  -0.02111  0  -0.091476  -0.14044  0  3.956412  0
C  C81  1  0.09654392  0.02361407  0.76122038  1  -0.012478  0  -0.091426  -0.140324  0  3.956108  0
C  C82  1  0.89510424  0.92441439  0.16279062  1  -0.080223  0  -0.076576  -0.098787  0  3.968685  0
C  C83  1  0.10489070  0.07558924  0.83720382  1  -0.088992  0  -0.076716  -0.098987  0  3.968896  0
C  C84  1  0.95172858  0.96367986  0.08183677  1  -0.011144  0  -0.010688  0.101382  0  4.033444  0
C  C85  1  0.04825620  0.03631688  0.91815569  1  -0.010609  0  -0.01079  0.101105  0  4.033661  0
C  C86  1  0.92593594  0.90215412  0.00609051  1  -0.050017  0  -0.084516  -0.125058  0  3.947673  0
C  C87  1  0.07405553  0.09784862  0.99390568  1  -0.050536  0  -0.084401  -0.124739  0  3.947384  0
C  C88  1  0.02723228  0.06235692  0.07384840  1  -0.068207  0  -0.083549  -0.107545  0  3.943679  0
C  C89  1  0.97277405  0.93763638  0.92614972  1  -0.068371  0  -0.083502  -0.107261  0  3.943769  0
C  C90  1  0.62729288  0.98901413  0.72765665  1  1.539832  0  0.190738  0.553867  0  4.224896  0
C  C91  1  0.37270759  0.01101802  0.27233044  1  1.539803  0  0.190854  0.554202  0  4.225333  0
C  C92  1  0.61479862  0.07249961  0.79071385  1  -0.001335  0  -0.006939  -0.014081  0  3.949065  0
C  C93  1  0.38518415  0.92752259  0.20927008  1  -0.00209  0  -0.006803  -0.013894  0  3.948758  0
C  C94  1  0.67353728  0.17338960  0.77358490  1  -0.009869  0  -0.08204  -0.089774  0  3.967226  0
C  C95  1  0.32645770  0.82662325  0.22639941  1  -0.007807  0  -0.0821  -0.090021  0  3.967368  0
C  C96  1  0.64365851  0.25438073  0.82468936  1  -0.053339  0  -0.085063  -0.097172  0  3.987869  0
C  C97  1  0.35633926  0.74563647  0.17528777  1  -0.052717  0  -0.08496  -0.096997  0  3.987988  0
C  C98  1  0.55505446  0.23333973  0.89382754  1  -0.211202  0  -0.02271  -0.085133  0  3.985859  0
C  C99  1  0.44495460  0.76665699  0.10615341  1  -0.211752  0  -0.022727  -0.08521  0  3.986098  0
C  C100  1  0.50370930  0.13202858  0.91516048  1  -0.038982  0  -0.081457  -0.0929  0  3.979837  0
C  C101  1  0.49626363  0.86797383  0.08481570  1  -0.038192  0  -0.081546  -0.092833  0  3.979513  0
C  C102  1  0.53379259  0.05182091  0.86320038  1  -0.020709  0  -0.074509  -0.079823  0  3.938614  0
C  C103  1  0.46619254  0.94819645  0.13677381  1  -0.020112  0  -0.074498  -0.07995  0  3.938317  0
C  C104  1  0.08829895  0.27313510  0.26701760  1  1.563391  0  0.186748  0.540124  0  4.253028  0
C  C105  1  0.91168712  0.72688529  0.73298258  1  1.563553  0  0.186644  0.539986  0  4.253179  0
C  C106  1  0.93775354  0.29831768  0.19377922  1  -0.074169  0  -0.013421  -0.028621  0  3.963783  0
C  C107  1  0.06224707  0.70168794  0.80622094  1  -0.074733  0  -0.01345  -0.028636  0  3.963352  0
C  C108  1  0.78561151  0.24928780  0.19778003  1  -0.029996  0  -0.079257  -0.091586  0  3.964663  0
C  C109  1  0.21441380  0.75069958  0.80221360  1  -0.029579  0  -0.079193  -0.091525  0  3.964569  0
C  C110  1  0.64852678  0.26597830  0.12707091  1  0.007116  0  -0.077335  -0.086503  0  3.946903  0
C  C111  1  0.35149304  0.73401032  0.87292762  1  0.00686  0  -0.077385  -0.086584  0  3.946852  0
C  C112  1  0.66676083  0.33130664  0.05148967  1  -0.191204  0  -0.014551  -0.059679  0  3.960913  0
C  C113  1  0.33328135  0.66869068  0.94851970  1  -0.191646  0  -0.014355  -0.059892  0  3.961534  0
C  C114  1  0.81622301  0.38230436  0.04659672  1  -0.074235  0  -0.076561  -0.082998  0  3.963471  0
C  C115  1  0.18380089  0.61770463  0.95341244  1  -0.073255  0  -0.07678  -0.083163  0  3.96352  0
C  C116  1  0.95169659  0.36609704  0.11854004  1  0.059963  0  -0.075293  -0.081884  0  3.936305  0
C  C117  1  0.04831100  0.63390897  0.88146662  1  0.05993  0  -0.075175  -0.081784  0  3.936129  0
S  S118  1  0.50236708  0.33886382  0.95412127  1  2.482413  0  0.468262  0.958099  0  5.769465  0
S  S119  1  0.49761921  0.66113531  0.04588258  1  2.482718  0  0.468356  0.958676  0  5.771291  0
N  N120  1  0.40579665  0.75526952  0.56376577  1  -1.247082  0  -0.33991  -0.250076  0  3.545133  0
N  N121  1  0.59416781  0.24471969  0.43622197  1  -1.247165  0  -0.339889  -0.250001  0  3.545124  0
N  N122  1  0.70113261  0.88565251  0.47178115  1  -1.257015  0  -0.342754  -0.257861  0  3.51345  0
N  N123  1  0.29887815  0.11434024  0.52821331  1  -1.256714  0  -0.342845  -0.257999  0  3.513431  0
O  O124  1  0.68138561  0.01434718  0.65542536  1  -1.173462  0  -0.333701  -0.560435  0  2.192649  0
O  O125  1  0.31864063  0.98565211  0.34456483  1  -1.173633  0  -0.333778  -0.560526  0  2.192505  0
O  O126  1  0.57952180  0.89686423  0.74700486  1  -1.153533  0  -0.330304  -0.541267  0  2.149616  0
O  O127  1  0.42047884  0.10316025  0.25295573  1  -1.15342  0  -0.330349  -0.541397  0  2.149829  0
O  O128  1  0.22027202  0.32519870  0.27044505  1  -1.17426  0  -0.331284  -0.554942  0  2.116482  0
O  O129  1  0.77971247  0.67482084  0.72958098  1  -1.174103  0  -0.331112  -0.554733  0  2.116877  0
O  O130  1  0.07480840  0.19394760  0.32292289  1  -1.162753  0  -0.335528  -0.554856  0  2.271907  0
O  O131  1  0.92524846  0.80605176  0.67706692  1  -1.163013  0  -0.335539  -0.554871  0  2.271376  0
O  O132  1  0.34726595  0.31173717  0.98177177  1  -1.298643  0  -0.321953  -0.526175  0  2.145804  0
O  O133  1  0.65274873  0.68826114  0.01823354  1  -1.298576  0  -0.322147  -0.526613  0  2.145164  0
O  O134  1  0.51741453  0.43495735  0.89956219  1  -1.29091  0  -0.323483  -0.522705  0  2.132502  0
O  O135  1  0.48260719  0.56507012  0.10043787  1  -1.291536  0  -0.32344  -0.522588  0  2.134078  0
