# generated using pymatgen
data_CuH7C8NO5
_symmetry_space_group_name_H-M   'P 1'
_cell_length_a   7.64586269
_cell_length_b   11.08603071
_cell_length_c   11.21677238
_cell_angle_alpha   102.76052034
_cell_angle_beta   105.15564168
_cell_angle_gamma   107.03628856
_symmetry_Int_Tables_number   1
_chemical_formula_structural   CuH7C8NO5
_chemical_formula_sum   'Cu4 H28 C32 N4 O20'
_cell_volume   830.58977023
_cell_formula_units_Z   4
loop_
 _symmetry_equiv_pos_site_id
 _symmetry_equiv_pos_as_xyz
  1  'x, y, z'
loop_
 _atom_site_type_symbol
 _atom_site_label
 _atom_site_symmetry_multiplicity
 _atom_site_fract_x
 _atom_site_fract_y
 _atom_site_fract_z
 _atom_site_occupancy
 _atom_site_pbe_bader_charge
 _atom_site_pbe_bader_spin_density
 _atom_site_pbe_cm5_charge
 _atom_site_pbe_ddec_charge
 _atom_site_pbe_ddec_spin_density
 _atom_site_pbe_ddec_sum_bond_order
 _atom_site_pbe_magmom
Cu  Cu0  1  0.05039006  0.65546369  0.73757193  1  1.088176  0.58058  0.728569  0.868143  0.736454  2.163284  0.58
Cu  Cu1  1  0.94965817  0.34456371  0.26244019  1  1.08781  0.580601  0.728573  0.868166  0.736477  2.163419  0.58
Cu  Cu2  1  0.52214022  0.43533410  0.26631105  1  1.093448  0.581485  0.726148  0.866747  0.738802  2.203416  0.581
Cu  Cu3  1  0.47768252  0.56468234  0.73363533  1  1.093439  0.581515  0.726117  0.867038  0.738829  2.20299  0.581
H  H4  1  0.85736860  0.42270303  0.55908783  1  0.644073  0.001602  0.301929  0.408113  0.001642  0.915103  0.002
H  H5  1  0.14266043  0.57734629  0.44091852  1  0.643866  0.001601  0.301892  0.408017  0.001643  0.915188  0.002
H  H6  1  0.80667916  0.43780028  0.69583097  1  0.657672  0.000695  0.300424  0.39847  0.000759  0.930542  0.0
H  H7  1  0.19325314  0.56225304  0.30414387  1  0.657869  0.000692  0.300498  0.398435  0.000759  0.930534  0.0
H  H8  1  0.35594543  0.36033652  0.42511251  1  0.665862  0.000774  0.297677  0.400716  0.001117  0.934401  0.001
H  H9  1  0.64394015  0.63967095  0.57484667  1  0.665563  0.000776  0.297646  0.400827  0.001118  0.934243  0.001
H  H10  1  0.28991478  0.24095384  0.28372650  1  0.665005  0.000313  0.295353  0.387206  0.000458  0.951542  0.0
H  H11  1  0.70995239  0.75905962  0.71623249  1  0.665052  0.000315  0.295312  0.387265  0.00046  0.951529  0.0
H  H12  1  0.50896867  0.22059303  0.91068091  1  0.122363  0.000156  0.112797  0.123672  0.000125  1.003255  0.0
H  H13  1  0.49118464  0.77939848  0.08936348  1  0.122505  0.000155  0.112814  0.123704  0.000125  1.003373  0.0
H  H14  1  0.12058093  0.88762786  0.96923921  1  0.150607  0.002116  0.121697  0.097257  0.000965  1.036614  0.002
H  H15  1  0.87941768  0.11238559  0.03074587  1  0.150255  0.002117  0.121662  0.097231  0.000965  1.036444  0.002
H  H16  1  0.60423448  0.03361219  0.65588011  1  0.107499  0.000293  0.100935  0.150181  0.000217  1.027865  0.0
H  H17  1  0.39584383  0.96641819  0.34412197  1  0.107349  0.000294  0.101012  0.150238  0.000217  1.027659  0.0
H  H18  1  0.60567139  0.19413018  0.73369377  1  0.042087  0.001528  0.093088  0.144332  0.000732  0.999758  0.001
H  H19  1  0.39442859  0.80589023  0.26635902  1  0.042163  0.001528  0.093078  0.144439  0.000732  0.999696  0.001
H  H20  1  0.41314323  0.08202557  0.58879025  1  0.087886  9.7e-05  0.103935  0.157164  4.6e-05  0.999503  0.0
H  H21  1  0.58694220  0.91803272  0.41125753  1  0.088612  9.7e-05  0.103838  0.157033  4.6e-05  0.999696  0.0
H  H22  1  0.04730005  0.81140247  0.11084753  1  0.101982  0.000184  0.114587  0.121203  0.000125  1.003887  0.0
H  H23  1  0.95277349  0.18854220  0.88919025  1  0.105668  0.000183  0.114642  0.121098  0.000124  1.003959  0.0
H  H24  1  0.63381745  0.41561506  0.02319441  1  0.143282  0.002065  0.119811  0.098203  0.000925  1.031246  0.002
H  H25  1  0.36582459  0.58443528  0.97668261  1  0.144249  0.002061  0.119912  0.098502  0.000924  1.03125  0.002
H  H26  1  0.93943944  0.95662708  0.38658164  1  0.081659  0.000272  0.096482  0.142307  0.000196  1.037272  0.0
H  H27  1  0.06063115  0.04333453  0.61346467  1  0.081668  0.000273  0.096539  0.142501  0.000196  1.037487  0.0
H  H28  1  0.09656216  0.97976699  0.29425113  1  0.071127  0.001449  0.093579  0.142755  0.000679  1.007485  0.001
H  H29  1  0.90350244  0.02017868  0.70579508  1  0.070959  0.001448  0.093768  0.143085  0.000678  1.007436  0.001
H  H30  1  0.15228940  0.92224143  0.43066543  1  0.0769  0.000143  0.100653  0.147049  0.000126  1.02014  0.0
H  H31  1  0.84775184  0.07768132  0.56936359  1  0.076826  0.000142  0.100706  0.14729  0.000125  1.020212  0.0
C  C32  1  0.29634949  0.89489129  0.73004594  1  0.484931  -0.000846  0.118369  0.048431  -0.00177  3.893203  -0.001
C  C33  1  0.70371335  0.10512315  0.26996684  1  0.483809  -0.000841  0.118186  0.0482  -0.00177  3.893349  -0.001
C  C34  1  0.40839396  0.03097859  0.76273654  1  0.012623  0.003746  0.019112  0.152005  0.002492  3.909272  0.003
C  C35  1  0.59169706  0.96903285  0.23728685  1  0.014093  0.003747  0.019194  0.152045  0.002492  3.909335  0.003
C  C36  1  0.41870595  0.11520733  0.87964693  1  -0.027179  -0.004606  -0.057602  -0.100566  -0.005417  3.865927  -0.003
C  C37  1  0.58137285  0.88479415  0.12037923  1  -0.02794  -0.004607  -0.057636  -0.100594  -0.005417  3.866024  -0.003
C  C38  1  0.31863788  0.06736876  0.95730356  1  0.00806  0.014981  -0.007896  -0.062699  0.01031  3.955408  0.012
C  C39  1  0.68139623  0.93264269  0.04270167  1  0.008444  0.014978  -0.007783  -0.062655  0.010308  3.955219  0.012
C  C40  1  0.20462647  0.93157127  0.91471707  1  0.476304  0.000534  0.059936  0.092554  -0.000254  3.900998  0.001
C  C41  1  0.79539978  0.06844317  0.08528028  1  0.476738  0.000533  0.05986  0.092575  -0.000253  3.900801  0.001
C  C42  1  0.27940096  0.78689210  0.61429517  1  1.579611  -0.00137  0.209437  0.526025  -0.001858  4.22061  -0.002
C  C43  1  0.72069035  0.21312732  0.38572645  1  1.580669  -0.00137  0.209605  0.52636  -0.001859  4.220203  -0.002
C  C44  1  0.51468109  0.08858058  0.68176383  1  -0.05774  0.001979  -0.240872  -0.42927  0.001528  3.920818  0.002
C  C45  1  0.48540996  0.91144582  0.31826728  1  -0.059517  0.00198  -0.240834  -0.429301  0.001528  3.920785  0.002
C  C46  1  0.33680978  0.15794210  0.08541678  1  1.590644  0.001224  0.212342  0.576572  0.001249  4.18704  0.0
C  C47  1  0.66317419  0.84206935  0.91457417  1  1.590435  0.001227  0.212293  0.576278  0.00125  4.1868  0.0
C  C48  1  0.80119942  0.67629831  0.28866875  1  0.455505  -0.00011  0.117644  0.054621  -0.000899  3.891395  0.0
C  C49  1  0.19875897  0.32366132  0.71131969  1  0.457772  -0.000105  0.117604  0.054429  -0.000895  3.891034  0.0
C  C50  1  0.92731747  0.77575011  0.25859361  1  0.067581  0.003639  0.019742  0.158926  0.002484  3.90609  0.003
C  C51  1  0.07270080  0.22420253  0.74142716  1  0.070169  0.003632  0.019614  0.15887  0.002481  3.906661  0.003
C  C52  1  0.94927784  0.73767244  0.13750749  1  -0.062518  -0.004203  -0.055893  -0.09186  -0.00489  3.845483  -0.003
C  C53  1  0.05074613  0.26228818  0.86251336  1  -0.068701  -0.004201  -0.055973  -0.091845  -0.004887  3.845736  -0.003
C  C54  1  0.84620021  0.60887946  0.05033012  1  0.041033  0.014283  -0.005741  -0.047082  0.009884  3.935711  0.012
C  C55  1  0.15373520  0.39110509  0.94965700  1  0.049156  0.014254  -0.005686  -0.046508  0.009876  3.935339  0.012
C  C56  1  0.71958436  0.51738261  0.08694667  1  0.494884  0.001145  0.054872  0.079068  0.000407  3.922212  0.001
C  C57  1  0.28021640  0.48262587  0.91298247  1  0.487644  0.001156  0.054706  0.07833  0.000408  3.922454  0.001
C  C58  1  0.76832293  0.69553976  0.41672250  1  1.595833  -0.001279  0.214841  0.54016  -0.001663  4.180318  -0.002
C  C59  1  0.23173810  0.30438697  0.58329220  1  1.595775  -0.00128  0.214967  0.540638  -0.001664  4.180491  -0.002
C  C60  1  0.03388173  0.91631821  0.34655817  1  -0.044357  0.001955  -0.244805  -0.436851  0.001508  3.953587  0.002
C  C61  1  0.96617256  0.08362347  0.65348088  1  -0.044391  0.001954  -0.245066  -0.437753  0.001507  3.954418  0.002
C  C62  1  0.86208205  0.56957007  0.91756196  1  1.585792  0.000896  0.208454  0.572021  0.000565  4.206574  -0.001
C  C63  1  0.13783771  0.43045036  0.08241148  1  1.586327  0.000894  0.208788  0.572331  0.000567  4.206229  -0.001
N  N64  1  0.19750486  0.84931232  0.80508150  1  -1.219319  0.093851  -0.345201  -0.251777  0.061678  3.664437  0.081
N  N65  1  0.80254795  0.15070112  0.19492571  1  -1.218121  0.093867  -0.345058  -0.251737  0.061691  3.664211  0.081
N  N66  1  0.70012466  0.55172504  0.20313528  1  -1.231144  0.094225  -0.350193  -0.270033  0.061673  3.712595  0.081
N  N67  1  0.29971456  0.44826948  0.79680836  1  -1.235838  0.094198  -0.350084  -0.269913  0.06165  3.712095  0.081
O  O68  1  0.90783336  0.46485054  0.65554899  1  -1.215733  0.065093  -0.582553  -0.743848  0.041657  2.268253  0.058
O  O69  1  0.09213958  0.53519779  0.34445518  1  -1.215445  0.06512  -0.582602  -0.743703  0.041669  2.268153  0.058
O  O70  1  0.32678976  0.33874367  0.32826540  1  -1.247883  0.073981  -0.582439  -0.788273  0.046837  2.335279  0.067
O  O71  1  0.67302294  0.66126680  0.67168590  1  -1.247667  0.073997  -0.582326  -0.788442  0.046848  2.334976  0.067
O  O72  1  0.17307090  0.66509624  0.60401631  1  -1.113139  0.107472  -0.330588  -0.591995  0.066872  2.389253  0.099
O  O73  1  0.82707270  0.33491720  0.39602579  1  -1.11386  0.10745  -0.330943  -0.592205  0.06687  2.388812  0.099
O  O74  1  0.36228218  0.81061979  0.53648818  1  -1.118214  0.040516  -0.273572  -0.436284  0.025372  2.111139  0.034
O  O75  1  0.63780046  0.18940362  0.46352919  1  -1.118709  0.040508  -0.273526  -0.43636  0.025367  2.111153  0.034
O  O76  1  0.44926386  0.28040130  0.11279512  1  -1.141937  0.088429  -0.33276  -0.586326  0.055605  2.436622  0.081
O  O77  1  0.55066512  0.71962112  0.88718040  1  -1.141694  0.08841  -0.332856  -0.586193  0.055591  2.436112  0.081
O  O78  1  0.24811795  0.11087820  0.15453421  1  -1.162294  2e-06  -0.297549  -0.514352  -0.001053  2.156015  0.0
O  O79  1  0.75186710  0.88913026  0.84545628  1  -1.162532  1e-06  -0.297478  -0.514193  -0.001053  2.155955  0.0
O  O80  1  0.86334354  0.79900815  0.51034929  1  -1.135509  0.036672  -0.274907  -0.455027  0.022931  2.161375  0.031
O  O81  1  0.13697506  0.20084183  0.48972573  1  -1.135661  0.036678  -0.275065  -0.455237  0.022934  2.161701  0.031
O  O82  1  0.63395690  0.59311495  0.42212362  1  -1.112044  0.102607  -0.326917  -0.53568  0.064661  2.335325  0.095
O  O83  1  0.36595170  0.40687757  0.57785422  1  -1.111574  0.102643  -0.326769  -0.535758  0.064679  2.335058  0.095
O  O84  1  0.73893000  0.46155712  0.83300636  1  -1.179747  0.00067  -0.30669  -0.560076  -0.000535  2.213752  0.001
O  O85  1  0.26096161  0.53848125  0.16695351  1  -1.179397  0.000675  -0.306858  -0.560291  -0.000529  2.213868  0.001
O  O86  1  0.00307266  0.65487721  0.90206506  1  -1.123649  0.090748  -0.326207  -0.55197  0.057233  2.38005  0.082
O  O87  1  0.99684956  0.34515020  0.09792015  1  -1.123863  0.090719  -0.326312  -0.552168  0.057214  2.380075  0.082
