# generated using pymatgen
data_AlH12C24(SO5)3
_symmetry_space_group_name_H-M   'P 1'
_cell_length_a   4.25220354
_cell_length_b   28.88703599
_cell_length_c   28.88670417
_cell_angle_alpha   119.99609639
_cell_angle_beta   90.00051414
_cell_angle_gamma   89.99949883
_symmetry_Int_Tables_number   1
_chemical_formula_structural   AlH12C24(SO5)3
_chemical_formula_sum   'Al2 H24 C48 S6 O30'
_cell_volume   3073.00123177
_cell_formula_units_Z   2
loop_
 _symmetry_equiv_pos_site_id
 _symmetry_equiv_pos_as_xyz
  1  'x, y, z'
loop_
 _atom_site_type_symbol
 _atom_site_label
 _atom_site_symmetry_multiplicity
 _atom_site_fract_x
 _atom_site_fract_y
 _atom_site_fract_z
 _atom_site_occupancy
 _atom_site_pbe_bader_charge
 _atom_site_pbe_bader_spin_density
 _atom_site_pbe_cm5_charge
 _atom_site_pbe_ddec_charge
 _atom_site_pbe_ddec_spin_density
 _atom_site_pbe_ddec_sum_bond_order
 _atom_site_pbe_magmom
Al  Al0  1  0.97178602  0.50000277  0.49999745  1  2.519898  0  0.459801  1.644874  0  2.505384  0
Al  Al1  1  0.97147220  0.16665307  0.83334303  1  2.519906  0  0.459864  1.644494  0  2.506133  0
H  H2  1  0.21087617  0.17453672  0.69417602  1  0.10317  0  0.118933  0.12406  0  0.97136  0
H  H3  1  0.21742740  0.22511308  0.64479345  1  0.151778  0  0.119614  0.132086  0  0.964454  0
H  H4  1  0.68441670  0.30567493  0.82677670  1  0.151666  0  0.122689  0.138925  0  0.981253  0
H  H5  1  0.68453458  0.36098665  0.50656702  1  0.152029  0  0.122807  0.139128  0  0.981283  0
H  H6  1  0.21133304  0.49214805  0.63920126  1  0.100874  0  0.118935  0.124084  0  0.971531  0
H  H7  1  0.21778447  0.44155482  0.68856817  1  0.151037  0  0.119606  0.132099  0  0.964574  0
H  H8  1  0.21088245  0.01960247  0.82546060  1  0.147162  0  0.119021  0.124096  0  0.971398  0
H  H9  1  0.21738722  0.91965102  0.77487953  1  0.113046  0  0.119704  0.132262  0  0.964413  0
H  H10  1  0.68437877  0.02108182  0.69432018  1  0.139503  0  0.122776  0.139068  0  0.98105  0
H  H11  1  0.68449020  0.64557697  0.63900557  1  0.139476  0  0.122765  0.139147  0  0.98112  0
H  H12  1  0.21135498  0.64705107  0.50783229  1  0.146707  0  0.118882  0.124028  0  0.971292  0
H  H13  1  0.21775494  0.74700375  0.55842368  1  0.11328  0  0.119791  0.132231  0  0.964405  0
H  H14  1  0.21094453  0.30583359  0.98036847  1  0.108035  0  0.118913  0.124154  0  0.971347  0
H  H15  1  0.21744386  0.35521865  0.08032063  1  0.10746  0  0.119634  0.132132  0  0.964438  0
H  H16  1  0.68437121  0.17323603  0.97894224  1  0.152254  0  0.122798  0.138904  0  0.981195  0
H  H17  1  0.68447895  0.49344795  0.35441508  1  0.153719  0  0.122728  0.138877  0  0.981253  0
H  H18  1  0.21140342  0.36080507  0.35295869  1  0.107075  0  0.118922  0.124083  0  0.97148  0
H  H19  1  0.21777499  0.31144500  0.25300379  1  0.108085  0  0.119677  0.132082  0  0.964518  0
H  H20  1  0.14977187  0.40227587  0.77760944  1  0.67641  0  0.31117  0.387045  0  0.964662  0
H  H21  1  0.14981385  0.26437603  0.55572248  1  0.676424  0  0.311148  0.386989  0  0.964735  0
H  H22  1  0.14967704  0.87533372  0.59771259  1  0.673657  0  0.311194  0.386897  0  0.964845  0
H  H23  1  0.14970728  0.79133128  0.73561432  1  0.673591  0  0.311207  0.386903  0  0.964836  0
H  H24  1  0.14964668  0.22241099  0.12470644  1  0.673196  0  0.3111  0.386832  0  0.964944  0
H  H25  1  0.14965676  0.44429361  0.20865041  1  0.673744  0  0.311229  0.386971  0  0.964701  0
C  C26  1  0.46818002  0.45780385  0.41922273  1  1.554329  0  0.27898  0.667333  0  4.055656  0
C  C27  1  0.46817898  0.46142922  0.54220449  1  1.560198  0  0.278722  0.667042  0  4.055784  0
C  C28  1  0.46817062  0.58077881  0.53856498  1  1.610213  0  0.2787  0.667021  0  4.055703  0
C  C29  1  0.46789791  0.20524960  0.79115729  1  1.583642  0  0.278632  0.666766  0  4.055941  0
C  C30  1  0.46789687  0.08587560  0.79474921  1  1.609628  0  0.278553  0.666976  0  4.055628  0
C  C31  1  0.46789216  0.20884560  0.91411928  1  1.552693  0  0.278781  0.667485  0  4.054924  0
C  C32  1  0.45217721  0.23647398  0.76294035  1  0.045692  0  -0.004857  -0.031376  0  3.951582  0
C  C33  1  0.31297319  0.21443076  0.71229774  1  0.048146  0  -0.06613  -0.071996  0  3.95603  0
C  C34  1  0.31406272  0.24262476  0.68499827  1  -0.050703  0  -0.067545  -0.109459  0  3.907081  0
C  C35  1  0.43720981  0.29496659  0.70890980  1  0.06346  0  0.014834  0.133608  0  4.094202  0
C  C36  1  0.56016346  0.31771046  0.76142509  1  -0.195936  0  -0.011685  -0.154655  0  3.935902  0
C  C37  1  0.57748792  0.28817400  0.78731576  1  -0.019417  0  -0.064857  -0.085723  0  3.946983  0
C  C38  1  0.43568419  0.32228914  0.67992019  1  -0.015572  0  -0.023599  -0.053165  0  4.031953  0
C  C39  1  0.43574622  0.34436240  0.65341625  1  -0.266468  0  -0.023679  -0.053592  0  4.03231  0
C  C40  1  0.43736250  0.37169078  0.62443328  1  0.064148  0  0.014895  0.133509  0  4.094721  0
C  C41  1  0.56028842  0.34894870  0.57191759  1  -0.196089  0  -0.011494  -0.154428  0  3.93594  0
C  C42  1  0.57767303  0.37849217  0.54603237  1  -0.019933  0  -0.064924  -0.08595  0  3.947191  0
C  C43  1  0.45248068  0.43020198  0.57042015  1  0.069911  0  -0.005111  -0.031582  0  3.951292  0
C  C44  1  0.31335136  0.45224612  0.62106943  1  0.051659  0  -0.065829  -0.071662  0  3.955691  0
C  C45  1  0.31435957  0.42404263  0.64835901  1  -0.051566  0  -0.067934  -0.109884  0  3.907811  0
C  C46  1  0.45219523  0.02643984  0.76352593  1  -0.041728  0  -0.004633  -0.031263  0  3.951399  0
C  C47  1  0.31297096  0.99783815  0.78556621  1  -0.003466  0  -0.066052  -0.071831  0  3.955646  0
C  C48  1  0.31399004  0.94234698  0.75736856  1  -0.07022  0  -0.067998  -0.109948  0  3.907507  0
C  C49  1  0.43711368  0.91392294  0.70502268  1  0.178017  0  0.014824  0.133144  0  4.095027  0
C  C50  1  0.56008834  0.94369803  0.68228368  1  -0.192164  0  -0.011617  -0.154159  0  3.935932  0
C  C51  1  0.57744330  0.99912084  0.71182288  1  0.066259  0  -0.065085  -0.08612  0  3.947339  0
C  C52  1  0.43563764  0.85761793  0.67770049  1  -0.513101  0  -0.023624  -0.053303  0  4.0321  0
C  C53  1  0.43565722  0.80903811  0.65562155  1  0.102186  0  -0.023586  -0.053229  0  4.03217  0
C  C54  1  0.43731602  0.75273293  0.62829399  1  0.176791  0  0.014814  0.133406  0  4.095068  0
C  C55  1  0.56022799  0.72296058  0.65103994  1  -0.191606  0  -0.011474  -0.154627  0  3.936017  0
C  C56  1  0.57762677  0.66753648  0.62149788  1  0.066165  0  -0.065  -0.086033  0  3.947234  0
C  C57  1  0.45245795  0.64021807  0.56978614  1  -0.042432  0  -0.004963  -0.031465  0  3.95175  0
C  C58  1  0.31334267  0.66882097  0.54773751  1  -0.002251  0  -0.065847  -0.071708  0  3.955774  0
C  C59  1  0.31433432  0.72430992  0.57594015  1  -0.070025  0  -0.068098  -0.109915  0  3.907755  0
C  C60  1  0.45220951  0.23707078  0.97355887  1  0.034751  0  -0.004689  -0.031959  0  3.951846  0
C  C61  1  0.31300569  0.28771160  0.00214644  1  -0.129327  0  -0.066106  -0.071885  0  3.95632  0
C  C62  1  0.31405545  0.31501476  0.05763758  1  0.096114  0  -0.067806  -0.109689  0  3.907515  0
C  C63  1  0.43714850  0.29110545  0.08607592  1  0.161627  0  0.01494  0.133226  0  4.0946  0
C  C64  1  0.56009952  0.23859127  0.05631632  1  -0.161239  0  -0.011705  -0.154264  0  3.93598  0
C  C65  1  0.57746136  0.21269806  0.00089123  1  -0.037016  0  -0.064949  -0.085459  0  3.947033  0
C  C66  1  0.43562075  0.32010186  0.14238968  1  -0.25438  0  -0.023598  -0.053338  0  4.032879  0
C  C67  1  0.43564026  0.34660399  0.19095693  1  -0.032811  0  -0.023585  -0.053041  0  4.032987  0
C  C68  1  0.43724735  0.37558882  0.24726911  1  0.159467  0  0.014778  0.132974  0  4.094731  0
C  C69  1  0.56017121  0.42810252  0.27703682  1  -0.161235  0  -0.011693  -0.154387  0  3.935829  0
C  C70  1  0.57761486  0.45398259  0.33246120  1  -0.038965  0  -0.064709  -0.085522  0  3.946487  0
C  C71  1  0.45246013  0.42959091  0.35978336  1  0.035875  0  -0.005207  -0.031891  0  3.951445  0
C  C72  1  0.31334230  0.37894160  0.33118567  1  -0.129163  0  -0.065988  -0.071839  0  3.955603  0
C  C73  1  0.31430562  0.35165795  0.27569647  1  0.096749  0  -0.067772  -0.109474  0  3.907538  0
S  S74  1  0.69558413  0.38510425  0.79807900  1  3.133  0  0.557163  1.195529  0  5.97125  0
S  S75  1  0.69564030  0.28155004  0.53524986  1  3.132929  0  0.557229  1.195787  0  5.970576  0
S  S76  1  0.69548757  0.91297284  0.61488731  1  3.138468  0  0.55736  1.195626  0  5.970569  0
S  S77  1  0.69554487  0.75368400  0.71843879  1  3.139579  0  0.557844  1.196363  0  5.969801  0
S  S78  1  0.69548078  0.20194135  0.08706503  1  3.139807  0  0.557074  1.195449  0  5.971901  0
S  S79  1  0.69550136  0.46476787  0.24629899  1  3.142031  0  0.557421  1.196001  0  5.970689  0
O  O80  1  0.70851748  0.55924525  0.54663751  1  -1.253743  0  -0.234814  -0.601572  0  2.344238  0
O  O81  1  0.70853048  0.48740658  0.44075431  1  -1.253769  0  -0.234952  -0.601737  0  2.344087  0
O  O82  1  0.70852429  0.45335856  0.51259912  1  -1.253169  0  -0.234831  -0.601635  0  2.344277  0
O  O83  1  0.24092347  0.55666945  0.50642363  1  -1.26295  0  -0.24129  -0.611001  0  2.335326  0
O  O84  1  0.24093609  0.49357048  0.55023661  1  -1.261269  0  -0.2414  -0.611106  0  2.33522  0
O  O85  1  0.24093882  0.44976752  0.44333014  1  -1.26202  0  -0.241468  -0.611118  0  2.335337  0
O  O86  1  0.70821014  0.17923694  0.89257978  1  -1.253028  0  -0.234996  -0.601906  0  2.344258  0
O  O87  1  0.70822339  0.21330855  0.82075777  1  -1.252312  0  -0.234886  -0.60153  0  2.344779  0
O  O88  1  0.70823019  0.10741785  0.78668739  1  -1.25273  0  -0.234798  -0.601548  0  2.344288  0
O  O89  1  0.24064901  0.21688341  0.89001176  1  -1.260932  0  -0.241435  -0.61099  0  2.335072  0
O  O90  1  0.24065025  0.10998040  0.82689719  1  -1.262613  0  -0.241337  -0.610945  0  2.335033  0
O  O91  1  0.24063763  0.17309716  0.78311280  1  -1.262138  0  -0.241341  -0.610906  0  2.334992  0
O  O92  1  0.43366496  0.42090203  0.80482642  1  -1.29896  0  -0.310565  -0.535348  0  2.246449  0
O  O93  1  0.84685517  0.39287124  0.84585070  1  -1.285643  0  -0.303958  -0.514858  0  2.106984  0
O  O94  1  0.92720390  0.38926493  0.75902307  1  -1.290738  0  -0.346922  -0.557042  0  2.308323  0
O  O95  1  0.43368286  0.24575431  0.52849483  1  -1.298487  0  -0.31057  -0.535461  0  2.246013  0
O  O96  1  0.84692534  0.27378217  0.48748113  1  -1.285853  0  -0.303869  -0.514747  0  2.106874  0
O  O97  1  0.92724390  0.27738331  0.57430493  1  -1.290947  0  -0.346992  -0.557079  0  2.308312  0
O  O98  1  0.43356432  0.88393031  0.57908750  1  -1.305497  0  -0.310628  -0.535266  0  2.246116  0
O  O99  1  0.84677241  0.95298028  0.60712529  1  -1.282793  0  -0.303973  -0.514894  0  2.107013  0
O  O100  1  0.92710981  0.86975302  0.61071929  1  -1.288806  0  -0.347001  -0.557001  0  2.308115  0
O  O101  1  0.43357740  0.78271828  0.75423229  1  -1.306073  0  -0.310975  -0.53558  0  2.245904  0
O  O102  1  0.84683491  0.71368168  0.72620538  1  -1.283307  0  -0.304107  -0.515039  0  2.10695  0
O  O103  1  0.92713422  0.79690962  0.72261140  1  -1.288736  0  -0.34703  -0.557113  0  2.30789  0
O  O104  1  0.43355179  0.19519281  0.11611345  1  -1.300208  0  -0.310583  -0.535366  0  2.246613  0
O  O105  1  0.84680016  0.15416960  0.04707761  1  -1.292279  0  -0.303822  -0.51476  0  2.107024  0
O  O106  1  0.92709497  0.24099842  0.13027791  1  -1.288158  0  -0.346837  -0.556837  0  2.308796  0
O  O107  1  0.43354667  0.47152489  0.21725939  1  -1.29886  0  -0.310728  -0.535487  0  2.246185  0
O  O108  1  0.84681800  0.51253450  0.28629154  1  -1.29347  0  -0.303977  -0.514918  0  2.106822  0
O  O109  1  0.92709641  0.42571238  0.20307970  1  -1.290415  0  -0.346938  -0.557087  0  2.308149  0
