# generated using pymatgen
data_H10PbC22N2(OF3)4
_symmetry_space_group_name_H-M   'P 1'
_cell_length_a   9.41325149
_cell_length_b   12.43605516
_cell_length_c   12.43678808
_cell_angle_alpha   60.13698084
_cell_angle_beta   71.73859461
_cell_angle_gamma   71.74094122
_symmetry_Int_Tables_number   1
_chemical_formula_structural   H10PbC22N2(OF3)4
_chemical_formula_sum   'H20 Pb2 C44 N4 O8 F24'
_cell_volume   1176.92195768
_cell_formula_units_Z   2
loop_
 _symmetry_equiv_pos_site_id
 _symmetry_equiv_pos_as_xyz
  1  'x, y, z'
loop_
 _atom_site_type_symbol
 _atom_site_label
 _atom_site_symmetry_multiplicity
 _atom_site_fract_x
 _atom_site_fract_y
 _atom_site_fract_z
 _atom_site_occupancy
 _atom_site_hle17_bader_spin_density
 _atom_site_hle17_ddec_charge
 _atom_site_hle17_ddec_spin_density
 _atom_site_hle17_ddec_sum_bond_order
 _atom_site_hle17_magmom
 _atom_site_hse06_10hf_bader_spin_density
 _atom_site_hse06_10hf_ddec_charge
 _atom_site_hse06_10hf_ddec_spin_density
 _atom_site_hse06_10hf_ddec_sum_bond_order
 _atom_site_hse06_10hf_magmom
 _atom_site_hse06_bader_spin_density
 _atom_site_hse06_ddec_charge
 _atom_site_hse06_ddec_spin_density
 _atom_site_hse06_ddec_sum_bond_order
 _atom_site_hse06_magmom
 _atom_site_pbe_bader_spin_density
 _atom_site_pbe_cm5_charge
 _atom_site_pbe_ddec_charge
 _atom_site_pbe_ddec_spin_density
 _atom_site_pbe_ddec_sum_bond_order
 _atom_site_pbe_magmom
H  H0  1  0.89276785  0.03625774  0.38717793  1  0  0.134965  0  0.970777  0  0  0.13579  0  1.044303  0  0  0.140806  0  1.043514  0  0  0.093196  0.13226  0  1.044998  0
H  H1  1  0.60723237  0.61282486  0.96373890  1  0  0.134918  0  0.970754  0  0  0.135735  0  1.044348  0  0  0.140756  0  1.043562  0  0  0.093184  0.132206  0  1.045041  0
H  H2  1  0.10723432  0.96373966  0.61282169  1  0  0.134906  0  0.9707  0  0  0.135734  0  1.044304  0  0  0.140766  0  1.043458  0  0  0.093173  0.132202  0  1.044997  0
H  H3  1  0.39276403  0.38717821  0.03626087  1  0  0.135015  0  0.970512  0  0  0.135782  0  1.04428  0  0  0.140819  0  1.043447  0  0  0.093196  0.132252  0  1.044976  0
H  H4  1  0.37498413  0.02073417  0.21769173  1  0  0.083555  0  0.95809  0  0  0.09227  0  1.023452  0  0  0.094236  0  1.022041  0  0  0.115928  0.090879  0  1.024376  0
H  H5  1  0.12501404  0.78230910  0.97926892  1  0  0.083613  0  0.958011  0  0  0.09232  0  1.023381  0  0  0.094287  0  1.021962  0  0  0.115927  0.090928  0  1.024304  0
H  H6  1  0.62501361  0.97926795  0.78230740  1  0  0.083552  0  0.95801  0  0  0.092271  0  1.023403  0  0  0.094147  0  1.022183  0  0  0.115916  0.090878  0  1.024328  0
H  H7  1  0.87498482  0.21769302  0.02073075  1  0  0.0836  0  0.957964  0  0  0.092289  0  1.023388  0  0  0.094257  0  1.021973  0  0  0.115924  0.090896  0  1.024312  0
H  H8  1  0.43586026  0.90304971  0.43398960  1  0  0.117769  0  0.946953  0  0  0.126594  0  1.00463  0  0  0.130104  0  1.003022  0  0  0.104951  0.124092  0  1.005908  0
H  H9  1  0.06414042  0.56600650  0.09695479  1  0  0.118377  0  0.946042  0  0  0.126575  0  1.004647  0  0  0.130086  0  1.003042  0  0  0.104947  0.124069  0  1.005928  0
H  H10  1  0.56414061  0.09695335  0.56600993  1  0  0.11777  0  0.946943  0  0  0.126598  0  1.00461  0  0  0.130095  0  1.003042  0  0  0.104973  0.124094  0  1.005887  0
H  H11  1  0.93586042  0.43399184  0.90304468  1  0  0.117819  0  0.946818  0  0  0.1266  0  1.004626  0  0  0.130111  0  1.003018  0  0  0.104967  0.1241  0  1.005907  0
H  H12  1  0.39167444  0.68001514  0.56824515  1  0  0.103205  0  0.937771  0  0  0.110039  0  1.003712  0  0  0.113713  0  1.000054  0  0  0.104677  0.107504  0  1.006079  0
H  H13  1  0.10832376  0.43175043  0.31998904  1  0  0.103568  0  0.937139  0  0  0.110012  0  1.003763  0  0  0.113685  0  1.000112  0  0  0.104654  0.107477  0  1.006134  0
H  H14  1  0.60832574  0.31998603  0.43175709  1  0  0.103203  0  0.937812  0  0  0.110059  0  1.003731  0  0  0.113734  0  1.000072  0  0  0.104688  0.107523  0  1.006104  0
H  H15  1  0.89167640  0.56824602  0.68001313  1  0  0.103149  0  0.93788  0  0  0.110028  0  1.003784  0  0  0.113642  0  1.000262  0  0  0.104676  0.107495  0  1.006156  0
H  H16  1  0.30314014  0.49890797  0.59090791  1  0  0.103277  0  0.96455  0  0  0.110125  0  1.029875  0  0  0.114009  0  1.0275  0  0  0.097966  0.107586  0  1.03144  0
H  H17  1  0.19685880  0.40908868  0.50109413  1  0  0.103234  0  0.964723  0  0  0.110071  0  1.030044  0  0  0.11394  0  1.027685  0  0  0.097946  0.107527  0  1.031617  0
H  H18  1  0.69686251  0.50109226  0.40909019  1  0  0.103303  0  0.964507  0  0  0.110139  0  1.029862  0  0  0.114022  0  1.02749  0  0  0.097966  0.1076  0  1.031428  0
H  H19  1  0.80314027  0.59091250  0.49890676  1  0  0.103239  0  0.964678  0  0  0.110075  0  1.030023  0  0  0.113942  0  1.027663  0  0  0.097954  0.107528  0  1.031599  0
Pb  Pb20  1  0.25000036  0.99415457  0.00584292  1  0  1.310385  0  1.402434  0  0  1.107831  0  1.796355  0  0  1.166461  0  1.756302  0  0  0.645656  1.065131  0  1.824803  0
Pb  Pb21  1  0.74999918  0.00584943  0.99416289  1  0  1.310379  0  1.402481  0  0  1.107821  0  1.796352  0  0  1.166451  0  1.756308  0  0  0.645637  1.065122  0  1.824796  0
C  C22  1  0.91756990  0.97420576  0.24877711  1  0  0.292407  0  3.856132  0  0  0.268249  0  4.131763  0  0  0.29258  0  4.135808  0  0  0.111714  0.252455  0  4.128121  0
C  C23  1  0.58242951  0.75121815  0.02579511  1  0  0.292249  0  3.856172  0  0  0.268185  0  4.131706  0  0  0.292503  0  4.135789  0  0  0.111666  0.252391  0  4.128068  0
C  C24  1  0.08242715  0.02579448  0.75122151  1  0  0.292116  0  3.856311  0  0  0.268098  0  4.131781  0  0  0.292429  0  4.135818  0  0  0.111688  0.252316  0  4.128127  0
C  C25  1  0.41757653  0.24878681  0.97419743  1  0  0.29224  0  3.856202  0  0  0.268137  0  4.131789  0  0  0.292468  0  4.13584  0  0  0.111707  0.252351  0  4.128131  0
C  C26  1  0.94915382  0.04685603  0.29263720  1  0  -0.35468  0  3.765408  0  0  -0.406473  0  4.057063  0  0  -0.429771  0  4.077197  0  0  -0.159387  -0.3909  0  4.042903  0
C  C27  1  0.55084112  0.70736806  0.95314064  1  0  -0.354552  0  3.765478  0  0  -0.406356  0  4.056981  0  0  -0.429785  0  4.077383  0  0  -0.15935  -0.390779  0  4.042824  0
C  C28  1  0.05084279  0.95314611  0.70735978  1  0  -0.354546  0  3.765388  0  0  -0.406382  0  4.056883  0  0  -0.429689  0  4.077055  0  0  -0.159372  -0.390804  0  4.042714  0
C  C29  1  0.44915709  0.29263690  0.04685536  1  0  -0.354468  0  3.765282  0  0  -0.406371  0  4.057053  0  0  -0.429662  0  4.077178  0  0  -0.15935  -0.390796  0  4.042888  0
C  C30  1  0.04285759  0.13736725  0.21814804  1  0  0.282015  0  3.870794  0  0  0.261956  0  4.144882  0  0  0.28467  0  4.150525  0  0  0.109784  0.247109  0  4.140426  0
C  C31  1  0.45714472  0.78185195  0.86263069  1  0  0.280885  0  3.872778  0  0  0.261859  0  4.144792  0  0  0.284488  0  4.150665  0  0  0.109739  0.247003  0  4.140344  0
C  C32  1  0.95713524  0.86263677  0.78185050  1  0  0.28113  0  3.872642  0  0  0.262124  0  4.14462  0  0  0.284644  0  4.15064  0  0  0.109843  0.247267  0  4.140177  0
C  C33  1  0.54285685  0.21815301  0.13736371  1  0  0.280902  0  3.872932  0  0  0.261853  0  4.14498  0  0  0.284562  0  4.150627  0  0  0.109755  0.247002  0  4.140528  0
C  C34  1  0.82022306  0.87390252  0.34927761  1  0  0.711451  0  3.613001  0  0  0.640713  0  3.951095  0  0  0.670234  0  3.921727  0  0  0.299894  0.620116  0  3.971175  0
C  C35  1  0.67977582  0.65072164  0.12609574  1  0  0.711586  0  3.612837  0  0  0.640765  0  3.950975  0  0  0.670295  0  3.921571  0  0  0.299933  0.620159  0  3.97108  0
C  C36  1  0.17977799  0.12609488  0.65072227  1  0  0.71159  0  3.612717  0  0  0.640853  0  3.950736  0  0  0.670397  0  3.921319  0  0  0.299889  0.620255  0  3.970823  0
C  C37  1  0.32022347  0.34927860  0.87390395  1  0  0.711607  0  3.612743  0  0  0.640822  0  3.950816  0  0  0.67036  0  3.921406  0  0  0.299965  0.620215  0  3.970915  0
C  C38  1  0.05207166  0.21948953  0.27624695  1  0  0.707697  0  3.621058  0  0  0.633893  0  3.964285  0  0  0.663056  0  3.935713  0  0  0.293435  0.613241  0  3.98437  0
C  C39  1  0.44792702  0.72375342  0.78051119  1  0  0.705848  0  3.624623  0  0  0.634009  0  3.964322  0  0  0.663156  0  3.935811  0  0  0.293508  0.61337  0  3.984393  0
C  C40  1  0.94792384  0.78051260  0.72375190  1  0  0.705656  0  3.624551  0  0  0.63382  0  3.964242  0  0  0.662603  0  3.936458  0  0  0.293424  0.61317  0  3.984332  0
C  C41  1  0.55207205  0.27624776  0.21948890  1  0  0.705835  0  3.624686  0  0  0.633913  0  3.964499  0  0  0.663076  0  3.935932  0  0  0.293463  0.613248  0  3.984603  0
C  C42  1  0.35657422  0.92427252  0.27827779  1  0  0.146532  0  3.69459  0  0  0.114408  0  3.947277  0  0  0.122892  0  3.964999  0  0  0.058596  0.108967  0  3.934978  0
C  C43  1  0.14342885  0.72172417  0.07572522  1  0  0.146336  0  3.694679  0  0  0.114194  0  3.947363  0  0  0.122681  0  3.965078  0  0  0.058564  0.108747  0  3.935072  0
C  C44  1  0.64342731  0.07572771  0.72172058  1  0  0.146398  0  3.694578  0  0  0.114271  0  3.947297  0  0  0.122679  0  3.965232  0  0  0.058546  0.108832  0  3.934996  0
C  C45  1  0.85657022  0.27827700  0.92427486  1  0  0.146393  0  3.694579  0  0  0.11425  0  3.94733  0  0  0.122736  0  3.96505  0  0  0.058567  0.108812  0  3.935029  0
C  C46  1  0.39113439  0.85738249  0.39986157  1  0  -0.109235  0  3.718265  0  0  -0.123868  0  3.973746  0  0  -0.130296  0  3.993574  0  0  -0.082529  -0.119745  0  3.960493  0
C  C47  1  0.10886520  0.60013261  0.14262373  1  0  -0.108758  0  3.717119  0  0  -0.123741  0  3.973751  0  0  -0.130173  0  3.993592  0  0  -0.082489  -0.119607  0  3.960493  0
C  C48  1  0.60886804  0.14261868  0.60013772  1  0  -0.109205  0  3.718301  0  0  -0.123831  0  3.973768  0  0  -0.130295  0  3.9937  0  0  -0.082543  -0.1197  0  3.960506  0
C  C49  1  0.89113163  0.39986857  0.85737608  1  0  -0.109154  0  3.718323  0  0  -0.123795  0  3.973807  0  0  -0.130232  0  3.993642  0  0  -0.082498  -0.11967  0  3.960557  0
C  C50  1  0.36732275  0.73478553  0.47302295  1  0  -0.032142  0  3.673918  0  0  -0.058739  0  3.925844  0  0  -0.05595  0  3.942936  0  0  -0.061797  -0.060294  0  3.914177  0
C  C51  1  0.13267822  0.52697676  0.26521293  1  0  -0.031814  0  3.673024  0  0  -0.058688  0  3.92574  0  0  -0.055892  0  3.942854  0  0  -0.061782  -0.060246  0  3.914076  0
C  C52  1  0.63267968  0.26521564  0.52697715  1  0  -0.0321  0  3.674036  0  0  -0.058744  0  3.925924  0  0  -0.055957  0  3.943018  0  0  -0.061807  -0.060302  0  3.914258  0
C  C53  1  0.86732283  0.47302065  0.73478776  1  0  -0.032017  0  3.673955  0  0  -0.05867  0  3.92584  0  0  -0.055899  0  3.943007  0  0  -0.061794  -0.060231  0  3.914183  0
C  C54  1  0.30905719  0.67955234  0.42445281  1  0  0.034413  0  3.77947  0  0  0.049053  0  4.01378  0  0  0.04714  0  4.037101  0  0  2.4e-05  0.050298  0  3.997756  0
C  C55  1  0.19094137  0.57554372  0.32045125  1  0  0.034202  0  3.779569  0  0  0.0489  0  4.013711  0  0  0.046959  0  4.03707  0  0  -5.3e-05  0.050147  0  3.997688  0
C  C56  1  0.69094700  0.32044600  0.57554747  1  0  0.03429  0  3.779629  0  0  0.048997  0  4.013893  0  0  0.047083  0  4.037214  0  0  2.5e-05  0.050249  0  3.997862  0
C  C57  1  0.80905857  0.42445369  0.67955050  1  0  0.034256  0  3.779442  0  0  0.048931  0  4.013684  0  0  0.047006  0  4.037007  0  0  -2.2e-05  0.050187  0  3.997653  0
C  C58  1  0.27840000  0.75392355  0.30000234  1  0  0.134552  0  3.745508  0  0  0.123611  0  3.988095  0  0  0.128895  0  4.008394  0  0  0.119217  0.120254  0  3.973811  0
C  C59  1  0.22160104  0.69999943  0.24607404  1  0  0.134723  0  3.745461  0  0  0.12374  0  3.988027  0  0  0.129034  0  4.008334  0  0  0.119216  0.120386  0  3.97374  0
C  C60  1  0.72160329  0.24607385  0.69999943  1  0  0.134687  0  3.745521  0  0  0.123609  0  3.988218  0  0  0.128893  0  4.00851  0  0  0.119214  0.120253  0  3.973932  0
C  C61  1  0.77840001  0.29999797  0.75392825  1  0  0.134643  0  3.74557  0  0  0.123744  0  3.988115  0  0  0.129032  0  4.008419  0  0  0.119229  0.120381  0  3.973833  0
C  C62  1  0.27904805  0.55391659  0.49572231  1  0  -0.09369  0  3.735351  0  0  -0.116734  0  3.989102  0  0  -0.120208  0  4.0121  0  0  -0.085844  -0.114077  0  3.973038  0
C  C63  1  0.22095375  0.50427718  0.44608060  1  0  -0.093622  0  3.735506  0  0  -0.116667  0  3.989173  0  0  -0.12012  0  4.012193  0  0  -0.08584  -0.114005  0  3.973114  0
C  C64  1  0.72095838  0.44608175  0.50427583  1  0  -0.09364  0  3.735351  0  0  -0.1167  0  3.989095  0  0  -0.120173  0  4.012098  0  0  -0.085837  -0.114043  0  3.973028  0
C  C65  1  0.77904575  0.49572211  0.55392112  1  0  -0.093669  0  3.735371  0  0  -0.116723  0  3.9891  0  0  -0.120181  0  4.01211  0  0  -0.085893  -0.114061  0  3.97304  0
N  N66  1  0.30153468  0.87450254  0.23026873  1  0  -0.360525  0  3.251871  0  0  -0.282265  0  3.493956  0  0  -0.303271  0  3.517711  0  0  -0.295439  -0.267671  0  3.477327  0
N  N67  1  0.19847004  0.76972834  0.12550052  1  0  -0.360413  0  3.251852  0  0  -0.282172  0  3.493992  0  0  -0.303169  0  3.517716  0  0  -0.295389  -0.267581  0  3.47737  0
N  N68  1  0.69846952  0.12549581  0.76972994  1  0  -0.360419  0  3.251782  0  0  -0.282132  0  3.49393  0  0  -0.303138  0  3.517681  0  0  -0.295383  -0.267544  0  3.47731  0
N  N69  1  0.80153079  0.23027000  0.87450136  1  0  -0.360469  0  3.251898  0  0  -0.282213  0  3.493992  0  0  -0.303223  0  3.517754  0  0  -0.295408  -0.26762  0  3.477367  0
O  O70  1  0.96221464  0.97600402  0.14086674  1  0  -0.542705  0  2.082399  0  0  -0.486769  0  2.319822  0  0  -0.513193  0  2.317517  0  0  -0.269804  -0.468124  0  2.320623  0
O  O71  1  0.53778306  0.85913565  0.02399620  1  0  -0.542661  0  2.082312  0  0  -0.486744  0  2.319703  0  0  -0.513166  0  2.317391  0  0  -0.269799  -0.468108  0  2.32054  0
O  O72  1  0.03778172  0.02399434  0.85913298  1  0  -0.54261  0  2.08249  0  0  -0.486711  0  2.319843  0  0  -0.513134  0  2.317537  0  0  -0.26979  -0.468067  0  2.320636  0
O  O73  1  0.46221980  0.14086362  0.97600876  1  0  -0.542653  0  2.082377  0  0  -0.486717  0  2.319748  0  0  -0.513135  0  2.31744  0  0  -0.269815  -0.468105  0  2.320626  0
O  O74  1  0.12273160  0.16132118  0.10949723  1  0  -0.509185  0  2.036766  0  0  -0.468646  0  2.272397  0  0  -0.492791  0  2.270425  0  0  -0.280184  -0.451827  0  2.273199  0
O  O75  1  0.37726158  0.89050791  0.83867449  1  0  -0.509747  0  2.038002  0  0  -0.468627  0  2.272323  0  0  -0.492786  0  2.270404  0  0  -0.280123  -0.451804  0  2.273126  0
O  O76  1  0.87726765  0.83867433  0.89050401  1  0  -0.509803  0  2.038069  0  0  -0.468718  0  2.272379  0  0  -0.492939  0  2.270632  0  0  -0.280173  -0.451898  0  2.273189  0
O  O77  1  0.62273504  0.10949421  0.16132571  1  0  -0.509794  0  2.038102  0  0  -0.468645  0  2.272409  0  0  -0.492788  0  2.270436  0  0  -0.280148  -0.451819  0  2.273209  0
F  F78  1  0.70867424  0.91359853  0.42920235  1  0  -0.234957  0  1.177053  0  0  -0.203581  0  1.349511  0  0  -0.21193  0  1.332286  0  0  -0.095472  -0.197111  0  1.36128  0
F  F79  1  0.79132774  0.57079477  0.08640362  1  0  -0.234337  0  1.176482  0  0  -0.203615  0  1.349494  0  0  -0.211873  0  1.33211  0  0  -0.095494  -0.197141  0  1.36127  0
F  F80  1  0.29132613  0.08639698  0.57079782  1  0  -0.234992  0  1.176906  0  0  -0.203625  0  1.349353  0  0  -0.211888  0  1.331965  0  0  -0.095497  -0.19716  0  1.361126  0
F  F81  1  0.20867465  0.42920167  0.91360205  1  0  -0.234575  0  1.176472  0  0  -0.203589  0  1.349449  0  0  -0.21185  0  1.33206  0  0  -0.095483  -0.197115  0  1.361222  0
F  F82  1  0.91328009  0.76913962  0.42316006  1  0  -0.270398  0  1.156062  0  0  -0.224383  0  1.314909  0  0  -0.238976  0  1.305208  0  0  -0.105287  -0.217091  0  1.325119  0
F  F83  1  0.58672011  0.57683780  0.23086111  1  0  -0.270368  0  1.15596  0  0  -0.224404  0  1.314905  0  0  -0.238975  0  1.305121  0  0  -0.105315  -0.217109  0  1.325121  0
F  F84  1  0.08672368  0.23086062  0.57683697  1  0  -0.270389  0  1.156026  0  0  -0.224402  0  1.314884  0  0  -0.238974  0  1.305092  0  0  -0.105265  -0.217115  0  1.325099  0
F  F85  1  0.41327762  0.42316433  0.76913802  1  0  -0.270372  0  1.155977  0  0  -0.224394  0  1.314869  0  0  -0.238962  0  1.305079  0  0  -0.105299  -0.217101  0  1.325083  0
F  F86  1  0.75483915  0.83270203  0.29699684  1  0  -0.24807  0  1.20178  0  0  -0.212781  0  1.377824  0  0  -0.222866  0  1.363219  0  0  -0.091228  -0.205086  0  1.387838  0
F  F87  1  0.74515904  0.70300572  0.16729551  1  0  -0.248072  0  1.201695  0  0  -0.212764  0  1.377759  0  0  -0.222847  0  1.363152  0  0  -0.091197  -0.205066  0  1.387779  0
F  F88  1  0.24516436  0.16729443  0.70300293  1  0  -0.24811  0  1.201672  0  0  -0.212832  0  1.377716  0  0  -0.222916  0  1.363103  0  0  -0.09124  -0.20514  0  1.387731  0
F  F89  1  0.25483534  0.29699641  0.83270682  1  0  -0.248115  0  1.201685  0  0  -0.212824  0  1.377743  0  0  -0.222909  0  1.363131  0  0  -0.091253  -0.205126  0  1.387766  0
F  F90  1  0.19389096  0.19090094  0.30264665  1  0  -0.261872  0  1.156265  0  0  -0.218847  0  1.316827  0  0  -0.230571  0  1.303385  0  0  -0.106634  -0.21172  0  1.327582  0
F  F91  1  0.30610624  0.69735226  0.80910007  1  0  -0.263028  0  1.157155  0  0  -0.218819  0  1.316922  0  0  -0.230558  0  1.303494  0  0  -0.106603  -0.211698  0  1.327674  0
F  F92  1  0.80610652  0.80909741  0.69735280  1  0  -0.263012  0  1.157186  0  0  -0.218813  0  1.31696  0  0  -0.228533  0  1.301343  0  0  -0.106606  -0.211688  0  1.327719  0
F  F93  1  0.69389171  0.30264892  0.19090108  1  0  -0.262841  0  1.156779  0  0  -0.218803  0  1.316956  0  0  -0.23053  0  1.303516  0  0  -0.106596  -0.21167  0  1.327715  0
F  F94  1  0.95018905  0.20564967  0.38596768  1  0  -0.245788  0  1.173358  0  0  -0.212052  0  1.34733  0  0  -0.221409  0  1.332041  0  0  -0.101176  -0.204955  0  1.357624  0
F  F95  1  0.54980983  0.61403144  0.79434969  1  0  -0.247069  0  1.174213  0  0  -0.212103  0  1.347303  0  0  -0.221485  0  1.332092  0  0  -0.101214  -0.205007  0  1.357593  0
F  F96  1  0.04980843  0.79434869  0.61403177  1  0  -0.247078  0  1.174182  0  0  -0.212112  0  1.347263  0  0  -0.221727  0  1.332139  0  0  -0.101231  -0.205011  0  1.357555  0
F  F97  1  0.45018744  0.38596786  0.20565256  1  0  -0.247043  0  1.174229  0  0  -0.212057  0  1.347385  0  0  -0.221408  0  1.332092  0  0  -0.101186  -0.204951  0  1.357683  0
F  F98  1  0.02673744  0.34425674  0.19344120  1  0  -0.247134  0  1.17561  0  0  -0.205499  0  1.338202  0  0  -0.214516  0  1.321392  0  0  -0.097408  -0.198744  0  1.349739  0
F  F99  1  0.47326103  0.80655900  0.65574468  1  0  -0.237873  0  1.166028  0  0  -0.205555  0  1.338167  0  0  -0.214616  0  1.321474  0  0  -0.097478  -0.198801  0  1.349697  0
F  F100  1  0.97325939  0.65574444  0.80656102  1  0  -0.237812  0  1.165989  0  0  -0.205498  0  1.338156  0  0  -0.214757  0  1.321501  0  0  -0.097429  -0.198738  0  1.349692  0
F  F101  1  0.52673959  0.19344029  0.34425437  1  0  -0.237862  0  1.166019  0  0  -0.205521  0  1.338186  0  0  -0.214535  0  1.321381  0  0  -0.097471  -0.198758  0  1.349725  0
