# generated using pymatgen
data_Mg2H10C16O9
_symmetry_space_group_name_H-M   'P 1'
_cell_length_a   6.84299667
_cell_length_b   28.24909656
_cell_length_c   28.24675843
_cell_angle_alpha   119.36069828
_cell_angle_beta   94.63041863
_cell_angle_gamma   94.64551448
_symmetry_Int_Tables_number   1
_chemical_formula_structural   Mg2H10C16O9
_chemical_formula_sum   'Mg6 H30 C48 O27'
_cell_volume   4697.51561057
_cell_formula_units_Z   3
loop_
 _symmetry_equiv_pos_site_id
 _symmetry_equiv_pos_as_xyz
  1  'x, y, z'
loop_
 _atom_site_type_symbol
 _atom_site_label
 _atom_site_symmetry_multiplicity
 _atom_site_fract_x
 _atom_site_fract_y
 _atom_site_fract_z
 _atom_site_occupancy
 _atom_site_pbe_bader_charge
 _atom_site_pbe_bader_spin_density
 _atom_site_pbe_cm5_charge
 _atom_site_pbe_ddec_charge
 _atom_site_pbe_ddec_spin_density
 _atom_site_pbe_ddec_sum_bond_order
 _atom_site_pbe_magmom
Mg  Mg0  1  0.49731856  0.30031088  0.67396276  1  1.684048  0  0.906553  1.408944  0  1.330755  0
Mg  Mg1  1  0.20663614  0.62652350  0.32664525  1  1.683552  0  0.901469  1.408451  0  1.325268  0
Mg  Mg2  1  0.82341165  0.32603202  0.62634004  1  1.682876  0  0.906499  1.409433  0  1.329699  0
Mg  Mg3  1  0.87994982  0.67338879  0.29985186  1  1.684322  0  0.901442  1.40916  0  1.32355  0
Mg  Mg4  1  0.19707866  0.37365072  0.69969448  1  1.682872  0  0.90665  1.408691  0  1.330731  0
Mg  Mg5  1  0.58015421  0.70016163  0.37352557  1  1.683197  0  0.901386  1.409746  0  1.323285  0
H  H6  1  0.81808775  0.56259399  0.16607729  1  0.059661  0  0.108655  0.137281  0  1.017799  0
H  H7  1  0.50041830  0.62006943  0.14852097  1  0.09964  0  0.104902  0.107891  0  1.001749  0
H  H8  1  0.24033037  0.57522528  0.06561202  1  0.062478  0  0.103483  0.118889  0  1.01681  0
H  H9  1  0.61141232  0.53110168  0.08703932  1  0.076132  0  0.10636  0.040077  0  1.006291  0
H  H10  1  0.75365742  0.47587044  0.07621036  1  0.059806  0  0.123509  0.073765  0  0.940256  0
H  H11  1  0.61904865  0.53368623  0.98776624  1  0.06971  0  0.111119  0.047056  0  0.982793  0
H  H12  1  0.39944076  0.51764248  0.01205956  1  0.07157  0  0.113147  0.052401  0  0.993924  0
H  H13  1  0.26842716  0.40136787  0.83525888  1  0.083471  0  0.113187  0.147434  0  0.996645  0
H  H14  1  0.99001479  0.45579671  0.85501677  1  0.080935  0  0.106021  0.110237  0  1.001691  0
H  H15  1  0.82617591  0.48752552  0.93833842  1  0.097775  0  0.102091  0.119883  0  1.027411  0
H  H16  1  0.65227972  0.83398943  0.39669443  1  0.080086  0  0.10866  0.137545  0  1.018093  0
H  H17  1  0.35238591  0.85145122  0.47145560  1  0.102973  0  0.104734  0.107568  0  1.001979  0
H  H18  1  0.17566363  0.93442778  0.50954058  1  0.086349  0  0.103695  0.119217  0  1.016911  0
H  H19  1  0.52501411  0.91295529  0.44418244  1  0.055862  0  0.10589  0.03956  0  1.006602  0
H  H20  1  0.67810929  0.92381185  0.39980640  1  0.102094  0  0.123516  0.073414  0  0.940303  0
H  H21  1  0.63121093  0.01225162  0.54605964  1  0.07946  0  0.111328  0.046677  0  0.983051  0
H  H22  1  0.38752372  0.98782202  0.50558344  1  0.078381  0  0.112839  0.052956  0  0.994253  0
H  H23  1  0.43284202  0.16463710  0.56609456  1  0.101341  0  0.113254  0.147431  0  0.996141  0
H  H24  1  0.13481096  0.14502333  0.60080266  1  0.089429  0  0.105775  0.109913  0  1.002024  0
H  H25  1  0.88766115  0.06165489  0.54926716  1  0.095703  0  0.102444  0.120204  0  1.02724  0
H  H26  1  0.25524813  0.60328520  0.43720221  1  0.058827  0  0.10868  0.137333  0  1.017899  0
H  H27  1  0.88028007  0.52846348  0.37982064  1  0.084561  0  0.104832  0.10776  0  1.002195  0
H  H28  1  0.66530756  0.49035318  0.42465362  1  0.065928  0  0.103128  0.118801  0  1.016419  0
H  H29  1  0.08042792  0.55584532  0.46876622  1  0.069731  0  0.106085  0.040474  0  1.005432  0
H  H30  1  0.27779277  0.60030426  0.52402308  1  0.10914  0  0.123543  0.073654  0  0.940673  0
H  H31  1  0.08572969  0.45402265  0.46622853  1  0.068607  0  0.111062  0.046405  0  0.983193  0
H  H32  1  0.88189902  0.49426130  0.48219921  1  0.076985  0  0.113177  0.053757  0  0.993495  0
H  H33  1  0.86724781  0.43398113  0.59862343  1  0.08966  0  0.113141  0.147358  0  0.996579  0
H  H34  1  0.53461399  0.39933111  0.54439274  1  0.075476  0  0.105948  0.10968  0  1.002611  0
H  H35  1  0.33903321  0.45077562  0.51246796  1  0.087695  0  0.102287  0.119891  0  1.027483  0
C  C36  1  0.01648096  0.56352531  0.10989748  1  0.468782  0  0.088963  0.305167  0  4.093303  0
C  C37  1  0.96711323  0.57399453  0.16079480  1  0.046918  0  -0.131106  -0.372313  0  3.956994  0
C  C38  1  0.10814461  0.60184648  0.20845741  1  0.543615  0  0.097139  0.397723  0  4.080461  0
C  C39  1  0.30749045  0.61651012  0.20310924  1  0.009162  0  -0.053675  -0.235672  0  3.979051  0
C  C40  1  0.34956419  0.60679605  0.15116276  1  -0.068612  0  -0.089117  -0.053382  0  4.062819  0
C  C41  1  0.20826832  0.58184199  0.10535308  1  -0.007532  0  -0.122217  -0.245066  0  4.043634  0
C  C42  1  0.47076431  0.64115453  0.24857520  1  1.465515  0  0.230574  0.673347  0  4.139751  0
C  C43  1  0.71143449  0.50336839  0.06111784  1  0.930676  0  0.029732  0.180147  0  3.967922  0
C  C44  1  0.51750532  0.50074142  0.98684810  1  0.924782  0  0.028736  0.182101  0  3.957073  0
C  C45  1  0.53424446  0.44730749  0.89115620  1  0.414697  0  0.087815  0.298631  0  4.056805  0
C  C46  1  0.42709045  0.41312962  0.83942061  1  0.049619  0  -0.119954  -0.338671  0  3.935351  0
C  C47  1  0.51989829  0.39290793  0.79198210  1  0.595275  0  0.095873  0.389978  0  4.095621  0
C  C48  1  0.72871381  0.40954304  0.79816310  1  -0.051596  0  -0.050451  -0.231274  0  3.976637  0
C  C49  1  0.83136783  0.44416623  0.85128683  1  -0.00018  0  -0.083249  -0.036177  0  4.029393  0
C  C50  1  0.73942231  0.46289427  0.89797864  1  -0.046754  0  -0.125834  -0.261721  0  4.046405  0
C  C51  1  0.84178419  0.39190220  0.75165354  1  1.504631  0  0.232905  0.674607  0  4.135789  0
C  C52  1  0.90713684  0.89014253  0.45369101  1  0.474404  0  0.087999  0.304281  0  4.093187  0
C  C53  1  0.80666857  0.83924645  0.41329796  1  -0.026266  0  -0.130106  -0.371726  0  3.956609  0
C  C54  1  0.89991111  0.79157095  0.39343167  1  0.623369  0  0.096965  0.397635  0  4.079961  0
C  C55  1  0.10459649  0.79690921  0.41340383  1  -0.00518  0  -0.054138  -0.236128  0  3.978942  0
C  C56  1  0.19888556  0.84885673  0.45558144  1  -0.024306  0  -0.088656  -0.052595  0  4.061492  0
C  C57  1  0.10357386  0.89467894  0.47647673  1  -0.101032  0  -0.122734  -0.245908  0  4.04334  0
C  C58  1  0.22225028  0.75142906  0.39256335  1  1.500762  0  0.230547  0.673744  0  4.139367  0
C  C59  1  0.65093001  0.93889366  0.44238931  1  0.906109  0  0.030029  0.180428  0  3.967831  0
C  C60  1  0.53077063  0.01310685  0.51397669  1  0.897406  0  0.029052  0.182296  0  3.95576  0
C  C61  1  0.64287929  0.10880399  0.55618452  1  0.405659  0  0.088159  0.299186  0  4.055015  0
C  C62  1  0.58740459  0.16052442  0.57370366  1  0.048251  0  -0.120152  -0.338576  0  3.932808  0
C  C63  1  0.72768331  0.20798953  0.60089098  1  0.590415  0  0.096279  0.391047  0  4.092799  0
C  C64  1  0.93032948  0.20182794  0.61135050  1  -0.087458  0  -0.050036  -0.231405  0  3.974658  0
C  C65  1  0.97988689  0.14871529  0.59287930  1  0.05677  0  -0.082818  -0.03539  0  4.028838  0
C  C66  1  0.84126846  0.10200397  0.56494931  1  -0.079414  0  -0.126872  -0.263007  0  4.045497  0
C  C67  1  0.08991011  0.24834770  0.64020805  1  1.486762  0  0.232982  0.675221  0  4.133914  0
C  C68  1  0.45293264  0.54629134  0.43635688  1  0.484038  0  0.088347  0.304942  0  4.09304  0
C  C69  1  0.39297547  0.58667098  0.42583919  1  0.000317  0  -0.130439  -0.371094  0  3.956965  0
C  C70  1  0.50622956  0.60657197  0.39807780  1  0.59619  0  0.096857  0.396737  0  4.083833  0
C  C71  1  0.69093335  0.58659594  0.38343757  1  0.005627  0  -0.053736  -0.235407  0  3.979127  0
C  C72  1  0.74270156  0.54434746  0.39311171  1  -0.063052  0  -0.088931  -0.053248  0  4.062099  0
C  C73  1  0.62641358  0.52345776  0.41803915  1  -0.034855  0  -0.122188  -0.245427  0  4.042717  0
C  C74  1  0.82961016  0.60749309  0.35888293  1  1.485698  0  0.230765  0.673879  0  4.137909  0
C  C75  1  0.20815125  0.55768643  0.49652295  1  0.888297  0  0.02927  0.179187  0  3.97031  0
C  C76  1  0.01692114  0.48601997  0.49914390  1  0.91662  0  0.028928  0.181133  0  3.956352  0
C  C77  1  0.08721435  0.44385984  0.55269315  1  0.384435  0  0.0875  0.297546  0  4.058541  0
C  C78  1  0.01419701  0.42637071  0.58690600  1  0.009201  0  -0.120283  -0.338023  0  3.93452  0
C  C79  1  0.12713845  0.39917277  0.60718370  1  0.60862  0  0.096357  0.38997  0  4.093161  0
C  C80  1  0.31938578  0.38874548  0.59058429  1  -0.009495  0  -0.05085  -0.231688  0  3.976617  0
C  C81  1  0.38754580  0.40723793  0.55596956  1  -0.019418  0  -0.083152  -0.03602  0  4.030327  0
C  C82  1  0.27687271  0.43512178  0.53715152  1  -0.010204  0  -0.126287  -0.261395  0  4.04562  0
C  C83  1  0.44992653  0.35982470  0.60817158  1  1.498405  0  0.233279  0.675525  0  4.135472  0
O  O84  1  0.02347920  0.41100264  0.75835795  1  -1.248857  0  -0.360008  -0.650099  0  2.147674  0
O  O85  1  0.75284541  0.35560174  0.70326142  1  -1.303067  0  -0.404132  -0.770328  0  2.415035  0
O  O86  1  0.40866402  0.35925306  0.74344226  1  -1.319187  0  -0.448347  -0.77604  0  2.307395  0
O  O87  1  0.64625640  0.65301074  0.24162590  1  -1.242066  0  -0.361384  -0.651136  0  2.146216  0
O  O88  1  0.43489825  0.64988792  0.29644892  1  -1.300641  0  -0.407869  -0.777892  0  2.413667  0
O  O89  1  0.04604131  0.61332458  0.25635111  1  -1.305881  0  -0.444905  -0.771591  0  2.288524  0
O  O90  1  0.88897852  0.53587810  0.06220013  1  -1.059424  0  -0.188092  -0.24217  0  2.501172  0
O  O91  1  0.62472719  0.47107803  0.00708824  1  -1.047788  0  -0.223389  -0.251043  0  2.47706  0
O  O92  1  0.42319526  0.46387238  0.93397745  1  -1.081728  0  -0.178235  -0.209833  0  2.528503  0
O  O93  1  0.26488050  0.24164510  0.65259689  1  -1.243807  0  -0.360387  -0.650735  0  2.147459  0
O  O94  1  0.04942612  0.29673200  0.65228667  1  -1.295496  0  -0.405008  -0.771104  0  2.415511  0
O  O95  1  0.66503400  0.25652209  0.61577736  1  -1.306269  0  -0.44839  -0.777097  0  2.306838  0
O  O96  1  0.40468478  0.75836016  0.41135644  1  -1.251591  0  -0.36141  -0.651361  0  2.146227  0
O  O97  1  0.13834975  0.70357140  0.35341427  1  -1.313061  0  -0.407713  -0.777633  0  2.41353  0
O  O98  1  0.78975452  0.74369161  0.35700463  1  -1.317851  0  -0.444359  -0.77148  0  2.288054  0
O  O99  1  0.82742601  0.93783989  0.47380009  1  -1.05972  0  -0.187987  -0.24172  0  2.500621  0
O  O100  1  0.61813122  0.99290288  0.46412698  1  -1.035258  0  -0.223283  -0.250702  0  2.476819  0
O  O101  1  0.48909154  0.06593784  0.52992042  1  -1.084414  0  -0.178114  -0.210262  0  2.527462  0
O  O102  1  0.61247669  0.34740499  0.58906797  1  -1.245638  0  -0.359811  -0.650868  0  2.147616  0
O  O103  1  0.39713149  0.34767614  0.64441654  1  -1.296108  0  -0.405197  -0.770577  0  2.415342  0
O  O104  1  0.04934129  0.38425726  0.64078460  1  -1.312974  0  -0.447731  -0.775552  0  2.305993  0
O  O105  1  0.99344400  0.58878908  0.34713477  1  -1.243968  0  -0.361606  -0.651169  0  2.146635  0
O  O106  1  0.78487692  0.64661482  0.35014384  1  -1.301922  0  -0.408202  -0.77868  0  2.412592  0
O  O107  1  0.43275323  0.64304227  0.38668567  1  -1.307586  0  -0.444287  -0.770914  0  2.289406  0
O  O108  1  0.35326036  0.52628546  0.46406095  1  -1.055779  0  -0.18775  -0.242244  0  2.502673  0
O  O109  1  0.15369556  0.53597001  0.52882273  1  -1.047861  0  -0.223236  -0.250768  0  2.476359  0
O  O110  1  0.95952554  0.47002823  0.53602336  1  -1.078065  0  -0.177732  -0.209085  0  2.529288  0
