# generated using pymatgen
data_Zn2H19C32Br2N3O10
_symmetry_space_group_name_H-M   'P 1'
_cell_length_a   9.77296416
_cell_length_b   11.01999853
_cell_length_c   17.58469509
_cell_angle_alpha   95.02653944
_cell_angle_beta   92.65756029
_cell_angle_gamma   87.47744441
_symmetry_Int_Tables_number   1
_chemical_formula_structural   Zn2H19C32Br2N3O10
_chemical_formula_sum   'Zn2 H19 C32 Br2 N3 O10'
_cell_volume   1883.00572254
_cell_formula_units_Z   1
loop_
 _symmetry_equiv_pos_site_id
 _symmetry_equiv_pos_as_xyz
  1  'x, y, z'
loop_
 _atom_site_type_symbol
 _atom_site_label
 _atom_site_symmetry_multiplicity
 _atom_site_fract_x
 _atom_site_fract_y
 _atom_site_fract_z
 _atom_site_occupancy
 _atom_site_pbe_bader_charge
 _atom_site_pbe_bader_spin_density
 _atom_site_pbe_cm5_charge
 _atom_site_pbe_ddec_charge
 _atom_site_pbe_ddec_spin_density
 _atom_site_pbe_ddec_sum_bond_order
 _atom_site_pbe_magmom
Zn  Zn0  1  0.63173751  0.49575650  0.50499517  1  1.283225  0  0.670522  0.820628  0  2.432967  0
Zn  Zn1  1  0.34771511  0.50834614  0.50327351  1  1.299979  0  0.664556  0.83788  0  2.376281  0
H  H2  1  0.34247479  0.37891048  0.73481678  1  0.079805  0  0.101322  0.099315  0  1.022321  0
H  H3  1  0.38771687  0.34215009  0.99630754  1  0.046083  0  0.103614  0.104119  0  0.998228  0
H  H4  1  0.73704890  0.54305328  0.89319320  1  0.046913  0  0.100298  0.098219  0  0.999089  0
H  H5  1  0.61102705  0.56614842  0.11362648  1  0.083952  0  0.106406  0.117679  0  1.004732  0
H  H6  1  0.71594440  0.57180161  0.75389310  1  0.090751  0  0.104044  0.107041  0  1.000793  0
H  H7  1  0.65191245  0.48585641  0.00340346  1  0.061608  0  0.101959  0.097959  0  1.003392  0
H  H8  1  0.36370376  0.34530345  0.87227130  1  0.027709  0  0.100901  0.099391  0  1.004405  0
H  H9  1  0.34398636  0.26471789  0.12024578  1  0.101836  0  0.116086  0.129728  0  0.987656  0
H  H10  1  0.26524908  0.11968826  0.51551602  1  0.08706  0  0.097774  0.099112  0  1.015371  0
H  H11  1  0.27244386  0.89375035  0.51613933  1  0.100183  0  0.096203  0.101598  0  1.018912  0
H  H12  1  0.82154215  0.88036910  0.51817219  1  0.046224  0  0.090951  0.099699  0  0.99015  0
H  H13  1  0.78214199  0.87654366  0.41789649  1  0.011463  0  0.087922  0.096272  0  1.004598  0
H  H14  1  0.81542087  0.10945209  0.52642081  1  0.034573  0  0.088577  0.090528  0  1.015205  0
H  H15  1  0.77928764  0.10583814  0.42585861  1  0.069622  0  0.099455  0.113553  0  0.97343  0
H  H16  1  0.83153729  0.61645392  0.41611873  1  0.182815  0  0.123323  0.116094  0  1.021803  0
H  H17  1  0.89250375  0.40237855  0.66768780  1  0.093332  0  0.111682  0.133911  0  0.972399  0
H  H18  1  0.90012239  0.27132141  0.60026896  1  0.067468  0  0.110584  0.129648  0  0.987212  0
H  H19  1  0.15076686  0.41830343  0.66375886  1  0.089804  0  0.110395  0.134027  0  0.986587  0
H  H20  1  0.15861412  0.28750176  0.59614655  1  0.099165  0  0.11191  0.136923  0  0.981017  0
C  C21  1  0.47815060  0.26791245  0.50573435  1  1.578315  0  0.216783  0.600247  0  4.163391  0
C  C22  1  0.50993849  0.50435940  0.65362799  1  1.58546  0  0.211196  0.589205  0  4.180871  0
C  C23  1  0.48994171  0.73522717  0.49919294  1  1.539696  0  0.215382  0.603078  0  4.16534  0
C  C24  1  0.49323028  0.46432674  0.35450372  1  1.660962  0  0.206655  0.598386  0  4.234742  0
C  C25  1  0.52601512  0.48019318  0.73622155  1  -0.039529  0  -0.016087  -0.025203  0  3.954848  0
C  C26  1  0.42843830  0.41483614  0.77018787  1  -0.059115  0  -0.085068  -0.091859  0  3.996946  0
C  C27  1  0.44124489  0.39593266  0.84727084  1  -0.008381  0  -0.089945  -0.130544  0  3.967411  0
C  C28  1  0.55125276  0.44397216  0.89357169  1  0.022827  0  -0.011696  0.109239  0  4.051499  0
C  C29  1  0.65094808  0.50583726  0.85822699  1  -0.055478  0  -0.091548  -0.136958  0  3.983248  0
C  C30  1  0.63934488  0.52287111  0.78077451  1  -0.025989  0  -0.085973  -0.094615  0  4.002012  0
C  C31  1  0.55717031  0.50316360  0.14480137  1  0.040157  0  -0.086407  -0.173287  0  3.929698  0
C  C32  1  0.56009139  0.51969658  0.22406771  1  -0.159762  0  -0.00649  0.103889  0  3.946769  0
C  C33  1  0.41360064  0.35395527  0.22719328  1  0.144947  0  0.082336  0.068893  0  3.926847  0
C  C34  1  0.40655499  0.33667991  0.14789254  1  0.070585  0  -0.078939  -0.1823  0  3.929361  0
C  C35  1  0.48149091  0.41003084  0.10488243  1  0.039514  0  -0.004773  0.139999  0  4.045438  0
C  C36  1  0.56276907  0.44027864  0.97613501  1  -0.007664  0  -0.087491  -0.122499  0  3.999694  0
C  C37  1  0.47410756  0.39360053  0.02162140  1  -0.080801  0  -0.091125  -0.134798  0  3.984918  0
C  C38  1  0.49004719  0.44453454  0.26833491  1  0.076628  0  -0.003627  -0.093884  0  3.89769  0
C  C39  1  0.60219887  0.06172167  0.49165373  1  -0.036063  0  -0.004515  0.062975  0  3.874506  0
C  C40  1  0.48178728  0.13243558  0.50223979  1  -0.023019  0  -0.011156  -0.063337  0  3.966594  0
C  C41  1  0.36231362  0.06786339  0.50944050  1  -0.056991  0  -0.087334  -0.102974  0  3.997736  0
C  C42  1  0.36577022  0.94118401  0.50858558  1  -0.001978  0  -0.090682  -0.103704  0  3.995108  0
C  C43  1  0.48840551  0.87019561  0.49832688  1  -0.021378  0  -0.016181  -0.075135  0  3.972925  0
C  C44  1  0.60510160  0.93448453  0.48855713  1  0.003148  0  -0.006258  0.061773  0  3.880185  0
C  C45  1  0.75699657  0.92211082  0.47391659  1  -0.028845  0  -0.156154  -0.199377  0  3.893198  0
C  C46  1  0.75403011  0.06621462  0.47839807  1  -0.00068  0  -0.151663  -0.193233  0  3.881279  0
C  C47  1  0.07118177  0.45390063  0.54857784  1  0.542692  0  0.145838  0.21322  0  3.84903  0
C  C48  1  0.04306957  0.57894072  0.45425360  1  0.48431  0  0.127377  0.19112  0  3.928122  0
C  C49  1  0.90021513  0.56878823  0.45507805  1  0.486292  0  0.06289  0.009033  0  3.848989  0
C  C50  1  0.93009665  0.44487096  0.55050367  1  0.591635  0  0.141006  0.185212  0  3.872818  0
C  C51  1  0.93898887  0.36272043  0.61500331  1  -0.023079  0  -0.135783  -0.223892  0  3.821134  0
C  C52  1  0.10070429  0.37247689  0.61268425  1  -0.031658  0  -0.136954  -0.226254  0  3.81265  0
Br  Br53  1  0.10911661  0.68160440  0.38554981  1  0.056278  0  0.108026  0.023907  0  1.42746  0
Br  Br54  1  0.65647917  0.65527964  0.27112854  1  -0.053335  0  0.031179  -0.057332  0  1.40493  0
N  N55  1  0.13252656  0.51986165  0.50091671  1  -1.21528  0  -0.284831  -0.222039  0  3.414497  0
N  N56  1  0.84194369  0.50046214  0.50392380  1  -1.197926  0  -0.284738  -0.153371  0  3.464984  0
N  N57  1  0.33905455  0.26797492  0.26845710  1  0.402745  0  0.058552  0.519858  0  4.204211  0
O  O58  1  0.59337397  0.31825881  0.51705105  1  -1.164043  0  -0.314279  -0.5405  0  2.312038  0
O  O59  1  0.36164842  0.32315188  0.49775746  1  -1.161319  0  -0.313545  -0.540236  0  2.339012  0
O  O60  1  0.61825469  0.53018428  0.62141509  1  -1.167939  0  -0.3266  -0.558892  0  2.302684  0
O  O61  1  0.39047389  0.49712453  0.62185791  1  -1.174866  0  -0.317226  -0.55302  0  2.297208  0
O  O62  1  0.60323046  0.67639407  0.48682816  1  -1.163047  0  -0.314404  -0.54638  0  2.335226  0
O  O63  1  0.37774892  0.68794414  0.51291470  1  -1.166175  0  -0.322289  -0.556306  0  2.37737  0
O  O64  1  0.61003956  0.45121600  0.38753567  1  -1.153552  0  -0.311811  -0.534554  0  2.326105  0
O  O65  1  0.38036927  0.49520893  0.38472657  1  -1.155973  0  -0.315887  -0.554089  0  2.340423  0
O  O66  1  0.39569551  0.23175833  0.32712553  1  -0.439316  0  -0.115033  -0.304604  0  1.935054  0
O  O67  1  0.22639131  0.23569635  0.24016297  1  -0.45658  0  -0.149211  -0.34818  0  1.851489  0
