# generated using pymatgen
data_ZnH12C18N2O3
_symmetry_space_group_name_H-M   'P 1'
_cell_length_a   4.85500416
_cell_length_b   19.21850373
_cell_length_c   19.22856162
_cell_angle_alpha   89.08327113
_cell_angle_beta   82.69865298
_cell_angle_gamma   82.73699943
_symmetry_Int_Tables_number   1
_chemical_formula_structural   ZnH12C18N2O3
_chemical_formula_sum   'Zn4 H48 C72 N8 O12'
_cell_volume   1765.31176798
_cell_formula_units_Z   4
loop_
 _symmetry_equiv_pos_site_id
 _symmetry_equiv_pos_as_xyz
  1  'x, y, z'
loop_
 _atom_site_type_symbol
 _atom_site_label
 _atom_site_symmetry_multiplicity
 _atom_site_fract_x
 _atom_site_fract_y
 _atom_site_fract_z
 _atom_site_occupancy
 _atom_site_pbe_bader_charge
 _atom_site_pbe_bader_spin_density
 _atom_site_pbe_cm5_charge
 _atom_site_pbe_ddec_charge
 _atom_site_pbe_ddec_spin_density
 _atom_site_pbe_ddec_sum_bond_order
 _atom_site_pbe_magmom
Zn  Zn0  1  0.39074254  0.56084727  0.98598250  1  1.268173  0  0.65935  0.905902  0  2.372403  0
Zn  Zn1  1  0.93732729  0.43923600  0.01407687  1  1.267351  0  0.659806  0.906336  0  2.371969  0
Zn  Zn2  1  0.04849715  0.01403347  0.56078533  1  1.269759  0  0.659674  0.907033  0  2.370964  0
Zn  Zn3  1  0.62377408  0.98603825  0.43911043  1  1.266321  0  0.658903  0.905917  0  2.371982  0
H  H4  1  0.30917861  0.66523366  0.66910644  1  0.065009  0  0.103528  0.112693  0  1.047547  0
H  H5  1  0.04642146  0.50259348  0.86965113  1  0.144135  0  0.111181  0.134784  0  1.02214  0
H  H6  1  0.78517446  0.44317327  0.79269580  1  0.068736  0  0.105288  0.111989  0  1.006556  0
H  H7  1  0.07797459  0.59754363  0.59231077  1  0.053845  0  0.096776  0.100293  0  1.029009  0
H  H8  1  0.77085268  0.50657336  0.57701984  1  0.03479  0  0.093639  0.085439  0  1.041671  0
H  H9  1  0.59486595  0.69739914  0.91058080  1  0.200424  0  0.145947  0.122105  0  1.0042  0
H  H10  1  0.61972161  0.43100801  0.67678838  1  0.037534  0  0.09364  0.086769  0  1.046882  0
H  H11  1  0.71590101  0.69890744  0.67411531  1  0.063597  0  0.100401  0.10219  0  1.055167  0
H  H12  1  0.84372511  0.81035834  0.61729103  1  0.089345  0  0.103656  0.105645  0  1.02214  0
H  H13  1  0.44870962  0.80900243  0.86920324  1  0.109094  0  0.114456  0.12737  0  0.98523  0
H  H14  1  0.61234960  0.91780700  0.81387925  1  0.105308  0  0.110625  0.115374  0  0.987617  0
H  H15  1  0.51202391  0.43575503  0.95069223  1  0.623832  0  0.26661  0.364203  0  0.985264  0
H  H16  1  0.64366793  0.33494089  0.33108385  1  0.064653  0  0.102747  0.11314  0  1.047119  0
H  H17  1  0.42017522  0.49758765  0.13053453  1  0.14339  0  0.110879  0.134634  0  1.022353  0
H  H18  1  0.02145458  0.55696124  0.20753651  1  0.110243  0  0.104678  0.11161  0  1.007611  0
H  H19  1  0.26711503  0.40247588  0.40780439  1  0.055211  0  0.096975  0.100965  0  1.028768  0
H  H20  1  0.85240347  0.49313622  0.42302528  1  0.050922  0  0.093116  0.085302  0  1.04049  0
H  H21  1  0.20330881  0.30259860  0.08937639  1  0.187812  0  0.145961  0.122135  0  1.004204  0
H  H22  1  0.72634639  0.56885623  0.32332474  1  0.032768  0  0.094189  0.087763  0  1.047583  0
H  H23  1  0.08897413  0.30101833  0.32590775  1  0.068525  0  0.100589  0.102359  0  1.055107  0
H  H24  1  0.27163948  0.18953390  0.38260491  1  0.086541  0  0.103919  0.106588  0  1.021288  0
H  H25  1  0.12835728  0.19105463  0.13072523  1  0.074122  0  0.115202  0.1282  0  0.984595  0
H  H26  1  0.34532743  0.08222636  0.18596425  1  0.118315  0  0.110622  0.114786  0  0.986956  0
H  H27  1  0.89816262  0.56434261  0.04927358  1  0.626968  0  0.268125  0.36603  0  0.9835  0
H  H28  1  0.02529332  0.33112553  0.66520204  1  0.06406  0  0.102856  0.113417  0  1.04649  0
H  H29  1  0.45030174  0.13060550  0.50246121  1  0.103835  0  0.111218  0.135061  0  1.023035  0
H  H30  1  0.77101625  0.20747934  0.44307092  1  0.065306  0  0.10473  0.111606  0  1.006867  0
H  H31  1  0.32586795  0.40796907  0.59762131  1  0.051444  0  0.096933  0.100786  0  1.028452  0
H  H32  1  0.72491734  0.42306667  0.50677208  1  0.072128  0  0.094035  0.085098  0  1.040507  0
H  H33  1  0.70823763  0.08936612  0.69749437  1  0.223023  0  0.145674  0.121341  0  1.004353  0
H  H34  1  0.95028813  0.32328470  0.43103138  1  0.035011  0  0.093687  0.088239  0  1.046827  0
H  H35  1  0.58396588  0.32581659  0.69897207  1  0.06927  0  0.100792  0.102964  0  1.054993  0
H  H36  1  0.34494860  0.38268688  0.81042854  1  0.087931  0  0.104223  0.106341  0  1.021155  0
H  H37  1  0.74322948  0.13083825  0.80910408  1  0.121855  0  0.114672  0.127529  0  0.985459  0
H  H38  1  0.47064867  0.18614329  0.91789390  1  0.114168  0  0.111094  0.114697  0  0.986823  0
H  H39  1  0.05264936  0.04941486  0.43574931  1  0.633418  0  0.268523  0.366841  0  0.981935  0
H  H40  1  0.02024216  0.66886124  0.33478863  1  0.108899  0  0.103352  0.113234  0  1.047228  0
H  H41  1  0.08314928  0.86944336  0.49725744  1  0.140183  0  0.110493  0.134411  0  1.022977  0
H  H42  1  0.42071733  0.79233451  0.55668847  1  0.07645  0  0.104437  0.111411  0  1.006824  0
H  H43  1  0.32847466  0.59191622  0.40239916  1  0.055735  0  0.097313  0.101102  0  1.02764  0
H  H44  1  0.65194256  0.57663916  0.49307106  1  0.036722  0  0.09403  0.084373  0  1.041588  0
H  H45  1  0.49441312  0.91067887  0.30253714  1  0.215323  0  0.145908  0.122027  0  1.004243  0
H  H46  1  0.70303532  0.67640023  0.56864995  1  0.035758  0  0.093967  0.087971  0  1.047398  0
H  H47  1  0.60739901  0.67422544  0.30112316  1  0.063213  0  0.100806  0.102662  0  1.055515  0
H  H48  1  0.53711459  0.61739969  0.18968296  1  0.08532  0  0.103741  0.106758  0  1.021372  0
H  H49  1  0.68381386  0.86914055  0.19096160  1  0.073067  0  0.114199  0.126555  0  0.986493  0
H  H50  1  0.57661785  0.81384870  0.08211949  1  0.116048  0  0.111245  0.11459  0  0.987625  0
H  H51  1  0.53742278  0.95065928  0.56415098  1  0.628941  0  0.268594  0.367611  0  0.981371  0
C  C52  1  0.57155711  0.74771792  0.77434898  1  0.268764  0  0.094744  0.179138  0  4.017742  0
C  C53  1  0.25909953  0.62980319  0.71225127  1  0.038302  0  -0.093239  -0.216053  0  3.987071  0
C  C54  1  0.33950717  0.63655064  0.77772167  1  0.275087  0  0.09554  0.103794  0  3.999448  0
C  C55  1  0.02144323  0.52883309  0.75989657  1  -0.004897  0  -0.009632  0.072199  0  3.995736  0
C  C56  1  0.10031447  0.57472720  0.70242239  1  0.006233  0  -0.012802  0.073547  0  4.006176  0
C  C57  1  0.10971853  0.53683984  0.82631060  1  -0.020449  0  -0.084889  -0.200974  0  3.916654  0
C  C58  1  0.26875666  0.59015649  0.83425864  1  0.36059  0  0.088866  0.149791  0  4.073071  0
C  C59  1  0.84836121  0.47662442  0.74865797  1  -0.037043  0  -0.090296  -0.130383  0  3.968122  0
C  C60  1  0.01022832  0.56433069  0.63618666  1  -0.073012  0  -0.09598  -0.144528  0  3.992753  0
C  C61  1  0.84244908  0.51335100  0.62761278  1  -0.060275  0  -0.100562  -0.088769  0  4.053521  0
C  C62  1  0.49908414  0.66764131  0.87482653  1  1.017408  0  0.178273  0.161435  0  3.883236  0
C  C63  1  0.75838568  0.46971508  0.68441632  1  -0.013332  0  -0.100486  -0.094236  0  4.047835  0
C  C64  1  0.68369508  0.74760721  0.70369055  1  0.033011  0  -0.09554  -0.175251  0  3.995931  0
C  C65  1  0.73375804  0.87091038  0.71230959  1  0.001806  0  -0.014858  -0.029926  0  3.956974  0
C  C66  1  0.75925348  0.80950566  0.67254887  1  -0.100225  0  -0.081799  -0.07763  0  3.965034  0
C  C67  1  0.54205792  0.80898581  0.81453575  1  -0.075657  0  -0.086817  -0.173465  0  3.978588  0
C  C68  1  0.62879453  0.86972485  0.78359727  1  0.031733  0  -0.073515  -0.065181  0  3.969835  0
C  C69  1  0.82331876  0.93788243  0.68110260  1  1.578467  0  0.204973  0.576692  0  4.218897  0
C  C70  1  0.09430867  0.25231037  0.22562395  1  0.207536  0  0.094497  0.178715  0  4.018405  0
C  C71  1  0.60162307  0.37034877  0.28791731  1  0.039475  0  -0.094748  -0.219231  0  3.987605  0
C  C72  1  0.75460964  0.36357328  0.22243795  1  0.298697  0  0.09609  0.104956  0  3.997075  0
C  C73  1  0.31090192  0.47136341  0.24029771  1  0.003607  0  -0.010592  0.070634  0  3.999737  0
C  C74  1  0.37778198  0.42542541  0.29774999  1  0.00743  0  -0.009444  0.077996  0  4.006433  0
C  C75  1  0.47411982  0.46337447  0.17389879  1  -0.023514  0  -0.085798  -0.201124  0  3.917805  0
C  C76  1  0.69424312  0.40999743  0.16593472  1  0.344503  0  0.090239  0.149836  0  4.071432  0
C  C77  1  0.07389291  0.52347406  0.25153671  1  -0.068584  0  -0.088257  -0.128652  0  3.970132  0
C  C78  1  0.21019275  0.43570507  0.36394009  1  -0.136993  0  -0.098209  -0.147581  0  3.993094  0
C  C79  1  0.98214997  0.48652043  0.37248520  1  -0.025712  0  -0.097474  -0.086677  0  4.048229  0
C  C80  1  0.04218342  0.33241215  0.12520119  1  1.049787  0  0.17953  0.165103  0  3.884706  0
C  C81  1  0.91170392  0.53022451  0.31571526  1  -0.046284  0  -0.102823  -0.096592  0  4.050393  0
C  C82  1  0.13532812  0.25234665  0.29628676  1  0.025617  0  -0.094798  -0.173241  0  3.996148  0
C  C83  1  0.31767438  0.12905532  0.28756443  1  0.003155  0  -0.014396  -0.030283  0  3.958345  0
C  C84  1  0.24167574  0.19044305  0.32735770  1  -0.036473  0  -0.083295  -0.080344  0  3.967317  0
C  C85  1  0.16667619  0.19105802  0.18540113  1  0.043908  0  -0.088279  -0.175263  0  3.979756  0
C  C86  1  0.28321569  0.13030350  0.21628348  1  -0.057783  0  -0.072749  -0.062492  0  3.969497  0
C  C87  1  0.44274468  0.06208334  0.31875306  1  1.581525  0  0.204046  0.574917  0  4.219426  0
C  C88  1  0.68056984  0.22565709  0.74776824  1  0.224433  0  0.095645  0.178792  0  4.019612  0
C  C89  1  0.11080952  0.28800473  0.62973320  1  0.05264  0  -0.094041  -0.217683  0  3.985031  0
C  C90  1  0.02361395  0.22247290  0.63651571  1  0.279896  0  0.096512  0.104015  0  3.995834  0
C  C91  1  0.44932077  0.24037484  0.52873350  1  -0.08346  0  -0.011345  0.07208  0  4.002146  0
C  C92  1  0.32487699  0.29787253  0.57466422  1  0.035587  0  -0.008831  0.077781  0  4.005014  0
C  C93  1  0.35276999  0.17394835  0.53672505  1  0.070643  0  -0.085631  -0.202698  0  3.92102  0
C  C94  1  0.14061761  0.16593942  0.59009786  1  0.346591  0  0.090395  0.150527  0  4.071449  0
C  C95  1  0.67479328  0.25154915  0.47653929  1  -0.107089  0  -0.086748  -0.126816  0  3.967458  0
C  C96  1  0.42634957  0.36406914  0.56436096  1  -0.049207  0  -0.099461  -0.149142  0  3.991245  0
C  C97  1  0.64559795  0.37254694  0.51344276  1  -0.104288  0  -0.099475  -0.086235  0  4.046726  0
C  C98  1  0.83346791  0.12519695  0.66767211  1  1.001073  0  0.180299  0.165685  0  3.884065  0
C  C99  1  0.77258519  0.31573484  0.46970047  1  0.041596  0  -0.101848  -0.098047  0  4.04752  0
C  C100  1  0.56780368  0.29628306  0.74767976  1  -0.053219  0  -0.095289  -0.174895  0  3.99793  0
C  C101  1  0.39513205  0.28767048  0.87098721  1  -0.052499  0  -0.015354  -0.030709  0  3.957091  0
C  C102  1  0.43048124  0.32742448  0.80957575  1  0.027248  0  -0.082565  -0.078781  0  3.965449  0
C  C103  1  0.64934006  0.18547500  0.80904414  1  -0.021471  0  -0.087884  -0.174864  0  3.979321  0
C  C104  1  0.50176631  0.21639888  0.86977366  1  -0.000825  0  -0.073683  -0.062264  0  3.967499  0
C  C105  1  0.23906335  0.31880081  0.93803085  1  1.594027  0  0.206947  0.577527  0  4.218753  0
C  C106  1  0.65369179  0.77434531  0.25227391  1  0.253626  0  0.096712  0.181793  0  4.015542  0
C  C107  1  0.02710755  0.71198521  0.37024355  1  -0.027452  0  -0.094691  -0.219319  0  3.989314  0
C  C108  1  0.88151162  0.77754193  0.36347581  1  0.280421  0  0.096895  0.10703  0  3.996222  0
C  C109  1  0.21696158  0.75954433  0.47117670  1  -0.019317  0  -0.009567  0.072622  0  3.998411  0
C  C110  1  0.19557091  0.70205958  0.42530200  1  0.052976  0  -0.01079  0.076409  0  4.008195  0
C  C111  1  0.06274528  0.82606053  0.46312325  1  -0.05548  0  -0.083461  -0.19959  0  3.915485  0
C  C112  1  0.89592145  0.83408474  0.40981493  1  0.389668  0  0.087228  0.146908  0  4.070377  0
C  C113  1  0.40141801  0.74826978  0.52330680  1  -0.041376  0  -0.089525  -0.129194  0  3.969949  0
C  C114  1  0.35222621  0.63579046  0.43561175  1  -0.064078  0  -0.09863  -0.147455  0  3.99062  0
C  C115  1  0.52910328  0.62721526  0.48644286  1  -0.05688  0  -0.099658  -0.086855  0  4.049711  0
C  C116  1  0.62562394  0.87485790  0.33232469  1  0.988589  0  0.18036  0.165404  0  3.886398  0
C  C117  1  0.55621108  0.68401377  0.53009684  1  -0.038266  0  -0.099802  -0.094883  0  4.048015  0
C  C118  1  0.61118370  0.70373768  0.25240305  1  0.029924  0  -0.096089  -0.175218  0  3.997351  0
C  C119  1  0.55454399  0.71232944  0.12904423  1  -0.005244  0  -0.013824  -0.02845  0  3.954893  0
C  C120  1  0.56723873  0.67261031  0.19050116  1  -0.088045  0  -0.083179  -0.08043  0  3.966459  0
C  C121  1  0.64457318  0.81450132  0.19098753  1  0.039655  0  -0.088259  -0.174774  0  3.98099  0
C  C122  1  0.58937552  0.78356616  0.13022759  1  -0.040445  0  -0.072702  -0.062621  0  3.969186  0
C  C123  1  0.49659496  0.68120638  0.06204924  1  1.57912  0  0.204229  0.57449  0  4.221341  0
N  N124  1  0.37479779  0.61162970  0.89349719  1  -1.231878  0  -0.346017  -0.343189  0  3.542167  0
N  N125  1  0.48450147  0.68560882  0.80621592  1  -1.234872  0  -0.218231  -0.050319  0  3.720278  0
N  N126  1  0.88075676  0.38847577  0.10661472  1  -1.206861  0  -0.347379  -0.345462  0  3.543196  0
N  N127  1  0.97701004  0.31445071  0.19383342  1  -1.256404  0  -0.218483  -0.052923  0  3.720816  0
N  N128  1  0.01352402  0.10659346  0.61159666  1  -1.238693  0  -0.347463  -0.345915  0  3.540532  0
N  N129  1  0.82984845  0.19385507  0.68563866  1  -1.232947  0  -0.220822  -0.053027  0  3.722154  0
N  N130  1  0.73123546  0.89345868  0.38831195  1  -1.217506  0  -0.346479  -0.345354  0  3.543751  0
N  N131  1  0.70841997  0.80616961  0.31440951  1  -1.236593  0  -0.220816  -0.054628  0  3.721697  0
O  O132  1  0.06128721  0.52860501  0.03805605  1  -1.260288  0  -0.602915  -0.862011  0  2.165318  0
O  O133  1  0.83825465  0.94232166  0.61266186  1  -1.194262  0  -0.333734  -0.58899  0  2.359658  0
O  O134  1  0.87838350  0.98378415  0.72024417  1  -1.173209  0  -0.329132  -0.553659  0  2.110113  0
O  O135  1  0.62824333  0.47146222  0.96188477  1  -1.257047  0  -0.600118  -0.858683  0  2.165456  0
O  O136  1  0.39380203  0.05767196  0.38720054  1  -1.189192  0  -0.332538  -0.587754  0  2.360295  0
O  O137  1  0.58255758  0.01612746  0.27957538  1  -1.181859  0  -0.329304  -0.553016  0  2.109338  0
O  O138  1  0.41024337  0.96196320  0.52844368  1  -1.263226  0  -0.602635  -0.863196  0  2.163848  0
O  O139  1  0.21946181  0.38726268  0.94250808  1  -1.191976  0  -0.334584  -0.589086  0  2.360691  0
O  O140  1  0.13887598  0.27955001  0.98396498  1  -1.181011  0  -0.33013  -0.554369  0  2.109966  0
O  O141  1  0.90072042  0.03814868  0.47145211  1  -1.266746  0  -0.602472  -0.862233  0  2.163033  0
O  O142  1  0.54946659  0.61273661  0.05756978  1  -1.19117  0  -0.332936  -0.588466  0  2.362002  0
O  O143  1  0.40335500  0.72047721  0.01611608  1  -1.173563  0  -0.329229  -0.552914  0  2.110585  0
