# generated using pymatgen
data_HoZnH12C15N2O13
_symmetry_space_group_name_H-M   'P 1'
_cell_length_a   9.66803708
_cell_length_b   10.51793681
_cell_length_c   10.86926315
_cell_angle_alpha   80.74081182
_cell_angle_beta   72.42604121
_cell_angle_gamma   75.93780992
_symmetry_Int_Tables_number   1
_chemical_formula_structural   HoZnH12C15N2O13
_chemical_formula_sum   'Ho2 Zn2 H24 C30 N4 O26'
_cell_volume   1017.52035440
_cell_formula_units_Z   2
loop_
 _symmetry_equiv_pos_site_id
 _symmetry_equiv_pos_as_xyz
  1  'x, y, z'
loop_
 _atom_site_type_symbol
 _atom_site_label
 _atom_site_symmetry_multiplicity
 _atom_site_fract_x
 _atom_site_fract_y
 _atom_site_fract_z
 _atom_site_occupancy
 _atom_site_pbe_bader_charge
 _atom_site_pbe_bader_spin_density
 _atom_site_pbe_cm5_charge
 _atom_site_pbe_ddec_charge
 _atom_site_pbe_ddec_spin_density
 _atom_site_pbe_ddec_sum_bond_order
 _atom_site_pbe_magmom
Ho  Ho0  1  0.82258790  0.30730057  0.46682678  1  2.166048  0  1.49733  2.033443  0  2.122168  0
Ho  Ho1  1  0.17741417  0.69270259  0.53317067  1  2.166077  0  1.497301  2.03338  0  2.122246  0
Zn  Zn2  1  0.69785028  0.13231895  0.88728144  1  1.320491  0  0.695691  0.847595  0  2.338715  0
Zn  Zn3  1  0.30214602  0.86768119  0.11271898  1  1.320447  0  0.695729  0.847655  0  2.338701  0
H  H4  1  0.20941057  0.23732854  0.01346543  1  0.104142  0  0.107805  0.107225  0  1.018259  0
H  H5  1  0.79058444  0.76267257  0.98653887  1  0.104103  0  0.107786  0.10725  0  1.018214  0
H  H6  1  0.16441398  0.33033631  0.79533057  1  0.172401  0  0.1107  0.131328  0  1.03183  0
H  H7  1  0.83558043  0.66966282  0.20467420  1  0.172335  0  0.110762  0.131386  0  1.031792  0
H  H8  1  0.93973371  0.29394285  0.74879511  1  0.161171  0  0.126923  0.103618  0  1.015863  0
H  H9  1  0.06026308  0.70605532  0.25120640  1  0.161289  0  0.126916  0.103567  0  1.015869  0
H  H10  1  0.17308839  0.57943742  0.96899746  1  0.098819  0  0.10942  0.106311  0  1.025275  0
H  H11  1  0.82691141  0.42056177  0.03100307  1  0.098824  0  0.109426  0.106324  0  1.025262  0
H  H12  1  0.24573304  0.45549843  0.16655477  1  0.153443  0  0.117473  0.137975  0  0.999444  0
H  H13  1  0.75426590  0.54449977  0.83344431  1  0.153434  0  0.11749  0.138014  0  0.999392  0
H  H14  1  0.46993753  0.27104489  0.13302339  1  0.118061  0  0.124796  0.100898  0  0.98124  0
H  H15  1  0.53006226  0.72895430  0.86697530  1  0.117756  0  0.124778  0.100919  0  0.98122  0
H  H16  1  0.08642523  0.09917342  0.50499651  1  0.621966  0  0.329989  0.427277  0  0.862303  0
H  H17  1  0.91356958  0.90082376  0.49499926  1  0.6221  0  0.330028  0.427351  0  0.862204  0
H  H18  1  0.95390957  0.08179925  0.63115829  1  0.65771  0  0.301395  0.402706  0  0.935356  0
H  H19  1  0.04608865  0.91820190  0.36884053  1  0.657691  0  0.301382  0.402689  0  0.93539  0
H  H20  1  0.74031282  0.08306647  0.39078186  1  0.669987  0  0.301065  0.409804  0  0.921448  0
H  H21  1  0.25969841  0.91693480  0.60921521  1  0.669552  0  0.301083  0.409834  0  0.92141  0
H  H22  1  0.61170579  0.14092556  0.50596452  1  0.604987  0  0.333303  0.418319  0  0.860133  0
H  H23  1  0.38830640  0.85907176  0.49403290  1  0.604901  0  0.333296  0.418298  0  0.860158  0
H  H24  1  0.63859740  0.97994178  0.75613222  1  0.626208  0  0.324206  0.407154  0  0.874777  0
H  H25  1  0.36140736  0.02005054  0.24387170  1  0.626338  0  0.324199  0.407132  0  0.874928  0
H  H26  1  0.48028154  0.99536550  0.86302353  1  0.653935  0  0.293363  0.399193  0  0.934607  0
H  H27  1  0.51971355  0.00463069  0.13697692  1  0.653961  0  0.293404  0.399225  0  0.934557  0
C  C28  1  0.77415177  0.06741178  0.13169713  1  1.604373  0  0.218264  0.558294  0  4.206125  0
C  C29  1  0.22584502  0.93258640  0.86830438  1  1.60478  0  0.218286  0.558349  0  4.20598  0
C  C30  1  0.88862771  0.14273131  0.04429797  1  0.498649  0  0.11034  0.054995  0  3.960184  0
C  C31  1  0.11136645  0.85726881  0.95570581  1  0.4986  0  0.110308  0.054924  0  3.960136  0
C  C32  1  0.01009937  0.15999750  0.07963437  1  -0.029845  0  0.00688  -0.068192  0  3.921399  0
C  C33  1  0.98989908  0.84000267  0.92036362  1  -0.030093  0  0.006944  -0.068077  0  3.921225  0
C  C34  1  0.11259300  0.22575571  0.98849511  1  -0.072088  0  -0.063027  -0.049898  0  3.917604  0
C  C35  1  0.88740370  0.77424739  0.01150842  1  -0.071949  0  -0.063042  -0.050027  0  3.917601  0
C  C36  1  0.08956451  0.27569064  0.86813628  1  -0.007665  0  -0.069175  -0.097177  0  3.906517  0
C  C37  1  0.91043182  0.72430950  0.13186782  1  -0.00737  0  -0.069222  -0.09722  0  3.906336  0
C  C38  1  0.96451194  0.25674582  0.84092507  1  0.497464  0  0.061648  0.115118  0  3.891292  0
C  C39  1  0.03548391  0.74325629  0.15907793  1  0.49698  0  0.061644  0.115177  0  3.891151  0
C  C40  1  0.02958611  0.11718868  0.21305880  1  1.655175  0  0.239906  0.653253  0  4.170305  0
C  C41  1  0.97041235  0.88281148  0.78694010  1  1.655163  0  0.239928  0.653354  0  4.170312  0
C  C42  1  0.58836445  0.32638764  0.69960793  1  1.574933  0  0.202869  0.533007  0  4.233881  0
C  C43  1  0.41163715  0.67361749  0.30039118  1  1.574828  0  0.202793  0.532955  0  4.234156  0
C  C44  1  0.48090087  0.36437360  0.82652864  1  0.513809  0  0.119691  0.086211  0  3.925812  0
C  C45  1  0.51909736  0.63562755  0.17347110  1  0.513532  0  0.119668  0.086152  0  3.925731  0
C  C46  1  0.35779174  0.46838137  0.83507250  1  0.008388  0  0.016241  -0.031995  0  3.863418  0
C  C47  1  0.64220674  0.53161879  0.16492916  1  0.008408  0  0.016261  -0.031918  0  3.863279  0
C  C48  1  0.27137850  0.50070445  0.95933753  1  -0.063586  0  -0.057348  -0.05307  0  3.90724  0
C  C49  1  0.72861911  0.49929472  0.04066176  1  -0.063568  0  -0.057368  -0.053118  0  3.907303  0
C  C50  1  0.31056991  0.43225243  0.06864330  1  0.011061  0  -0.068366  -0.105358  0  3.92206  0
C  C51  1  0.68942820  0.56774477  0.93135709  1  0.011087  0  -0.068355  -0.105368  0  3.922129  0
C  C52  1  0.43453140  0.32878245  0.05107953  1  0.45134  0  0.055283  0.095723  0  3.940006  0
C  C53  1  0.56546779  0.67121476  0.94892056  1  0.45159  0  0.055283  0.095653  0  3.940107  0
C  C54  1  0.31160748  0.54605079  0.71941244  1  1.623057  0  0.196208  0.594159  0  4.261757  0
C  C55  1  0.68839160  0.45395135  0.28058783  1  1.623047  0  0.196233  0.594213  0  4.261726  0
C  C56  1  0.06089769  0.47968878  0.43742679  1  1.608247  0  0.21417  0.508795  0  4.228631  0
C  C57  1  0.93911468  0.52030757  0.56256430  1  1.584812  0  0.214167  0.508812  0  4.228491  0
N  N58  1  0.86871500  0.19087271  0.92686776  1  -1.265921  0  -0.331642  -0.270006  0  3.623495  0
N  N59  1  0.13128132  0.80912743  0.07313541  1  -1.265668  0  -0.331655  -0.270021  0  3.623511  0
N  N60  1  0.51573415  0.29520094  0.93281454  1  -1.247273  0  -0.31716  -0.263666  0  3.567559  0
N  N61  1  0.48426346  0.70479823  0.06718383  1  -1.246789  0  -0.317151  -0.263608  0  3.567503  0
O  O62  1  0.67833275  0.04893428  0.07851514  1  -1.173279  0  -0.312278  -0.561253  0  2.372325  0
O  O63  1  0.32166717  0.95105998  0.92148705  1  -1.173645  0  -0.312309  -0.561292  0  2.372252  0
O  O64  1  0.77961640  0.02560279  0.24452892  1  -1.174161  0  -0.301572  -0.519344  0  2.196521  0
O  O65  1  0.22038256  0.97439540  0.75547291  1  -1.174135  0  -0.301558  -0.519343  0  2.196564  0
O  O66  1  0.96195046  0.19800140  0.29564810  1  -1.190881  0  -0.407273  -0.645501  0  2.396857  0
O  O67  1  0.03805549  0.80200376  0.70435074  1  -1.190815  0  -0.407248  -0.645548  0  2.39693  0
O  O68  1  0.11645917  0.00915758  0.23434214  1  -1.192723  0  -0.298721  -0.552013  0  2.31186  0
O  O69  1  0.88353608  0.99084255  0.76566133  1  -1.192809  0  -0.298732  -0.552042  0  2.311805  0
O  O70  1  0.70428397  0.23534226  0.70298090  1  -1.178747  0  -0.347001  -0.597575  0  2.411026  0
O  O71  1  0.29571812  0.76466089  0.29701930  1  -1.1789  0  -0.346983  -0.597583  0  2.411104  0
O  O72  1  0.56885144  0.38491149  0.59406686  1  -1.137331  0  -0.327391  -0.536654  0  2.221034  0
O  O73  1  0.43115271  0.61509662  0.40593293  1  -1.137327  0  -0.327357  -0.53663  0  2.221183  0
O  O74  1  0.33984892  0.65954808  0.68422323  1  -1.166881  0  -0.359353  -0.614219  0  2.170085  0
O  O75  1  0.66015041  0.34045307  0.31577897  1  -1.166839  0  -0.359376  -0.614269  0  2.170075  0
O  O76  1  0.23318325  0.49843806  0.66994447  1  -1.160352  0  -0.379774  -0.626499  0  2.196431  0
O  O77  1  0.76681450  0.50156506  0.33005601  1  -1.160314  0  -0.379775  -0.626526  0  2.196448  0
O  O78  1  0.04767978  0.38692758  0.38398042  1  -1.169122  0  -0.370164  -0.585849  0  2.262145  0
O  O79  1  0.95232782  0.61307070  0.61601535  1  -1.16915  0  -0.370166  -0.585841  0  2.262012  0
O  O80  1  0.16386351  0.54435933  0.39813985  1  -1.187058  0  -0.381698  -0.618427  0  2.302717  0
O  O81  1  0.83614623  0.45563897  0.60185258  1  -1.186907  0  -0.381777  -0.618523  0  2.302825  0
O  O82  1  0.99261030  0.14549093  0.55728583  1  -1.254084  0  -0.638271  -0.854532  0  2.082129  0
O  O83  1  0.00739142  0.85450926  0.44271401  1  -1.2542  0  -0.638295  -0.854603  0  2.082048  0
O  O84  1  0.71852600  0.10706142  0.48107399  1  -1.245402  0  -0.612208  -0.834739  0  2.012031  0
O  O85  1  0.28148569  0.89293788  0.51892234  1  -1.244874  0  -0.612229  -0.834741  0  2.012002  0
O  O86  1  0.58750436  0.00043229  0.84475387  1  -1.247793  0  -0.572503  -0.746381  0  2.114275  0
O  O87  1  0.41249498  0.99956887  0.15524924  1  -1.247953  0  -0.572535  -0.746372  0  2.114415  0
