# generated using pymatgen
data_CdH11C13N3O4
_symmetry_space_group_name_H-M   'P 1'
_cell_length_a   11.75729885
_cell_length_b   13.43894747
_cell_length_c   15.84467229
_cell_angle_alpha   90.00029357
_cell_angle_beta   97.89234081
_cell_angle_gamma   90.00065725
_symmetry_Int_Tables_number   1
_chemical_formula_structural   CdH11C13N3O4
_chemical_formula_sum   'Cd4 H44 C52 N12 O16'
_cell_volume   2479.83483212
_cell_formula_units_Z   4
loop_
 _symmetry_equiv_pos_site_id
 _symmetry_equiv_pos_as_xyz
  1  'x, y, z'
loop_
 _atom_site_type_symbol
 _atom_site_label
 _atom_site_symmetry_multiplicity
 _atom_site_fract_x
 _atom_site_fract_y
 _atom_site_fract_z
 _atom_site_occupancy
 _atom_site_pbe_bader_charge
 _atom_site_pbe_bader_spin_density
 _atom_site_pbe_cm5_charge
 _atom_site_pbe_ddec_charge
 _atom_site_pbe_ddec_spin_density
 _atom_site_pbe_ddec_sum_bond_order
 _atom_site_pbe_magmom
Cd  Cd0  1  0.06454430  0.08365145  0.07447247  1  1.252827  0  0.772008  0.848659  0  2.305025  0
Cd  Cd1  1  0.43545068  0.58365636  0.42553170  1  1.25291  0  0.772037  0.848784  0  2.304888  0
Cd  Cd2  1  0.93545568  0.91634793  0.92552756  1  1.252829  0  0.77198  0.848649  0  2.30502  0
Cd  Cd3  1  0.56455438  0.41634675  0.57446742  1  1.252816  0  0.77201  0.848745  0  2.304935  0
H  H4  1  0.38294112  0.50125845  0.24224663  1  0.081455  0  0.11264  0.080211  0  1.018776  0
H  H5  1  0.11706247  0.00126115  0.25776344  1  0.081329  0  0.112731  0.080321  0  1.018779  0
H  H6  1  0.61707434  0.49873647  0.75775512  1  0.081794  0  0.112716  0.08031  0  1.01884  0
H  H7  1  0.88294606  0.99873972  0.74223656  1  0.081288  0  0.112719  0.080287  0  1.018664  0
H  H8  1  0.26978965  0.37103535  0.15281491  1  0.080751  0  0.104644  0.11525  0  1.007176  0
H  H9  1  0.23021459  0.87103696  0.34719252  1  0.080591  0  0.104663  0.115283  0  1.007199  0
H  H10  1  0.73022888  0.62895956  0.84718073  1  0.080419  0  0.104627  0.115209  0  1.007301  0
H  H11  1  0.76978998  0.12896317  0.65281288  1  0.080699  0  0.104649  0.115245  0  1.007214  0
H  H12  1  0.10226381  0.29941275  0.37031621  1  0.143582  0  0.108892  0.122362  0  1.031598  0
H  H13  1  0.39771939  0.79941620  0.12968436  1  0.143803  0  0.108949  0.1225  0  1.03157  0
H  H14  1  0.89774676  0.70058589  0.62967509  1  0.143332  0  0.108818  0.122336  0  1.031626  0
H  H15  1  0.60226519  0.20058020  0.87031522  1  0.143651  0  0.10888  0.12245  0  1.031496  0
H  H16  1  0.22656471  0.42867971  0.45285420  1  0.068125  0  0.115608  0.08949  0  0.993713  0
H  H17  1  0.27341080  0.92867842  0.04714518  1  0.068314  0  0.115658  0.089567  0  0.993715  0
H  H18  1  0.77344071  0.57131744  0.54715127  1  0.068563  0  0.115638  0.089563  0  0.99378  0
H  H19  1  0.72657438  0.07131724  0.95285002  1  0.068308  0  0.115634  0.089516  0  0.993716  0
H  H20  1  0.86936063  0.11315846  0.27957592  1  0.074654  0  0.112077  0.079889  0  0.996024  0
H  H21  1  0.63062664  0.61317317  0.22041902  1  0.074369  0  0.112059  0.079869  0  0.996043  0
H  H22  1  0.13063614  0.88684315  0.72042768  1  0.074109  0  0.112075  0.079684  0  0.996184  0
H  H23  1  0.36935768  0.38682324  0.77957612  1  0.074382  0  0.112036  0.079713  0  0.995964  0
H  H24  1  0.72919079  0.00189535  0.28938534  1  0.067331  0  0.100342  0.097215  0  0.99601  0
H  H25  1  0.77080424  0.50189430  0.21062225  1  0.067827  0  0.100342  0.097227  0  0.996099  0
H  H26  1  0.27080700  0.99811371  0.71062085  1  0.067523  0  0.100362  0.097297  0  0.996099  0
H  H27  1  0.22919145  0.49809392  0.78937748  1  0.067694  0  0.100354  0.097257  0  0.995935  0
H  H28  1  0.59598009  0.86354756  0.23779633  1  0.129292  0  0.101577  0.127105  0  1.021258  0
H  H29  1  0.90400801  0.36355245  0.26219796  1  0.129097  0  0.101625  0.127192  0  1.021243  0
H  H30  1  0.40401127  0.13646298  0.76220246  1  0.129056  0  0.101593  0.127101  0  1.021205  0
H  H31  1  0.09598492  0.63644173  0.73779842  1  0.129183  0  0.101618  0.127107  0  1.021264  0
H  H32  1  0.75538681  0.84727705  0.00895464  1  0.051729  0  0.095278  0.117415  0  1.050671  0
H  H33  1  0.74459070  0.34726833  0.49103757  1  0.05181  0  0.095196  0.117361  0  1.050742  0
H  H34  1  0.24460613  0.15273201  0.99104174  1  0.051792  0  0.095234  0.11736  0  1.050717  0
H  H35  1  0.25540160  0.65272510  0.50896256  1  0.051786  0  0.095257  0.117377  0  1.050763  0
H  H36  1  0.02352255  0.23313581  0.92912845  1  0.602396  0  0.312975  0.392592  0  0.896968  0
H  H37  1  0.47647951  0.73313598  0.57087709  1  0.602339  0  0.313035  0.392676  0  0.897055  0
H  H38  1  0.97647713  0.76687027  0.07088103  1  0.602231  0  0.313038  0.392668  0  0.896855  0
H  H39  1  0.52351659  0.26686489  0.42912962  1  0.60246  0  0.313024  0.392654  0  0.896921  0
H  H40  1  0.04082359  0.26488412  0.02503118  1  0.629938  0  0.288873  0.377862  0  0.949438  0
H  H41  1  0.45917736  0.76488436  0.47497426  1  0.629907  0  0.288897  0.377947  0  0.949344  0
H  H42  1  0.95918452  0.73511898  0.97497637  1  0.629988  0  0.288865  0.377974  0  0.94937  0
H  H43  1  0.54082553  0.23511279  0.52503165  1  0.629913  0  0.288862  0.377863  0  0.949418  0
H  H44  1  0.60603663  0.75492390  0.03447558  1  0.588395  0  0.338984  0.36659  0  0.867286  0
H  H45  1  0.89394451  0.25493291  0.46551265  1  0.588136  0  0.339001  0.366498  0  0.867203  0
H  H46  1  0.39395821  0.24507548  0.96552409  1  0.588188  0  0.33908  0.366719  0  0.867105  0
H  H47  1  0.10604734  0.74506871  0.53447986  1  0.588474  0  0.33898  0.366475  0  0.867253  0
C  C48  1  0.32015065  0.45473597  0.26828986  1  0.466356  0  0.03833  0.086477  0  3.987619  0
C  C49  1  0.17984271  0.95473115  0.23171658  1  0.466635  0  0.038239  0.0862  0  3.987588  0
C  C50  1  0.67985164  0.54526713  0.73170591  1  0.466638  0  0.038259  0.086322  0  3.987899  0
C  C51  1  0.82016167  0.04526972  0.76828566  1  0.466627  0  0.038268  0.086327  0  3.987537  0
C  C52  1  0.25745516  0.38320535  0.21887014  1  0.012208  0  -0.088312  -0.15742  0  3.960134  0
C  C53  1  0.24254768  0.88320295  0.28113979  1  0.012356  0  -0.08827  -0.157253  0  3.959867  0
C  C54  1  0.74256094  0.61679329  0.78112786  1  0.012489  0  -0.088283  -0.157297  0  3.96007  0
C  C55  1  0.75746137  0.11680238  0.71886909  1  0.012304  0  -0.088256  -0.157311  0  3.960144  0
C  C56  1  0.17727079  0.32529799  0.25478217  1  -0.041637  0  0.009474  0.055207  0  3.947644  0
C  C57  1  0.32273094  0.82530214  0.24522234  1  -0.041639  0  0.009517  0.055224  0  3.94792  0
C  C58  1  0.82274713  0.67469470  0.74521785  1  -0.042024  0  0.009437  0.055173  0  3.947575  0
C  C59  1  0.67726897  0.17469874  0.75477642  1  -0.04167  0  0.009499  0.055264  0  3.947781  0
C  C60  1  0.16424849  0.34245726  0.34033334  1  -0.023287  0  -0.07457  -0.144505  0  3.919293  0
C  C61  1  0.33574528  0.84245507  0.15967702  1  -0.023489  0  -0.074704  -0.144723  0  3.919434  0
C  C62  1  0.83577977  0.65753096  0.65966804  1  -0.023711  0  -0.074487  -0.144583  0  3.919284  0
C  C63  1  0.66424195  0.15753762  0.84032401  1  -0.023448  0  -0.074637  -0.144713  0  3.919112  0
C  C64  1  0.23188325  0.41458765  0.38570420  1  0.493205  0  0.044216  0.097251  0  3.954047  0
C  C65  1  0.26810963  0.91458598  0.11430327  1  0.492907  0  0.044105  0.09708  0  3.954261  0
C  C66  1  0.76813586  0.58540132  0.61430159  1  0.493194  0  0.044221  0.097268  0  3.954244  0
C  C67  1  0.73188088  0.08540894  0.88569546  1  0.4934  0  0.044162  0.097163  0  3.954208  0
C  C68  1  0.11197593  0.24772445  0.20140330  1  1.290018  0  0.196328  0.384131  0  4.174466  0
C  C69  1  0.38801803  0.74772885  0.29860347  1  1.289998  0  0.196247  0.383967  0  4.17473  0
C  C70  1  0.88803338  0.75227419  0.79859549  1  1.290486  0  0.196277  0.384225  0  4.174308  0
C  C71  1  0.61197863  0.25227128  0.70139822  1  1.290059  0  0.196257  0.383969  0  4.174744  0
C  C72  1  0.89019969  0.08465094  0.21837167  1  0.568423  0  0.059176  0.063909  0  3.94879  0
C  C73  1  0.60980725  0.58466060  0.28163019  1  0.568903  0  0.059141  0.063798  0  3.948931  0
C  C74  1  0.10980798  0.91534621  0.78162826  1  0.568964  0  0.059159  0.064249  0  3.948747  0
C  C75  1  0.39020061  0.41533804  0.71837291  1  0.56889  0  0.059221  0.064275  0  3.948282  0
C  C76  1  0.82056949  0.00394698  0.18047385  1  0.031852  0  -0.047084  -0.10212  0  4.036834  0
C  C77  1  0.67942780  0.50395162  0.31952822  1  0.031609  0  -0.047081  -0.102004  0  4.036896  0
C  C78  1  0.17942959  0.99606133  0.81952548  1  0.031928  0  -0.047117  -0.102242  0  4.036922  0
C  C79  1  0.32057054  0.49604404  0.68047296  1  0.032091  0  -0.047203  -0.102359  0  4.036478  0
C  C80  1  0.73517644  0.96734505  0.22771844  1  -0.077151  0  -0.090252  -0.083296  0  4.042005  0
C  C81  1  0.76481976  0.46734785  0.27228764  1  -0.077771  0  -0.090271  -0.083299  0  4.042323  0
C  C82  1  0.26482981  0.03266251  0.77228645  1  -0.077456  0  -0.090244  -0.083297  0  4.042362  0
C  C83  1  0.23517250  0.53263963  0.72771185  1  -0.078032  0  -0.090319  -0.083305  0  4.041964  0
C  C84  1  0.65997815  0.89114517  0.20002261  1  -0.034521  0  -0.126231  -0.241022  0  4.007335  0
C  C85  1  0.84001281  0.39115038  0.29997011  1  -0.034158  0  -0.12621  -0.241063  0  4.007613  0
C  C86  1  0.34001594  0.10886091  0.79997890  1  -0.034237  0  -0.126188  -0.240992  0  4.007589  0
C  C87  1  0.15997654  0.60884156  0.70002348  1  -0.034157  0  -0.126199  -0.241006  0  4.007289  0
C  C88  1  0.66808691  0.84854788  0.11999774  1  0.39005  0  0.077935  0.351419  0  4.112099  0
C  C89  1  0.83189637  0.34853936  0.37999045  1  0.390668  0  0.077929  0.351331  0  4.112227  0
C  C90  1  0.33190446  0.15146341  0.88000105  1  0.390565  0  0.077891  0.351354  0  4.112215  0
C  C91  1  0.16809123  0.65145407  0.62000239  1  0.390194  0  0.077934  0.351418  0  4.112307  0
C  C92  1  0.75069739  0.88109087  0.07128072  1  -0.012103  0  -0.150988  -0.423732  0  4.039298  0
C  C93  1  0.74928194  0.38107959  0.42870545  1  -0.012463  0  -0.150971  -0.423795  0  4.039382  0
C  C94  1  0.24929208  0.11892116  0.92871478  1  -0.012487  0  -0.150921  -0.423618  0  4.03907  0
C  C95  1  0.25071189  0.61892054  0.57129162  1  -0.012364  0  -0.150981  -0.423732  0  4.039418  0
C  C96  1  0.82888463  0.95785630  0.09920299  1  0.631059  0  0.083837  0.348722  0  4.116735  0
C  C97  1  0.67110499  0.45785670  0.40079500  1  0.630841  0  0.083798  0.348649  0  4.117109  0
C  C98  1  0.17111360  0.04214532  0.90079628  1  0.631049  0  0.083834  0.348653  0  4.116937  0
C  C99  1  0.32888970  0.54214640  0.59920213  1  0.630982  0  0.083941  0.348785  0  4.11652  0
N  N100  1  0.30842597  0.47034155  0.35055792  1  -1.238293  0  -0.336857  -0.257273  0  3.52422  0
N  N101  1  0.19157112  0.97034230  0.14945012  1  -1.238316  0  -0.336751  -0.25703  0  3.524516  0
N  N102  1  0.69157908  0.52965783  0.64944120  1  -1.238238  0  -0.336845  -0.25727  0  3.524392  0
N  N103  1  0.80842816  0.02965857  0.85055238  1  -1.238677  0  -0.336796  -0.257115  0  3.524379  0
N  N104  1  0.03123594  0.20142663  0.23773191  1  -0.723873  0  -0.257719  -0.33531  0  3.27908  0
N  N105  1  0.46875554  0.70143311  0.26227257  1  -0.723693  0  -0.257698  -0.335256  0  3.278847  0
N  N106  1  0.96876811  0.79857573  0.76226461  1  -0.724237  0  -0.257727  -0.335353  0  3.278954  0
N  N107  1  0.53123769  0.29856479  0.73772888  1  -0.724006  0  -0.257759  -0.335339  0  3.27889  0
N  N108  1  0.97574383  0.12786523  0.18792355  1  -0.837158  0  -0.257951  -0.155263  0  3.602141  0
N  N109  1  0.52425129  0.62786453  0.31207074  1  -0.836873  0  -0.257859  -0.155173  0  3.601945  0
N  N110  1  0.02426033  0.87213713  0.81207487  1  -0.836906  0  -0.257882  -0.15518  0  3.602036  0
N  N111  1  0.47575291  0.37213559  0.68792832  1  -0.83676  0  -0.257854  -0.155234  0  3.601924  0
O  O112  1  0.14107302  0.23310790  0.12594860  1  -1.17539  0  -0.354577  -0.579102  0  2.264323  0
O  O113  1  0.35892220  0.73311469  0.37405376  1  -1.175763  0  -0.354602  -0.579073  0  2.264388  0
O  O114  1  0.85893901  0.76688925  0.87405290  1  -1.175451  0  -0.354556  -0.579138  0  2.264243  0
O  O115  1  0.64108391  0.26688990  0.62594859  1  -1.175721  0  -0.354573  -0.579046  0  2.264374  0
O  O116  1  0.98655884  0.23218615  0.98045063  1  -1.216311  0  -0.587649  -0.736522  0  1.940253  0
O  O117  1  0.51343632  0.73217834  0.51955192  1  -1.216211  0  -0.5877  -0.736684  0  1.940361  0
O  O118  1  0.01343898  0.76782812  0.01955620  1  -1.216197  0  -0.587677  -0.73674  0  1.940021  0
O  O119  1  0.48656060  0.26781583  0.48045421  1  -1.216322  0  -0.587661  -0.736567  0  1.94029  0
O  O120  1  0.90485909  0.98522251  0.04979558  1  -1.162304  0  -0.358946  -0.545439  0  2.461121  0
O  O121  1  0.59513337  0.48522096  0.45020085  1  -1.162476  0  -0.358941  -0.545434  0  2.461299  0
O  O122  1  0.09513496  0.01477762  0.95020530  1  -1.162297  0  -0.358972  -0.545475  0  2.461181  0
O  O123  1  0.40486564  0.51477768  0.54979721  1  -1.162451  0  -0.358988  -0.545507  0  2.461193  0
O  O124  1  0.59241327  0.77432657  0.09152319  1  -1.111644  0  -0.342089  -0.440811  0  2.279509  0
O  O125  1  0.90757489  0.27432792  0.40846373  1  -1.111502  0  -0.342086  -0.440616  0  2.279417  0
O  O126  1  0.40757377  0.22568100  0.90847467  1  -1.111789  0  -0.342195  -0.440935  0  2.279632  0
O  O127  1  0.09241775  0.72567146  0.59152757  1  -1.11167  0  -0.342082  -0.440656  0  2.279562  0
