# generated using pymatgen
data_CuH4C9(NO)4
_symmetry_space_group_name_H-M   'P 1'
_cell_length_a   10.85609411
_cell_length_b   11.50811285
_cell_length_c   14.84065707
_cell_angle_alpha   90.00024853
_cell_angle_beta   109.37028183
_cell_angle_gamma   89.99973001
_symmetry_Int_Tables_number   1
_chemical_formula_structural   CuH4C9(NO)4
_chemical_formula_sum   'Cu4 H16 C36 N16 O16'
_cell_volume   1749.13901530
_cell_formula_units_Z   4
loop_
 _symmetry_equiv_pos_site_id
 _symmetry_equiv_pos_as_xyz
  1  'x, y, z'
loop_
 _atom_site_type_symbol
 _atom_site_label
 _atom_site_symmetry_multiplicity
 _atom_site_fract_x
 _atom_site_fract_y
 _atom_site_fract_z
 _atom_site_occupancy
 _atom_site_hle17_ddec_charge
 _atom_site_hle17_ddec_spin_density
 _atom_site_hle17_ddec_sum_bond_order
 _atom_site_hle17_magmom
 _atom_site_hse06_10hf_ddec_charge
 _atom_site_hse06_10hf_ddec_spin_density
 _atom_site_hse06_10hf_ddec_sum_bond_order
 _atom_site_hse06_10hf_magmom
 _atom_site_hse06_ddec_charge
 _atom_site_hse06_ddec_spin_density
 _atom_site_hse06_ddec_sum_bond_order
 _atom_site_hse06_magmom
 _atom_site_pbe_cm5_charge
 _atom_site_pbe_ddec_charge
 _atom_site_pbe_ddec_spin_density
 _atom_site_pbe_ddec_sum_bond_order
 _atom_site_pbe_magmom
Cu  Cu0  1  0.59092803  0.57923184  0.02276144  1  0.854368  0.683404  1.911846  0.492  0.843039  0.801848  2.326119  0.637  0.944897  0.890168  2.242811  0.736  0.68826  0.776777  0.702977  2.386554  0.546
Cu  Cu1  1  0.40906852  0.07923756  0.47723645  1  0.85425  0.683393  1.911881  0.492  0.842975  0.801853  2.326106  0.637  0.944724  0.890181  2.243003  0.736  0.68822  0.776773  0.702988  2.386419  0.546
Cu  Cu2  1  0.40907295  0.42077629  0.97723998  1  0.85428  -0.683437  1.912011  -0.492  0.842906  -0.801863  2.326319  -0.637  0.944806  -0.890183  2.24301  -0.736  0.688287  0.776641  -0.703002  2.386779  -0.546
Cu  Cu3  1  0.59092271  0.92077925  0.52275855  1  0.854429  -0.683416  1.911909  -0.492  0.843013  -0.801859  2.326354  -0.637  0.944964  -0.890181  2.242967  -0.736  0.688337  0.776669  -0.702982  2.386945  -0.546
H  H4  1  0.10904661  0.62450714  0.04720463  1  0.113725  -0.000175  0.937454  0.0  0.122156  -0.000158  1.000702  0.0  0.125592  -9.8e-05  0.998156  0.0  0.111301  0.119729  -0.000199  1.002585  0.0
H  H5  1  0.89095365  0.12451489  0.45279702  1  0.113713  -0.000174  0.937434  0.0  0.122133  -0.000157  1.000696  0.0  0.125565  -9.8e-05  0.998153  0.0  0.111298  0.119705  -0.000198  1.002579  0.0
H  H6  1  0.89093287  0.37549577  0.95279626  1  0.1137  0.000172  0.937461  0.0  0.122133  0.000158  1.000714  0.0  0.125568  9.8e-05  0.99817  0.0  0.111276  0.119704  0.000199  1.002598  0.0
H  H7  1  0.10907078  0.87549236  0.54720542  1  0.11371  0.000173  0.937521  0.0  0.12214  0.000158  1.000764  0.0  0.125572  9.8e-05  0.998223  0.0  0.111321  0.119713  0.000199  1.002646  0.0
H  H8  1  0.11038637  0.87879531  0.26168356  1  0.124836  0.000178  0.93034  0.0  0.130546  0.000154  0.995631  0.0  0.134515  9.4e-05  0.992085  0.0  0.115949  0.127714  0.000195  0.998273  0.0
H  H9  1  0.88962075  0.37879838  0.23831725  1  0.124745  0.000179  0.93038  0.0  0.130456  0.000154  0.995671  0.0  0.134426  9.4e-05  0.992124  0.0  0.115911  0.127623  0.000195  0.998312  0.0
H  H10  1  0.88961560  0.12121890  0.73831407  1  0.124822  -0.000174  0.930394  0.0  0.130534  -0.000153  0.995689  0.0  0.134504  -9.5e-05  0.992143  0.0  0.115955  0.127701  -0.000195  0.998332  0.0
H  H11  1  0.11038510  0.62121322  0.76168672  1  0.124786  -0.00018  0.930363  0.0  0.130496  -0.000154  0.995664  0.0  0.134465  -9.4e-05  0.992118  0.0  0.115933  0.12766  -0.000195  0.99831  0.0
H  H12  1  0.47368775  0.74541549  0.24544294  1  0.133716  -1.7e-05  0.910572  0.0  0.142536  -1e-05  0.966707  0.0  0.146345  -6e-06  0.963797  0.0  0.12304  0.139909  -1.3e-05  0.968756  0.0
H  H13  1  0.52631505  0.24540379  0.25454558  1  0.133728  -1.6e-05  0.91057  0.0  0.142553  -1e-05  0.966695  0.0  0.146359  -6e-06  0.963789  0.0  0.123061  0.139926  -1.3e-05  0.968744  0.0
H  H14  1  0.52630539  0.25455701  0.75456398  1  0.133663  1.3e-05  0.910695  0.0  0.142502  1e-05  0.966818  0.0  0.146308  6e-06  0.963914  0.0  0.123106  0.139877  1.3e-05  0.968866  0.0
H  H15  1  0.47369477  0.75456958  0.74544453  1  0.133774  1.4e-05  0.910573  0.0  0.142579  1e-05  0.966738  0.0  0.146385  6e-06  0.963834  0.0  0.123099  0.139954  1.3e-05  0.968787  0.0
H  H16  1  0.89903365  0.57199816  0.08545047  1  0.126463  -2.8e-05  0.906371  0.0  0.137785  -2.7e-05  0.962501  0.0  0.141427  -3.3e-05  0.957898  0.0  0.155941  0.134971  -1.5e-05  0.966182  0.0
H  H17  1  0.10097068  0.07200493  0.41456143  1  0.126516  -2.6e-05  0.906382  0.0  0.137849  -2.7e-05  0.962484  0.0  0.141488  -3.3e-05  0.957883  0.0  0.156008  0.135035  -1.5e-05  0.966166  0.0
H  H18  1  0.10098099  0.42799520  0.91455632  1  0.126506  2.9e-05  0.906508  0.0  0.137843  2.7e-05  0.962595  0.0  0.141478  3.3e-05  0.957995  0.0  0.155994  0.13503  1.5e-05  0.966273  0.0
H  H19  1  0.89902250  0.92799886  0.58543270  1  0.126484  2.7e-05  0.906402  0.0  0.137808  2.7e-05  0.96251  0.0  0.14145  3.3e-05  0.957905  0.0  0.155953  0.134995  1.5e-05  0.966191  0.0
C  C20  1  0.37090312  0.60783756  0.08990583  1  0.64643  0.000477  3.863662  0.001  0.610141  0.000548  4.15703  0.001  0.651826  0.000511  4.151029  0.001  0.218053  0.581717  0.00051  4.160436  0.001
C  C21  1  0.62909235  0.10784191  0.41008920  1  0.646666  0.000479  3.863379  0.001  0.610371  0.000547  4.156739  0.001  0.652055  0.000511  4.150732  0.001  0.218146  0.581943  0.00051  4.160147  0.001
C  C22  1  0.62908223  0.39215492  0.91009447  1  0.646302  -0.000484  3.864415  -0.001  0.610033  -0.00055  4.157738  -0.001  0.651718  -0.000514  4.151741  -0.001  0.217846  0.581604  -0.000512  4.161142  -0.001
C  C23  1  0.37091255  0.89216274  0.58990846  1  0.646417  -0.000478  3.86399  -0.001  0.610161  -0.000549  4.157319  -0.001  0.651848  -0.000512  4.15131  -0.001  0.218057  0.581734  -0.00051  4.160728  -0.001
C  C24  1  0.29850283  0.67838202  0.14098760  1  -0.021229  0.000479  3.735827  0.001  0.004924  0.000269  3.965511  0.0  -0.004603  0.000213  3.987114  0.0  -0.00114  0.01177  0.000321  3.951008  0.0
C  C25  1  0.70150018  0.17838141  0.35900883  1  -0.021371  0.00049  3.735972  0.001  0.004805  0.00027  3.965588  0.0  -0.004726  0.000212  3.987195  0.0  -0.001276  0.011656  0.000323  3.951077  0.0
C  C26  1  0.70148445  0.32160526  0.85901721  1  -0.021398  -0.000476  3.735898  -0.001  0.004788  -0.00027  3.965526  0.0  -0.004741  -0.000219  3.987131  0.0  -0.00113  0.011655  -0.000325  3.950989  0.0
C  C27  1  0.29851742  0.82161629  0.64099059  1  -0.021487  -0.000514  3.735725  -0.001  0.004684  -0.00027  3.965385  0.0  -0.004848  -0.000211  3.986989  0.0  -0.001234  0.011541  -0.000323  3.95087  0.0
C  C28  1  0.16195778  0.67826579  0.10817266  1  -0.135121  0.000784  3.698829  0.001  -0.173147  0.000598  3.952163  0.001  -0.17322  0.000432  3.972311  0.001  -0.07508  -0.173506  0.000678  3.93989  0.001
C  C29  1  0.83804229  0.17826649  0.39182643  1  -0.135001  0.000769  3.698839  0.001  -0.173009  0.000598  3.952158  0.001  -0.173075  0.000431  3.972303  0.001  -0.075023  -0.173372  0.000678  3.939887  0.001
C  C30  1  0.83803243  0.32172582  0.89183220  1  -0.135113  -0.000782  3.698623  -0.001  -0.173107  -0.000597  3.951987  -0.001  -0.173176  -0.00043  3.972128  -0.001  -0.075082  -0.173472  -0.000678  3.939714  -0.001
C  C31  1  0.16196848  0.82173208  0.60817132  1  -0.134914  -0.00074  3.698598  -0.001  -0.172907  -0.000597  3.951942  -0.001  -0.172975  -0.000433  3.972083  -0.001  -0.075017  -0.173268  -0.000677  3.939668  -0.001
C  C32  1  0.09604922  0.75054899  0.15236670  1  0.159617  4.7e-05  3.803652  0.0  0.149534  1.9e-05  4.066561  0.0  0.150308  1.4e-05  4.092078  0.0  0.098108  0.145202  2.4e-05  4.048103  0.0
C  C33  1  0.90395155  0.25054913  0.34763414  1  0.159574  6.3e-05  3.803517  0.0  0.149473  2e-05  4.066439  0.0  0.150248  1.4e-05  4.091958  0.0  0.098077  0.145129  2.4e-05  4.047978  0.0
C  C34  1  0.90394002  0.24944697  0.84763724  1  0.160047  -3.8e-05  3.803487  0.0  0.149834  -2e-05  4.066543  0.0  0.150611  -1.5e-05  4.092057  0.0  0.098316  0.145508  -2.4e-05  4.048096  0.0
C  C35  1  0.09606019  0.74945465  0.65236385  1  0.159887  -8.3e-05  3.803404  0.0  0.149713  -2e-05  4.066435  0.0  0.15049  -1.4e-05  4.091951  0.0  0.098206  0.145385  -2.5e-05  4.047983  0.0
C  C36  1  0.16327008  0.82179618  0.22882977  1  -0.114096  -0.000848  3.668678  -0.001  -0.15468  -0.000638  3.924019  -0.001  -0.153623  -0.000477  3.942031  -0.001  -0.068128  -0.155801  -0.000712  3.913182  -0.001
C  C37  1  0.83673044  0.32179446  0.27116653  1  -0.113927  -0.000864  3.668603  -0.001  -0.154495  -0.000638  3.923941  -0.001  -0.153438  -0.000476  3.941953  -0.001  -0.06809  -0.15562  -0.000712  3.913105  -0.001
C  C38  1  0.83672797  0.17820586  0.77117161  1  -0.114232  0.000823  3.668692  0.001  -0.15473  0.000639  3.924133  0.001  -0.153674  0.000479  3.942143  0.001  -0.068157  -0.155857  0.000713  3.913294  0.001
C  C39  1  0.16327251  0.67821019  0.72883066  1  -0.114113  0.00089  3.668438  0.001  -0.154637  0.000639  3.923861  0.001  -0.15358  0.000477  3.941873  0.001  -0.068122  -0.155761  0.000713  3.913019  0.001
C  C40  1  0.29961391  0.81758850  0.26338319  1  -0.023123  -2.5e-05  3.72802  0.0  0.003949  -6.1e-05  3.956724  0.0  -0.005656  -5.8e-05  3.978198  0.0  0.000321  0.01083  -8.3e-05  3.942334  0.0
C  C41  1  0.70038663  0.31758112  0.23660974  1  -0.023151  -9e-06  3.7281  0.0  0.003892  -6.3e-05  3.956828  0.0  -0.005711  -6.2e-05  3.978297  0.0  0.000447  0.010777  -8.6e-05  3.942428  0.0
C  C42  1  0.70038023  0.18240659  0.73661657  1  -0.023083  3.7e-05  3.727809  0.0  0.003824  6.4e-05  3.956737  0.0  -0.005781  5.5e-05  3.978212  0.0  0.00032  0.010725  8.6e-05  3.942315  0.0
C  C43  1  0.29962219  0.68241136  0.76338552  1  -0.023147  -8e-06  3.727979  0.0  0.003792  6e-05  3.956794  0.0  -0.005814  6.2e-05  3.978267  0.0  0.000303  0.010691  8.4e-05  3.942377  0.0
C  C44  1  0.36740852  0.74681293  0.21924389  1  -0.043657  0.000134  3.628285  0.0  -0.082397  5.2e-05  3.868223  0.0  -0.079018  1.8e-05  3.886008  0.0  -0.056314  -0.084919  7.1e-05  3.856446  0.0
C  C45  1  0.63259327  0.24680264  0.28074977  1  -0.043706  0.000117  3.628364  0.0  -0.082446  5.3e-05  3.868295  0.0  -0.079068  2.4e-05  3.886081  0.0  -0.056374  -0.084971  7.2e-05  3.856514  0.0
C  C46  1  0.63258364  0.25317086  0.78076346  1  -0.043626  -0.000126  3.628329  0.0  -0.082357  -5.5e-05  3.868342  0.0  -0.078981  -1.1e-05  3.886132  0.0  -0.056429  -0.084888  -7e-05  3.856554  0.0
C  C47  1  0.36741751  0.75318463  0.71924529  1  -0.043693  -9.8e-05  3.62834  0.0  -0.082415  -5.1e-05  3.868368  0.0  -0.079036  -2.4e-05  3.886155  0.0  -0.056337  -0.084944  -7.1e-05  3.856586  0.0
C  C48  1  0.37300366  0.88805452  0.34944834  1  0.645453  -0.000447  3.864827  -0.001  0.609573  -0.000368  4.157665  -0.001  0.65123  -0.000368  4.151949  -0.001  0.217865  0.581189  -0.000324  4.160861  -0.001
C  C49  1  0.62699563  0.38804873  0.15054654  1  0.64545  -0.000451  3.864907  -0.001  0.609572  -0.000369  4.157756  -0.001  0.651229  -0.00037  4.152044  -0.001  0.217778  0.581186  -0.000325  4.160952  -0.001
C  C50  1  0.62698464  0.11195274  0.65054729  1  0.645266  0.000444  3.865104  0.001  0.609446  0.000367  4.157917  0.001  0.651101  0.000366  4.152202  0.001  0.217736  0.581057  0.000324  4.161115  0.001
C  C51  1  0.37301318  0.61195332  0.84945141  1  0.645292  0.000449  3.865436  0.001  0.609578  0.000367  4.158081  0.001  0.651235  0.000367  4.15237  0.001  0.217754  0.581192  0.000324  4.16128  0.001
C  C52  1  0.87305858  0.66237186  0.08831592  1  0.16083  -0.000494  3.632007  0.0  0.099399  -0.000421  3.898122  0.0  0.113845  -0.000355  3.908247  0.0  0.178324  0.086395  -0.000455  3.888805  0.0
C  C53  1  0.12694642  0.16237850  0.41168903  1  0.160807  -0.000517  3.631979  0.0  0.099347  -0.000421  3.898091  0.0  0.113804  -0.000356  3.908203  0.0  0.178254  0.08633  -0.000455  3.888772  0.0
C  C54  1  0.12694337  0.33762150  0.91168776  1  0.16052  0.000502  3.632189  0.0  0.099088  0.000419  3.898293  0.0  0.113542  0.000357  3.908413  0.0  0.178165  0.086095  0.000454  3.888975  0.0
C  C55  1  0.87305360  0.83762442  0.58830879  1  0.160634  0.000502  3.632255  0.0  0.09922  0.000419  3.898324  0.0  0.113675  0.000357  3.908447  0.0  0.178262  0.08622  0.000454  3.889  0.0
N  N56  1  0.95714809  0.75128121  0.11910832  1  -0.010738  3.3e-05  3.583639  0.0  0.074853  -1.6e-05  3.801848  0.0  0.062327  -3e-06  3.826089  0.0  -0.107423  0.095894  -2.1e-05  3.767636  0.0
N  N57  1  0.04285267  0.25128631  0.38089320  1  -0.010875  3.5e-05  3.583548  0.0  0.074731  -1.7e-05  3.801744  0.0  0.062196  -5e-06  3.82599  0.0  -0.107415  0.095811  -2.1e-05  3.767486  0.0
N  N58  1  0.04284504  0.24871475  0.88089995  1  -0.010744  -3.7e-05  3.583643  0.0  0.074879  1.8e-05  3.801853  0.0  0.062352  5e-06  3.826094  0.0  -0.107448  0.095893  2.1e-05  3.76765  0.0
N  N59  1  0.95715419  0.74871747  0.61910158  1  -0.01087  -3.1e-05  3.583307  0.0  0.074728  2e-05  3.801541  0.0  0.062193  -1e-06  3.825785  0.0  -0.107495  0.095752  2.1e-05  3.767343  0.0
N  N60  1  0.88589766  0.85058869  0.11476192  1  -0.103914  4.5e-05  2.816543  0.0  -0.113332  -2.6e-05  3.092615  0.0  -0.110009  -2.6e-05  3.09859  0.0  -0.073156  -0.119302  -2.9e-05  3.085822  0.0
N  N61  1  0.11410274  0.35059784  0.38523579  1  -0.103758  6.5e-05  2.816648  0.0  -0.113186  -2.7e-05  3.092696  0.0  -0.109861  -2.2e-05  3.098672  0.0  -0.073077  -0.119169  -2.9e-05  3.085899  0.0
N  N62  1  0.11409351  0.14940380  0.88524856  1  -0.103671  -6.2e-05  2.816996  0.0  -0.113049  2.6e-05  3.093031  0.0  -0.109727  2.3e-05  3.099012  0.0  -0.072968  -0.119011  2.9e-05  3.086239  0.0
N  N63  1  0.88590412  0.64940507  0.61476100  1  -0.103676  -6.1e-05  2.816672  0.0  -0.113062  2.6e-05  3.092721  0.0  -0.109739  2.4e-05  3.0987  0.0  -0.072957  -0.119028  3e-05  3.08593  0.0
N  N64  1  0.76402979  0.82044927  0.08206475  1  -0.020897  -0.000253  2.873274  0.0  -0.022491  -0.000213  3.166164  0.0  -0.016886  -0.000197  3.172856  0.0  -0.065583  -0.026322  -0.00022  3.163269  0.0
N  N65  1  0.23596877  0.32046066  0.41793309  1  -0.020875  -0.00028  2.873096  0.0  -0.022462  -0.000214  3.16595  0.0  -0.016856  -0.000195  3.172632  0.0  -0.065622  -0.026296  -0.00022  3.163065  0.0
N  N66  1  0.23596433  0.17953887  0.91794106  1  -0.021179  0.000274  2.873562  0.0  -0.022819  0.000211  3.166483  0.0  -0.017214  0.000199  3.173178  0.0  -0.06582  -0.026649  0.000219  3.163586  0.0
N  N67  1  0.76403514  0.67954139  0.58206770  1  -0.021028  0.00027  2.873298  0.0  -0.022652  0.000213  3.166195  0.0  -0.017048  0.000197  3.172889  0.0  -0.06575  -0.026484  0.000219  3.163295  0.0
N  N68  1  0.75297307  0.70382804  0.06499964  1  -0.234966  -0.001404  3.094661  -0.001  -0.20663  -0.000883  3.410702  0.0  -0.225764  -0.000862  3.419577  0.0  -0.221698  -0.195011  -0.00085  3.407342  0.0
N  N69  1  0.24702983  0.20383600  0.43500291  1  -0.235049  -0.00138  3.094385  0.0  -0.206703  -0.000882  3.410413  0.0  -0.225822  -0.000865  3.41929  0.0  -0.221735  -0.195092  -0.000851  3.407052  0.0
N  N70  1  0.24702693  0.29616097  0.93500155  1  -0.234802  0.001392  3.094475  0.0  -0.206448  0.000884  3.410492  0.0  -0.22559  0.000861  3.419378  0.0  -0.221615  -0.194829  0.00085  3.407131  0.0
N  N71  1  0.75297115  0.79616865  0.56499919  1  -0.234942  0.001387  3.094521  0.0  -0.206586  0.00088  3.410539  0.0  -0.225736  0.000866  3.419418  0.0  -0.22169  -0.194952  0.00085  3.407186  0.0
O  O72  1  0.48165117  0.64750846  0.09324824  1  -0.552402  0.075675  2.069292  0.1  -0.531901  0.050286  2.333603  0.073  -0.575976  0.039729  2.324232  0.061  -0.3037  -0.502424  0.053305  2.340048  0.074
O  O73  1  0.51834222  0.14751417  0.40674169  1  -0.552409  0.075682  2.069205  0.1  -0.531909  0.050288  2.333501  0.073  -0.575963  0.03973  2.324144  0.061  -0.303636  -0.502442  0.053308  2.339937  0.074
O  O74  1  0.51833423  0.35251444  0.90673859  1  -0.552155  -0.075629  2.070023  -0.1  -0.531641  -0.050269  2.334321  -0.073  -0.575712  -0.039716  2.324953  -0.061  -0.303536  -0.502172  -0.053284  2.340781  -0.074
O  O75  1  0.48165586  0.85250960  0.59325228  1  -0.552342  -0.075647  2.069917  -0.1  -0.531833  -0.050275  2.334227  -0.073  -0.575913  -0.03972  2.324844  -0.061  -0.303731  -0.502345  -0.053294  2.340698  -0.074
O  O76  1  0.31452199  0.51639425  0.04724164  1  -0.578862  -0.078554  2.071258  -0.104  -0.557952  -0.053095  2.338162  -0.077  -0.602484  -0.041747  2.330883  -0.064  -0.315696  -0.528319  -0.056132  2.343252  -0.078
O  O77  1  0.68547673  0.01640033  0.45276196  1  -0.579005  -0.078548  2.071158  -0.104  -0.558098  -0.053092  2.338086  -0.077  -0.602637  -0.041746  2.330798  -0.064  -0.315748  -0.528447  -0.056133  2.343186  -0.078
O  O78  1  0.68549264  0.48359389  0.95276919  1  -0.578947  0.078567  2.071158  0.104  -0.558063  0.053102  2.338039  0.077  -0.602597  0.041751  2.330763  0.064  -0.315666  -0.528424  0.056141  2.343119  0.078
O  O79  1  0.31451251  0.98360954  0.54724199  1  -0.578934  0.078568  2.070997  0.104  -0.558065  0.053102  2.337879  0.077  -0.602577  0.041752  2.330611  0.064  -0.3157  -0.528436  0.05614  2.342952  0.078
O  O80  1  0.48333668  0.84809391  0.40045002  1  -0.554095  -0.075233  2.06388  -0.099  -0.534061  -0.049968  2.327206  -0.072  -0.578093  -0.039451  2.317834  -0.06  -0.305301  -0.504628  -0.053076  2.333673  -0.074
O  O81  1  0.51666569  0.34809354  0.09954682  1  -0.554077  -0.075226  2.064042  -0.099  -0.534042  -0.049965  2.327358  -0.072  -0.578066  -0.039449  2.317995  -0.06  -0.305284  -0.50463  -0.053069  2.333816  -0.074
O  O82  1  0.51666331  0.15191509  0.59955386  1  -0.553976  0.075219  2.064167  0.099  -0.533955  0.049963  2.327448  0.072  -0.577946  0.039447  2.318093  0.06  -0.305223  -0.504558  0.053065  2.333894  0.074
O  O83  1  0.48334316  0.65190763  0.90044170  1  -0.55398  0.075216  2.064171  0.099  -0.533996  0.049965  2.327407  0.072  -0.578011  0.039449  2.318036  0.06  -0.305208  -0.504586  0.053068  2.333862  0.074
O  O84  1  0.31716488  0.98026615  0.36376042  1  -0.572299  0.081528  2.076972  0.107  -0.551794  0.054301  2.343325  0.079  -0.596932  0.042578  2.336658  0.065  -0.313962  -0.52181  0.057575  2.347996  0.08
O  O85  1  0.68283503  0.48026698  0.13623694  1  -0.57231  0.08155  2.0769  0.107  -0.551801  0.054311  2.343259  0.079  -0.596962  0.042586  2.33658  0.065  -0.313945  -0.521804  0.057586  2.347938  0.08
O  O86  1  0.68282834  0.01973936  0.63622698  1  -0.572211  -0.081559  2.076978  -0.107  -0.551695  -0.054315  2.343334  -0.079  -0.596873  -0.042587  2.336651  -0.065  -0.31393  -0.521676  -0.057592  2.348032  -0.08
O  O87  1  0.31716395  0.51975157  0.86377410  1  -0.572228  -0.081549  2.077227  -0.107  -0.551761  -0.054311  2.34352  -0.079  -0.596931  -0.042581  2.336847  -0.065  -0.313937  -0.521761  -0.057584  2.348207  -0.08
