# generated using pymatgen
data_ZnH8(C5O4)2
_symmetry_space_group_name_H-M   'P 1'
_cell_length_a   5.89208975
_cell_length_b   8.21633629
_cell_length_c   11.89481076
_cell_angle_alpha   100.00599345
_cell_angle_beta   89.99090225
_cell_angle_gamma   111.01325574
_symmetry_Int_Tables_number   1
_chemical_formula_structural   ZnH8(C5O4)2
_chemical_formula_sum   'Zn2 H16 C20 O16'
_cell_volume   528.16191330
_cell_formula_units_Z   2
loop_
 _symmetry_equiv_pos_site_id
 _symmetry_equiv_pos_as_xyz
  1  'x, y, z'
loop_
 _atom_site_type_symbol
 _atom_site_label
 _atom_site_symmetry_multiplicity
 _atom_site_fract_x
 _atom_site_fract_y
 _atom_site_fract_z
 _atom_site_occupancy
 _atom_site_hle17_bader_spin_density
 _atom_site_hle17_ddec_charge
 _atom_site_hle17_ddec_spin_density
 _atom_site_hle17_ddec_sum_bond_order
 _atom_site_hle17_magmom
 _atom_site_hse06_10hf_bader_spin_density
 _atom_site_hse06_10hf_ddec_charge
 _atom_site_hse06_10hf_ddec_spin_density
 _atom_site_hse06_10hf_ddec_sum_bond_order
 _atom_site_hse06_10hf_magmom
 _atom_site_hse06_bader_spin_density
 _atom_site_hse06_ddec_charge
 _atom_site_hse06_ddec_spin_density
 _atom_site_hse06_ddec_sum_bond_order
 _atom_site_hse06_magmom
 _atom_site_pbe_bader_spin_density
 _atom_site_pbe_cm5_charge
 _atom_site_pbe_ddec_charge
 _atom_site_pbe_ddec_spin_density
 _atom_site_pbe_ddec_sum_bond_order
 _atom_site_pbe_magmom
Zn  Zn0  1  0.83609786  0.00000625  0.75002539  1  0  1.202228  0  1.65705  0  0  1.025101  0  2.135136  0  0  1.074481  0  2.06909  0  0  0.693404  0.990325  0  2.180985  0
Zn  Zn1  1  0.16391629  0.00000485  0.24997350  1  0  1.202325  0  1.657071  0  0  1.025177  0  2.135163  0  0  1.074559  0  2.06912  0  0  0.693388  0.990409  0  2.181015  0
H  H2  1  0.96616708  0.72844877  0.88980115  1  0  0.1478  0  0.947997  0  0  0.153764  0  1.009955  0  0  0.157908  0  1.007749  0  0  0.113525  0.150976  0  1.011234  0
H  H3  1  0.23772999  0.27155427  0.61021534  1  0  0.147345  0  0.947077  0  0  0.153862  0  1.008533  0  0  0.158059  0  1.00626  0  0  0.113496  0.15104  0  1.009822  0
H  H4  1  0.03382360  0.27153557  0.11021536  1  0  0.147663  0  0.947529  0  0  0.153744  0  1.009423  0  0  0.157893  0  1.007211  0  0  0.113559  0.150952  0  1.010709  0
H  H5  1  0.76226389  0.72844659  0.38978356  1  0  0.147434  0  0.947034  0  0  0.153912  0  1.008533  0  0  0.158135  0  1.006228  0  0  0.113514  0.151091  0  1.00982  0
H  H6  1  0.50094067  0.55003862  0.79692609  1  0  0.135933  0  0.95152  0  0  0.144793  0  1.012803  0  0  0.14749  0  1.011493  0  0  0.113227  0.142957  0  1.013546  0
H  H7  1  0.95079712  0.44997745  0.70300032  1  0  0.136181  0  0.951263  0  0  0.144631  0  1.012904  0  0  0.147349  0  1.011455  0  0  0.11345  0.14279  0  1.013731  0
H  H8  1  0.49907879  0.44996932  0.20308533  1  0  0.135857  0  0.95149  0  0  0.14482  0  1.012621  0  0  0.147528  0  1.011284  0  0  0.113271  0.14298  0  1.013377  0
H  H9  1  0.04915769  0.55000295  0.29698129  1  0  0.136181  0  0.951395  0  0  0.144644  0  1.013006  0  0  0.147366  0  1.011554  0  0  0.113504  0.1428  0  1.013848  0
H  H10  1  0.66456241  0.92216080  0.94373964  1  0  0.434953  0  0.860685  0  0  0.402546  0  0.926368  0  0  0.413367  0  0.910624  0  0  0.299279  0.394922  0  0.937442  0
H  H11  1  0.74240418  0.07789444  0.55633603  1  0  0.434637  0  0.861277  0  0  0.40246  0  0.926691  0  0  0.413269  0  0.910974  0  0  0.299148  0.394829  0  0.937776  0
H  H12  1  0.33547571  0.07786402  0.05626431  1  0  0.435065  0  0.860482  0  0  0.402649  0  0.926189  0  0  0.413469  0  0.910447  0  0  0.299287  0.395023  0  0.937267  0
H  H13  1  0.25756174  0.92208786  0.44366092  1  0  0.434713  0  0.861148  0  0  0.402506  0  0.926629  0  0  0.413319  0  0.910904  0  0  0.299134  0.394875  0  0.937714  0
H  H14  1  0.46872589  0.97267973  0.88068180  1  0  0.42761  0  0.878259  0  0  0.393327  0  0.946787  0  0  0.404399  0  0.930929  0  0  0.292614  0.385544  0  0.957918  0
H  H15  1  0.49594667  0.02723455  0.61932210  1  0  0.429086  0  0.876159  0  0  0.39454  0  0.945131  0  0  0.405617  0  0.929263  0  0  0.292809  0.386739  0  0.956283  0
H  H16  1  0.53129850  0.02733464  0.11932525  1  0  0.427783  0  0.878049  0  0  0.393511  0  0.946555  0  0  0.404583  0  0.930694  0  0  0.292664  0.385726  0  0.957688  0
H  H17  1  0.50402624  0.97273461  0.38067684  1  0  0.428948  0  0.876405  0  0  0.394479  0  0.945243  0  0  0.405549  0  0.929383  0  0  0.292766  0.386693  0  0.956379  0
C  C18  1  0.28726422  0.19595142  0.87028397  1  0  0.616507  0  3.9747  0  0  0.561257  0  4.271472  0  0  0.59609  0  4.264454  0  0  0.206392  0.537251  0  4.276344  0
C  C19  1  0.09125848  0.80400118  0.62967797  1  0  0.616885  0  3.975913  0  0  0.561182  0  4.272999  0  0  0.596019  0  4.266015  0  0  0.205741  0.537187  0  4.277849  0
C  C20  1  0.71273527  0.80403352  0.12971326  1  0  0.616261  0  3.975231  0  0  0.561193  0  4.271851  0  0  0.596017  0  4.264833  0  0  0.206327  0.537189  0  4.276725  0
C  C21  1  0.90869924  0.19599187  0.37032347  1  0  0.616999  0  3.975324  0  0  0.561226  0  4.272547  0  0  0.596057  0  4.265556  0  0  0.205754  0.537227  0  4.277402  0
C  C22  1  0.51933377  0.34548422  0.88958946  1  0  0.043404  0  3.702232  0  0  0.037541  0  3.972036  0  0  0.034571  0  3.989258  0  0  0.054271  0.039497  0  3.960954  0
C  C23  1  0.17376736  0.65456799  0.61038727  1  0  0.043685  0  3.705705  0  0  0.038053  0  3.97506  0  0  0.035004  0  3.99235  0  0  0.054163  0.040099  0  3.963944  0
C  C24  1  0.48070648  0.65452452  0.11040860  1  0  0.043505  0  3.70311  0  0  0.037322  0  3.973104  0  0  0.034378  0  3.990284  0  0  0.054192  0.039266  0  3.962041  0
C  C25  1  0.82620283  0.34542622  0.38961009  1  0  0.043609  0  3.706076  0  0  0.03799  0  3.975483  0  0  0.034946  0  3.992766  0  0  0.05413  0.040032  0  3.964352  0
C  C26  1  0.84376846  0.59852571  0.90092476  1  0  -0.174222  0  3.689476  0  0  -0.203219  0  3.959418  0  0  -0.208813  0  3.975488  0  0  -0.10604  -0.198462  0  3.947847  0
C  C27  1  0.24509821  0.40148073  0.59901246  1  0  -0.173458  0  3.689942  0  0  -0.203526  0  3.959363  0  0  -0.209194  0  3.975486  0  0  -0.105617  -0.198696  0  3.947755  0
C  C28  1  0.15627714  0.40151743  0.09907437  1  0  -0.174256  0  3.690024  0  0  -0.203342  0  3.960035  0  0  -0.208938  0  3.976114  0  0  -0.106017  -0.198585  0  3.948458  0
C  C29  1  0.75487973  0.59851881  0.40098630  1  0  -0.173604  0  3.690073  0  0  -0.203593  0  3.959517  0  0  -0.20928  0  3.975626  0  0  -0.105626  -0.198765  0  3.947918  0
C  C30  1  0.89519450  0.48974965  0.96545559  1  0  0.191216  0  3.734961  0  0  0.171817  0  4.007281  0  0  0.181185  0  4.021087  0  0  0.083674  0.165135  0  3.998737  0
C  C31  1  0.40541337  0.51031718  0.53452684  1  0  0.191564  0  3.736044  0  0  0.173201  0  4.006056  0  0  0.182586  0  4.01981  0  0  0.084171  0.166556  0  3.997543  0
C  C32  1  0.10481866  0.51023550  0.03454756  1  0  0.19139  0  3.735383  0  0  0.17182  0  4.007763  0  0  0.181177  0  4.021577  0  0  0.083577  0.165136  0  3.999221  0
C  C33  1  0.59457658  0.48969957  0.46547289  1  0  0.191834  0  3.735799  0  0  0.173339  0  4.005913  0  0  0.18271  0  4.01969  0  0  0.084267  0.166681  0  3.997397  0
C  C34  1  0.60284201  0.50542711  0.85236876  1  0  -0.093252  0  3.700933  0  0  -0.130263  0  3.968589  0  0  -0.126593  0  3.984414  0  0  -0.091074  -0.132549  0  3.957587  0
C  C35  1  0.09729183  0.49460025  0.64754291  1  0  -0.093583  0  3.701493  0  0  -0.130386  0  3.9696  0  0  -0.126605  0  3.985409  0  0  -0.091386  -0.132747  0  3.958597  0
C  C36  1  0.39718664  0.49459234  0.14763294  1  0  -0.093201  0  3.701204  0  0  -0.130214  0  3.968846  0  0  -0.126547  0  3.98466  0  0  -0.091153  -0.132498  0  3.957845  0
C  C37  1  0.90267929  0.50539240  0.35244840  1  0  -0.093517  0  3.701617  0  0  -0.130348  0  3.969745  0  0  -0.126569  0  3.985556  0  0  -0.0914  -0.132707  0  3.958724  0
O  O38  1  0.12077163  0.21428113  0.80974177  1  0  -0.633711  0  2.083247  0  0  -0.558366  0  2.361735  0  0  -0.588243  0  2.347914  0  0  -0.310131  -0.537855  0  2.371224  0
O  O39  1  0.90633976  0.78571929  0.69017297  1  0  -0.633202  0  2.084247  0  0  -0.557674  0  2.362552  0  0  -0.587615  0  2.348866  0  0  -0.30894  -0.537073  0  2.371829  0
O  O40  1  0.87924585  0.78572617  0.19025276  1  0  -0.633592  0  2.083268  0  0  -0.55828  0  2.361646  0  0  -0.588161  0  2.347838  0  0  -0.310093  -0.53777  0  2.371135  0
O  O41  1  0.09364535  0.21427762  0.30982636  1  0  -0.633254  0  2.083565  0  0  -0.55768  0  2.361927  0  0  -0.58767  0  2.348341  0  0  -0.308941  -0.537077  0  2.371209  0
O  O42  1  0.25855030  0.05604486  0.91122096  1  0  -0.651675  0  2.010833  0  0  -0.587932  0  2.231894  0  0  -0.611421  0  2.218915  0  0  -0.318116  -0.57183  0  2.240615  0
O  O43  1  0.20244258  0.94395588  0.58878473  1  0  -0.652826  0  2.008793  0  0  -0.5887  0  2.230031  0  0  -0.612143  0  2.216941  0  0  -0.318533  -0.572598  0  2.238712  0
O  O44  1  0.74147275  0.94396003  0.08878005  1  0  -0.651649  0  2.010676  0  0  -0.587957  0  2.231658  0  0  -0.611447  0  2.218687  0  0  -0.318104  -0.571847  0  2.240371  0
O  O45  1  0.79752188  0.05603707  0.41121418  1  0  -0.652726  0  2.008673  0  0  -0.588659  0  2.229963  0  0  -0.612072  0  2.216859  0  0  -0.318479  -0.572567  0  2.23865  0
O  O46  1  0.69953016  0.33444146  0.95895734  1  0  -0.207414  0  2.391616  0  0  -0.132809  0  2.606927  0  0  -0.14939  0  2.616147  0  0  -0.114153  -0.121683  0  2.600963  0
O  O47  1  0.36505461  0.66559190  0.54103784  1  0  -0.208146  0  2.393676  0  0  -0.133818  0  2.608422  0  0  -0.150362  0  2.61761  0  0  -0.114518  -0.122841  0  2.602542  0
O  O48  1  0.30050806  0.66554628  0.04104441  1  0  -0.207534  0  2.391574  0  0  -0.132648  0  2.606804  0  0  -0.149231  0  2.616007  0  0  -0.114094  -0.121521  0  2.600849  0
O  O49  1  0.63492267  0.33440631  0.45896077  1  0  -0.208261  0  2.393413  0  0  -0.133897  0  2.608213  0  0  -0.15044  0  2.617404  0  0  -0.114587  -0.122884  0  2.602306  0
O  O50  1  0.59703457  0.91828445  0.86589633  1  0  -0.838289  0  1.908163  0  0  -0.765051  0  2.133662  0  0  -0.787856  0  2.094942  0  0  -0.57034  -0.74913  0  2.16047  0
O  O51  1  0.67862730  0.08170331  0.63416555  1  0  -0.839307  0  1.906591  0  0  -0.766311  0  2.131944  0  0  -0.789137  0  2.093185  0  0  -0.57052  -0.750366  0  2.15881  0
O  O52  1  0.40300852  0.08172998  0.13411242  1  0  -0.838607  0  1.908061  0  0  -0.765364  0  2.13358  0  0  -0.788164  0  2.094858  0  0  -0.570344  -0.749439  0  2.160394  0
O  O53  1  0.32134748  0.91827634  0.36583113  1  0  -0.839318  0  1.906705  0  0  -0.766367  0  2.13204  0  0  -0.789189  0  2.09328  0  0  -0.570492  -0.750436  0  2.158878  0
