# generated using pymatgen
data_Mn2H26C51(O2F3)6
_symmetry_space_group_name_H-M   'P 1'
_cell_length_a   7.34261214
_cell_length_b   16.54585959
_cell_length_c   22.02554947
_cell_angle_alpha   95.00693046
_cell_angle_beta   90.02250975
_cell_angle_gamma   102.79679330
_symmetry_Int_Tables_number   1
_chemical_formula_structural   Mn2H26C51(O2F3)6
_chemical_formula_sum   'Mn4 H52 C102 O24 F36'
_cell_volume   2598.92306183
_cell_formula_units_Z   2
loop_
 _symmetry_equiv_pos_site_id
 _symmetry_equiv_pos_as_xyz
  1  'x, y, z'
loop_
 _atom_site_type_symbol
 _atom_site_label
 _atom_site_symmetry_multiplicity
 _atom_site_fract_x
 _atom_site_fract_y
 _atom_site_fract_z
 _atom_site_occupancy
 _atom_site_pbe_bader_charge
 _atom_site_pbe_bader_spin_density
 _atom_site_pbe_cm5_charge
 _atom_site_pbe_ddec_charge
 _atom_site_pbe_ddec_spin_density
 _atom_site_pbe_ddec_sum_bond_order
 _atom_site_pbe_magmom
Mn  Mn0  1  0.45619673  0.44485940  0.75202903  1  1.537852  4.534194  0.643641  1.068469  4.665452  2.303305  4.44
Mn  Mn1  1  0.01103006  0.55479274  0.74819983  1  1.538714  4.533536  0.643975  1.068075  4.664523  2.302592  4.44
Mn  Mn2  1  0.54370504  0.55511662  0.24796916  1  1.537404  4.534342  0.643716  1.06837  4.665625  2.303376  4.44
Mn  Mn3  1  0.98890393  0.44519325  0.25181218  1  1.538803  4.533479  0.643906  1.067964  4.664412  2.302815  4.44
H  H4  1  0.30802398  0.29527773  0.68203997  1  0.676481  0.00037  0.309105  0.363976  0.000249  0.988883  0.0
H  H5  1  0.01200058  0.70438047  0.81795490  1  0.663193  0.000384  0.308325  0.363166  0.000252  0.989548  0.0
H  H6  1  0.69195685  0.70470389  0.31795813  1  0.676319  0.000369  0.309086  0.363847  0.000248  0.989047  0.0
H  H7  1  0.98801077  0.29563226  0.18204480  1  0.663088  0.000384  0.308428  0.363316  0.000251  0.989426  0.0
H  H8  1  0.10984068  0.29207669  0.38327071  1  0.078519  0.000286  0.100903  0.109467  -0.000186  1.024663  0.0
H  H9  1  0.81761838  0.70778006  0.11675644  1  0.088959  0.000285  0.101495  0.110674  -0.000188  1.024138  0.0
H  H10  1  0.89014778  0.70790928  0.61672633  1  0.078405  0.000286  0.100883  0.10938  -0.000186  1.024682  0.0
H  H11  1  0.18237994  0.29224200  0.88324522  1  0.088809  0.000285  0.101547  0.110726  -0.000189  1.024146  0.0
H  H12  1  0.21901763  0.19303027  0.44359235  1  0.094083  4.8e-05  0.091871  0.099909  5e-06  1.047613  0.0
H  H13  1  0.02537170  0.80708671  0.05634486  1  0.105103  4.8e-05  0.092244  0.100073  5e-06  1.04667  0.0
H  H14  1  0.78096928  0.80695259  0.55641129  1  0.094898  4.8e-05  0.092017  0.099998  5e-06  1.047613  0.0
H  H15  1  0.97465425  0.19291980  0.94365715  1  0.104888  4.7e-05  0.092291  0.100126  5e-06  1.046653  0.0
H  H16  1  0.78471401  0.33733631  0.43384415  1  0.099231  0.000101  0.104845  0.113832  8e-06  0.996455  0.0
H  H17  1  0.44709048  0.66268455  0.06584320  1  0.078181  0.000101  0.104837  0.114271  9e-06  0.996375  0.0
H  H18  1  0.21529385  0.66266398  0.56616336  1  0.099321  0.000101  0.104776  0.113667  8e-06  0.996587  0.0
H  H19  1  0.55289610  0.33731948  0.93417045  1  0.07819  0.000101  0.104816  0.114306  9e-06  0.996174  0.0
H  H20  1  0.67205632  0.43358621  0.37120460  1  0.128346  0.000248  0.109259  0.11904  -0.000707  1.018438  0.0
H  H21  1  0.23865243  0.56633596  0.12860644  1  0.154458  0.000243  0.109241  0.119348  -0.000699  1.018302  0.0
H  H22  1  0.32792886  0.56640412  0.62879453  1  0.128329  0.000248  0.109254  0.119032  -0.000707  1.018548  0.0
H  H23  1  0.76134834  0.43367739  0.87140374  1  0.154224  0.000244  0.109227  0.119391  -0.000699  1.018119  0.0
H  H24  1  0.77094283  0.42264264  0.62725449  1  0.134482  0.000276  0.109016  0.112865  -0.000476  1.026191  0.0
H  H25  1  0.34791033  0.57733120  0.87287920  1  0.116207  0.000286  0.109187  0.112988  -0.000482  1.026514  0.0
H  H26  1  0.22906564  0.57735889  0.37273630  1  0.134045  0.000276  0.109002  0.112845  -0.000476  1.02623  0.0
H  H27  1  0.65208721  0.42267842  0.12712074  1  0.116205  0.000285  0.109207  0.113049  -0.000482  1.026471  0.0
H  H28  1  0.13940593  0.25335213  0.60295933  1  0.100865  0.000331  0.103774  0.110442  5.1e-05  1.032269  0.0
H  H29  1  0.88550383  0.74675832  0.89693697  1  0.098254  0.000331  0.103141  0.108301  5.1e-05  1.033632  0.0
H  H30  1  0.86059402  0.74665687  0.39704375  1  0.100766  0.000331  0.103757  0.110364  5.1e-05  1.032249  0.0
H  H31  1  0.11450873  0.25324320  0.10305473  1  0.098377  0.000331  0.103154  0.108128  5.2e-05  1.033745  0.0
H  H32  1  0.44078486  0.11157826  0.66345626  1  0.120559  1.3e-05  0.099237  0.108884  -2e-05  1.038867  0.0
H  H33  1  0.32840378  0.88859218  0.83620291  1  0.120451  1.2e-05  0.098604  0.108358  -2.1e-05  1.040249  0.0
H  H34  1  0.55922529  0.88842389  0.33653229  1  0.120253  1.3e-05  0.099172  0.108767  -2e-05  1.039037  0.0
H  H35  1  0.67160458  0.11141184  0.16379667  1  0.120344  1.2e-05  0.098586  0.108298  -2.1e-05  1.040335  0.0
H  H36  1  0.59596666  0.99791283  0.68056120  1  0.080793  8.1e-05  0.09758  0.112063  4.1e-05  1.029894  0.0
H  H37  1  0.59769899  0.00197120  0.81921693  1  0.077654  8e-05  0.097684  0.111743  4.1e-05  1.029742  0.0
H  H38  1  0.40404614  0.00208372  0.31942881  1  0.080368  8.1e-05  0.097589  0.112073  4.1e-05  1.029879  0.0
H  H39  1  0.40231649  0.99803344  0.18077815  1  0.077622  8e-05  0.097676  0.11167  4.1e-05  1.029817  0.0
H  H40  1  0.02248191  0.17162834  0.79009215  1  0.090586  2e-05  0.097991  0.107474  -2.3e-05  1.026901  0.0
H  H41  1  0.85011343  0.82784782  0.71002827  1  0.114542  2e-05  0.098027  0.107904  -2.4e-05  1.026605  0.0
H  H42  1  0.97750910  0.82836821  0.20990921  1  0.090594  2e-05  0.097974  0.107494  -2.3e-05  1.026806  0.0
H  H43  1  0.14988111  0.17215309  0.28995975  1  0.114835  2e-05  0.097966  0.107874  -2.4e-05  1.026527  0.0
H  H44  1  0.86051952  0.28339717  0.77428123  1  0.087133  0.000268  0.104641  0.103748  -0.000235  1.037499  0.0
H  H45  1  0.57622176  0.71629293  0.72580570  1  0.084739  0.000266  0.104419  0.103492  -0.000237  1.036663  0.0
H  H46  1  0.13947726  0.71660000  0.22571835  1  0.087059  0.000268  0.104652  0.103759  -0.000235  1.037497  0.0
H  H47  1  0.42377675  0.28371047  0.27418793  1  0.084479  0.000266  0.104488  0.103616  -0.000237  1.036503  0.0
H  H48  1  0.92799335  0.16758613  0.52545058  1  0.083436  4.3e-05  0.097496  0.107408  -9e-06  1.021016  0.0
H  H49  1  0.76011735  0.83249350  0.97447898  1  0.09071  4.5e-05  0.097385  0.10786  -9e-06  1.022039  0.0
H  H50  1  0.07201685  0.83240793  0.47454925  1  0.083612  4.4e-05  0.097526  0.107505  -9e-06  1.020978  0.0
H  H51  1  0.23991174  0.16751114  0.02551382  1  0.0907  4.5e-05  0.097416  0.107972  -9e-06  1.021971  0.0
H  H52  1  0.55614060  0.33656973  0.54859298  1  0.113633  0.000133  0.106099  0.11523  1.2e-05  0.990998  0.0
H  H53  1  0.21948815  0.66345222  0.95150639  1  0.118664  0.000134  0.106217  0.115923  1.2e-05  0.991126  0.0
H  H54  1  0.44385920  0.66342806  0.45140074  1  0.113793  0.000133  0.106103  0.115257  1.2e-05  0.991001  0.0
H  H55  1  0.78053344  0.33656735  0.04849875  1  0.118268  0.000134  0.106161  0.115837  1.2e-05  0.991159  0.0
C  C56  1  0.59238617  0.19747020  0.47931969  1  0.040854  7.1e-05  -0.01026  -0.273682  6.3e-05  3.84955  0.0
C  C57  1  0.39450867  0.80256760  0.02065872  1  0.047175  7e-05  -0.010611  -0.272983  6.4e-05  3.848853  0.0
C  C58  1  0.40761722  0.80252386  0.52068060  1  0.040784  7.1e-05  -0.010198  -0.273735  6.3e-05  3.849475  0.0
C  C59  1  0.60552094  0.19744077  0.97934159  1  0.046668  7.1e-05  -0.010493  -0.272841  6.4e-05  3.848815  0.0
C  C60  1  0.51081277  0.25751953  0.44334554  1  -0.044403  0.004305  -0.015056  0.085062  0.003396  3.94802  0.003
C  C61  1  0.25291864  0.74258307  0.05661340  1  -0.036207  0.004353  -0.015541  0.084199  0.003434  3.948593  0.003
C  C62  1  0.48919175  0.74247952  0.55666415  1  -0.044364  0.004307  -0.015086  0.085127  0.003398  3.947701  0.003
C  C63  1  0.74711303  0.25743215  0.94340280  1  -0.03654  0.004355  -0.015602  0.083988  0.003435  3.948869  0.003
C  C64  1  0.81681325  0.07527196  0.73834728  1  -0.07428  0.002385  -0.008997  0.095779  0.001885  3.928579  0.002
C  C65  1  0.74104711  0.92440480  0.76160052  1  -0.046887  0.002353  -0.009093  0.096318  0.001859  3.926839  0.001
C  C66  1  0.18318359  0.92473081  0.26165131  1  -0.074132  0.002388  -0.009019  0.095734  0.001887  3.92833  0.002
C  C67  1  0.25895728  0.07559673  0.23839526  1  -0.04688  0.002356  -0.00909  0.09642  0.001861  3.926725  0.001
C  C68  1  0.63617899  0.32640486  0.42275746  1  -0.054028  -0.000821  -0.089634  -0.127388  -0.000913  3.958456  -0.001
C  C69  1  0.30963452  0.67366188  0.07714070  1  -0.065434  -0.000817  -0.089083  -0.127474  -0.000917  3.958279  -0.001
C  C70  1  0.36382670  0.67359108  0.57725022  1  -0.053611  -0.000822  -0.089507  -0.127191  -0.000915  3.958207  -0.001
C  C71  1  0.69036366  0.32634899  0.92287703  1  -0.065157  -0.000818  -0.089094  -0.127381  -0.000917  3.95777  -0.001
C  C72  1  0.97214072  0.34508090  0.61984842  1  -0.023838  0.001516  -0.018531  -0.050303  0.000316  3.987334  0.0
C  C73  1  0.62657135  0.65491976  0.88013005  1  -0.068074  0.001503  -0.018264  -0.0514  0.000309  3.987758  0.0
C  C74  1  0.02785860  0.65492685  0.38013414  1  -0.023638  0.001518  -0.018711  -0.050466  0.000319  3.986936  0.0
C  C75  1  0.37340518  0.34508052  0.11986111  1  -0.067997  0.0015  -0.018316  -0.05152  0.000307  3.988192  0.0
C  C76  1  0.44052085  0.13450608  0.51105442  1  1.716674  0.000336  0.302986  0.675756  0.000299  3.975683  0.0
C  C77  1  0.30560865  0.86554567  0.98885473  1  1.726821  0.000336  0.301865  0.672738  0.000299  3.979069  0.0
C  C78  1  0.55948472  0.86549234  0.48894388  1  1.716745  0.000336  0.302985  0.675928  0.000298  3.975418  0.0
C  C79  1  0.69441092  0.13445897  0.01115034  1  1.726618  0.000337  0.301753  0.672639  0.0003  3.979303  0.0
C  C80  1  0.32042098  0.24574722  0.42909291  1  -0.048925  -0.00093  -0.09958  -0.141907  -0.000973  3.98803  -0.001
C  C81  1  0.07432655  0.75440568  0.07088919  1  -0.083972  -0.00094  -0.099182  -0.140773  -0.00099  3.986935  -0.001
C  C82  1  0.67958004  0.75423937  0.57091325  1  -0.049236  -0.000932  -0.099869  -0.142212  -0.000974  3.988196  -0.001
C  C83  1  0.92568882  0.24560145  0.92912466  1  -0.084347  -0.00094  -0.099234  -0.140857  -0.000989  3.987031  -0.001
C  C84  1  0.56739069  0.12416995  0.69135388  1  -0.011727  0.002499  -0.079104  -0.065122  0.001963  3.944388  0.002
C  C85  1  0.44224939  0.87578552  0.80834059  1  0.05234  0.00251  -0.079665  -0.066324  0.001994  3.944899  0.002
C  C86  1  0.43261152  0.87582722  0.30863707  1  -0.011208  0.002501  -0.079006  -0.065042  0.001964  3.944548  0.002
C  C87  1  0.55775302  0.12421477  0.19165602  1  0.051895  0.002513  -0.079695  -0.066413  0.001996  3.94518  0.002
C  C88  1  0.63793950  0.20440661  0.71929452  1  0.009308  0.001227  -0.018521  -0.055437  0.00072  3.998258  0.001
C  C89  1  0.43240919  0.79542868  0.78052365  1  -0.040277  0.001272  -0.017806  -0.055014  0.000756  3.997525  0.001
C  C90  1  0.36206315  0.79558870  0.28070358  1  0.009166  0.001227  -0.018525  -0.055231  0.000721  3.997954  0.001
C  C91  1  0.56758999  0.20456787  0.21947135  1  -0.039924  0.001271  -0.017683  -0.054661  0.000755  3.997458  0.001
C  C92  1  0.80447317  0.22069431  0.75354483  1  -0.017821  0.00235  -0.076529  -0.06389  0.001544  3.944923  0.001
C  C93  1  0.58281199  0.77902667  0.74645280  1  0.01019  0.002334  -0.07578  -0.061977  0.001535  3.944993  0.001
C  C94  1  0.19552602  0.77930224  0.24645562  1  -0.018018  0.002353  -0.076468  -0.063905  0.001546  3.944635  0.001
C  C95  1  0.41719302  0.22097610  0.25354079  1  0.010411  0.002336  -0.075851  -0.062198  0.001537  3.944854  0.001
C  C96  1  0.10558319  0.40075373  0.66470100  1  1.54655  0.027133  0.240785  0.618932  0.026028  4.132178  0.023
C  C97  1  0.70424063  0.59908862  0.83537750  1  1.558123  0.027092  0.241524  0.620713  0.02607  4.129855  0.023
C  C98  1  0.89438771  0.59924345  0.33529040  1  1.546866  0.027119  0.240852  0.61892  0.026025  4.132297  0.023
C  C99  1  0.29570438  0.40090855  0.16460437  1  1.557831  0.027096  0.241293  0.620197  0.026066  4.130056  0.023
C  C100  1  0.31486278  0.42442088  0.33310940  1  1.563494  0.023738  0.23253  0.609994  0.023682  4.173453  0.021
C  C101  1  0.89039920  0.57568938  0.16673006  1  1.550879  0.024092  0.232425  0.610303  0.023906  4.171984  0.021
C  C102  1  0.68511058  0.57556759  0.66690278  1  1.558935  0.023788  0.232345  0.60992  0.023694  4.173816  0.021
C  C103  1  0.10960739  0.42431652  0.83328871  1  1.549547  0.024118  0.232265  0.610122  0.023922  4.171809  0.021
C  C104  1  0.53250117  0.27018674  0.71530643  1  1.507133  0.011167  0.250447  0.604464  0.010777  4.076392  0.01
C  C105  1  0.26138550  0.72956850  0.78458509  1  1.497117  0.011251  0.249776  0.603461  0.010857  4.076531  0.01
C  C106  1  0.46749961  0.72980483  0.28469324  1  1.507699  0.01118  0.250428  0.604176  0.010791  4.076473  0.01
C  C107  1  0.73861777  0.27042805  0.21541309  1  1.497657  0.011259  0.249756  0.603409  0.01087  4.076537  0.01
C  C108  1  0.89899296  0.99979239  0.75001349  1  0.068373  1.8e-05  -0.01006  -0.274437  1.9e-05  3.84248  0.0
C  C109  1  0.10101026  0.00021225  0.24998477  1  0.068274  1.8e-05  -0.010087  -0.274457  1.9e-05  3.842382  0.0
C  C110  1  0.65590622  0.06038217  0.70100564  1  -0.003957  -0.000451  -0.091683  -0.126185  -0.000491  3.95006  0.0
C  C111  1  0.59484022  0.93944790  0.79877543  1  -0.007586  -0.000427  -0.091006  -0.12481  -0.000464  3.947405  0.0
C  C112  1  0.34410416  0.93961500  0.29898668  1  -0.003684  -0.000451  -0.09171  -0.126209  -0.000491  3.949996  0.0
C  C113  1  0.40516250  0.06055300  0.20122077  1  -0.007573  -0.000427  -0.090995  -0.124731  -0.000465  3.947272  0.0
C  C114  1  0.57343165  0.38146422  0.38814398  1  -0.034769  0.004089  -0.076362  -0.070678  0.002779  3.938985  0.002
C  C115  1  0.19212662  0.61856043  0.11178865  1  -0.034991  0.004116  -0.076873  -0.071113  0.002802  3.936615  0.002
C  C116  1  0.42656190  0.61852922  0.61186490  1  -0.035065  0.00409  -0.076383  -0.070588  0.002781  3.939098  0.002
C  C117  1  0.80786579  0.38144982  0.88822677  1  -0.033734  0.004117  -0.076519  -0.070896  0.002804  3.936757  0.002
C  C118  1  0.89429756  0.15685272  0.76270054  1  0.000391  -0.000572  -0.092877  -0.13045  -0.000631  3.953424  0.0
C  C119  1  0.73666878  0.84275819  0.73732583  1  -0.06078  -0.000587  -0.093535  -0.132645  -0.000651  3.954966  0.0
C  C120  1  0.10569742  0.84314632  0.23730188  1  0.000616  -0.000573  -0.092899  -0.130499  -0.000632  3.953098  0.0
C  C121  1  0.26333184  0.15724396  0.26266636  1  -0.060859  -0.000588  -0.093509  -0.132731  -0.000652  3.954609  0.0
C  C122  1  0.38284609  0.36903161  0.37369196  1  -0.034747  0.001589  -0.018855  -0.049322  0.000295  3.984615  0.0
C  C123  1  0.01408732  0.63112672  0.12630743  1  -0.001053  0.001567  -0.018522  -0.049469  0.000288  3.986728  0.0
C  C124  1  0.61714288  0.63095810  0.62631712  1  -0.034633  0.001587  -0.018838  -0.04954  0.000294  3.985023  0.0
C  C125  1  0.98591354  0.36889224  0.87371719  1  -0.00162  0.001565  -0.018843  -0.049926  0.000286  3.987313  0.0
C  C126  1  0.68414692  0.31801480  0.56039598  1  -0.034357  -0.00109  -0.088003  -0.122029  -0.001207  3.955649  -0.001
C  C127  1  0.36595996  0.68199529  0.93968428  1  -0.050596  -0.001091  -0.088459  -0.124491  -0.001212  3.958436  -0.001
C  C128  1  0.31584631  0.68197802  0.43959651  1  -0.035108  -0.00109  -0.08798  -0.122025  -0.001207  3.955826  -0.001
C  C129  1  0.63405221  0.31802180  0.06031752  1  -0.049876  -0.001091  -0.088252  -0.124101  -0.001213  3.958375  -0.001
C  C130  1  0.25738162  0.30143467  0.39492865  1  0.018784  0.004732  -0.083296  -0.080528  0.003486  3.966328  0.003
C  C131  1  0.95598547  0.69868431  0.10507309  1  -0.001009  0.004804  -0.084263  -0.082726  0.003528  3.968735  0.003
C  C132  1  0.74260517  0.69855069  0.60507969  1  0.018734  0.004735  -0.083171  -0.080233  0.003488  3.966384  0.003
C  C133  1  0.04402224  0.30132656  0.89494055  1  -0.00033  0.004808  -0.084185  -0.082472  0.003531  3.968538  0.003
C  C134  1  0.89149400  0.22348978  0.54679321  1  -0.054109  -0.001467  -0.095105  -0.131235  -0.001575  3.969934  -0.001
C  C135  1  0.66762955  0.77658638  0.95316218  1  -0.028735  -0.001487  -0.095151  -0.132686  -0.001587  3.971704  -0.001
C  C136  1  0.10850648  0.77650117  0.45320551  1  -0.053873  -0.001468  -0.095063  -0.131342  -0.001575  3.970003  -0.001
C  C137  1  0.33239639  0.22342012  0.04683166  1  -0.093352  -0.001471  -0.095074  -0.132754  -0.001588  3.97177  -0.001
C  C138  1  0.68987201  0.14648325  0.43147829  1  1.722104  0.000267  0.303364  0.675663  0.000227  3.967397  0.0
C  C139  1  0.54301766  0.85344676  0.06849965  1  1.718431  0.00027  0.302699  0.676  0.00023  3.966118  0.0
C  C140  1  0.31012619  0.85351952  0.56851439  1  1.722493  0.000267  0.303316  0.675512  0.000227  3.967716  0.0
C  C141  1  0.45702066  0.14655725  0.93149448  1  1.718591  0.00027  0.302719  0.676001  0.00023  3.966257  0.0
C  C142  1  0.72803807  0.24683739  0.52978864  1  -0.037036  0.006179  -0.014157  0.084778  0.004867  3.941225  0.004
C  C143  1  0.48094727  0.75318173  0.97023451  1  -0.064728  0.006215  -0.013832  0.086072  0.004888  3.941394  0.004
C  C144  1  0.27196395  0.75315667  0.47020802  1  -0.036736  0.006178  -0.014254  0.0847  0.004866  3.941367  0.004
C  C145  1  0.51907782  0.24682851  0.02976729  1  0.001111  0.006201  -0.014013  0.085858  0.004891  3.941631  0.004
C  C146  1  0.01197647  0.27217281  0.59135671  1  -0.01406  0.006383  -0.082461  -0.080184  0.004792  3.953277  0.004
C  C147  1  0.73931871  0.72788971  0.90857300  1  -0.034871  0.006412  -0.082117  -0.077233  0.004806  3.951223  0.004
C  C148  1  0.98802835  0.72782685  0.40863849  1  -0.014177  0.006382  -0.08231  -0.079794  0.004791  3.953048  0.004
C  C149  1  0.26068370  0.27211057  0.09141771  1  -0.035503  0.006414  -0.082217  -0.077049  0.004808  3.951565  0.004
C  C150  1  0.80512340  0.36693531  0.60451118  1  -0.054399  0.005506  -0.077296  -0.073707  0.003805  3.946535  0.003
C  C151  1  0.43783219  0.63306479  0.89554473  1  0.037339  0.005504  -0.07719  -0.07252  0.003825  3.946825  0.003
C  C152  1  0.19487449  0.63306684  0.39547692  1  -0.054074  0.005505  -0.077417  -0.073877  0.003804  3.946651  0.003
C  C153  1  0.56215613  0.36694546  0.10445480  1  0.036685  0.005505  -0.077183  -0.072656  0.003826  3.946864  0.003
C  C154  1  0.01389303  0.98257143  0.69265359  1  1.722212  0.000132  0.301694  0.675258  0.000115  3.978022  0.0
C  C155  1  0.03087272  0.01699169  0.80739375  1  1.720307  0.000129  0.301873  0.673802  0.000113  3.981386  0.0
C  C156  1  0.98611217  0.01743446  0.30734474  1  1.721418  0.000132  0.301814  0.675598  0.000116  3.977759  0.0
C  C157  1  0.96911280  0.98301296  0.19260904  1  1.720453  0.000129  0.301876  0.673821  0.000113  3.981299  0.0
O  O158  1  0.58875177  0.34194779  0.74156497  1  -1.185427  0.06502  -0.278938  -0.522256  0.044318  2.291171  0.027
O  O159  1  0.24606717  0.65772816  0.75848659  1  -1.187421  0.065327  -0.279098  -0.52204  0.044451  2.293743  0.027
O  O160  1  0.41126077  0.65804005  0.25843673  1  -1.185605  0.06502  -0.279059  -0.52219  0.04433  2.29137  0.027
O  O161  1  0.75391245  0.34226466  0.24151679  1  -1.188077  0.065375  -0.279076  -0.522049  0.044459  2.293888  0.027
O  O162  1  0.24323946  0.37431632  0.68556301  1  -1.202364  0.066657  -0.29959  -0.569081  0.047321  2.39886  0.035
O  O163  1  0.86811951  0.62544588  0.81440924  1  -1.20883  0.066668  -0.299915  -0.570581  0.047254  2.397511  0.035
O  O164  1  0.75671331  0.62566094  0.31442845  1  -1.202333  0.066657  -0.29951  -0.569001  0.047322  2.399042  0.035
O  O165  1  0.13184489  0.37455192  0.18558629  1  -1.209118  0.066632  -0.299687  -0.570136  0.047241  2.39732  0.035
O  O166  1  0.08177506  0.47322305  0.67982450  1  -1.208298  0.070764  -0.302302  -0.57494  0.049172  2.381528  0.026
O  O167  1  0.60820734  0.52654851  0.82039317  1  -1.215548  0.070659  -0.30262  -0.575497  0.049115  2.380957  0.026
O  O168  1  0.91822673  0.52677599  0.32017793  1  -1.208784  0.070793  -0.302366  -0.574917  0.049181  2.381817  0.026
O  O169  1  0.39173761  0.47345674  0.17956835  1  -1.2149  0.070596  -0.302609  -0.575265  0.049092  2.380998  0.026
O  O170  1  0.14333773  0.40504500  0.31686520  1  -1.19075  0.076305  -0.309492  -0.56081  0.051687  2.328009  0.036
O  O171  1  0.73861891  0.59533890  0.18312397  1  -1.194738  0.076549  -0.309952  -0.561989  0.051876  2.326798  0.036
O  O172  1  0.85664446  0.59493662  0.68313699  1  -1.190722  0.076316  -0.309482  -0.56069  0.051696  2.328067  0.036
O  O173  1  0.26137271  0.40464521  0.81689337  1  -1.19462  0.076597  -0.309874  -0.561982  0.05188  2.326705  0.036
O  O174  1  0.43370730  0.48723308  0.31717966  1  -1.225589  0.078328  -0.319619  -0.597736  0.054652  2.396082  0.033
O  O175  1  0.94590861  0.51258116  0.18242804  1  -1.214037  0.078355  -0.318716  -0.59635  0.054464  2.39604  0.033
O  O176  1  0.56629584  0.51275227  0.68283958  1  -1.221636  0.078321  -0.319499  -0.597759  0.054663  2.396284  0.033
O  O177  1  0.05411252  0.48742659  0.81758540  1  -1.213223  0.078328  -0.318741  -0.596271  0.054464  2.395865  0.033
O  O178  1  0.37470285  0.24641808  0.68354763  1  -1.187849  0.005415  -0.317877  -0.473026  0.003334  2.33628  0.004
O  O179  1  0.12737688  0.75329760  0.81636032  1  -1.179422  0.005446  -0.316913  -0.471806  0.003354  2.335714  0.004
O  O180  1  0.62529062  0.75356976  0.31645316  1  -1.187783  0.005425  -0.317757  -0.472783  0.003341  2.336643  0.004
O  O181  1  0.87264269  0.24670704  0.18364156  1  -1.179361  0.005452  -0.317024  -0.471971  0.003359  2.335689  0.004
F  F182  1  0.84963512  0.19483471  0.41137200  1  -0.627452  4.8e-05  -0.0853  -0.197403  1.9e-05  1.371973  0.0
F  F183  1  0.65424102  0.80492316  0.08855660  1  -0.624838  5e-05  -0.085008  -0.197165  1.9e-05  1.371742  0.0
F  F184  1  0.15034428  0.80517677  0.58861625  1  -0.62751  4.8e-05  -0.085358  -0.197358  1.9e-05  1.372032  0.0
F  F185  1  0.34579742  0.19507836  0.91143782  1  -0.624794  5e-05  -0.085097  -0.197237  1.9e-05  1.371871  0.0
F  F186  1  0.57732162  0.11766728  0.38160847  1  -0.621153  7.6e-05  -0.092137  -0.196982  4.8e-05  1.365005  0.0
F  F187  1  0.45965679  0.88239619  0.11838625  1  -0.618273  7.7e-05  -0.092044  -0.197255  4.8e-05  1.363166  0.0
F  F188  1  0.42266079  0.88233114  0.61838619  1  -0.62138  7.7e-05  -0.092073  -0.196922  4.8e-05  1.365097  0.0
F  F189  1  0.54040557  0.11761778  0.88161262  1  -0.618005  7.7e-05  -0.091953  -0.197186  4.9e-05  1.363329  0.0
F  F190  1  0.73809856  0.07924459  0.45306170  1  -0.610843  6.6e-05  -0.099937  -0.210403  3.8e-05  1.354882  0.0
F  F191  1  0.65857504  0.92057146  0.04688275  1  -0.610344  6.7e-05  -0.09979  -0.210556  3.9e-05  1.35411  0.0
F  F192  1  0.26192645  0.92076004  0.54692611  1  -0.610907  6.6e-05  -0.099865  -0.210337  3.8e-05  1.35497  0.0
F  F193  1  0.34148989  0.07943131  0.95311538  1  -0.61071  6.7e-05  -0.099836  -0.210598  3.9e-05  1.354153  0.0
F  F194  1  0.51867208  0.09001166  0.54846830  1  -0.611847  7.2e-05  -0.09357  -0.199117  3.6e-05  1.374653  0.0
F  F195  1  0.42830900  0.91002509  0.95149026  1  -0.620315  7.3e-05  -0.093684  -0.198564  3.6e-05  1.374958  0.0
F  F196  1  0.48131706  0.90998115  0.45152918  1  -0.611869  7.2e-05  -0.093516  -0.1991  3.6e-05  1.374648  0.0
F  F197  1  0.57169691  0.08998764  0.04851397  1  -0.620422  7.3e-05  -0.093719  -0.198684  3.6e-05  1.375021  0.0
F  F198  1  0.33052399  0.17519617  0.54635946  1  -0.622879  7.1e-05  -0.086947  -0.195027  1e-05  1.358114  0.0
F  F199  1  0.15495026  0.82494279  0.95348428  1  -0.624269  7.1e-05  -0.086376  -0.194319  9e-06  1.359813  0.0
F  F200  1  0.66948691  0.82480474  0.45364219  1  -0.622936  7.1e-05  -0.086944  -0.19506  1e-05  1.358077  0.0
F  F201  1  0.84508309  0.17505127  0.04651510  1  -0.623985  7.1e-05  -0.086258  -0.194156  1e-05  1.359957  0.0
F  F202  1  0.32517997  0.07860146  0.47113061  1  -0.614194  0.000102  -0.098798  -0.20075  6.3e-05  1.337979  0.0
F  F203  1  0.24623359  0.92147248  0.02878208  1  -0.615209  0.000102  -0.098044  -0.199279  6.4e-05  1.337589  0.0
F  F204  1  0.67480944  0.92140007  0.52886880  1  -0.614121  0.000102  -0.098846  -0.200832  6.3e-05  1.337928  0.0
F  F205  1  0.75374132  0.07851910  0.97121986  1  -0.61517  0.000102  -0.09805  -0.199258  6.4e-05  1.337636  0.0
F  F206  1  0.12777904  0.92953308  0.70141141  1  -0.622417  4.3e-05  -0.098175  -0.207724  2e-05  1.347774  0.0
F  F207  1  0.19770123  0.07001578  0.79863115  1  -0.620153  4.3e-05  -0.098643  -0.207915  1.9e-05  1.347524  0.0
F  F208  1  0.87224550  0.07048152  0.29858840  1  -0.622221  4.3e-05  -0.09821  -0.207867  2e-05  1.347637  0.0
F  F209  1  0.80227738  0.92999135  0.20137726  1  -0.620153  4.3e-05  -0.098626  -0.207964  2e-05  1.347261  0.0
F  F210  1  0.89913328  0.94882198  0.64408788  1  -0.621911  1.3e-05  -0.091693  -0.195657  -0.0  1.351979  0.0
F  F211  1  0.94987820  0.05079736  0.85592428  1  -0.6178  1.1e-05  -0.091768  -0.195254  -1e-06  1.35309  0.0
F  F212  1  0.10085941  0.05117519  0.35591670  1  -0.621472  1.3e-05  -0.091697  -0.195726  -0.0  1.351905  0.0
F  F213  1  0.05009239  0.94919920  0.14407889  1  -0.617848  1.1e-05  -0.091757  -0.195226  -1e-06  1.35319  0.0
F  F214  1  0.12434595  0.05402156  0.67561743  1  -0.619749  5.2e-05  -0.091846  -0.197899  2.2e-05  1.361205  0.0
F  F215  1  0.07003130  0.94557941  0.82449486  1  -0.61872  5.3e-05  -0.091035  -0.196704  2.2e-05  1.362569  0.0
F  F216  1  0.87563264  0.94598557  0.32437962  1  -0.619585  5.2e-05  -0.091932  -0.198028  2.2e-05  1.361316  0.0
F  F217  1  0.92996041  0.05442398  0.17550558  1  -0.618835  5.3e-05  -0.091047  -0.196684  2.2e-05  1.362755  0.0
