# generated using pymatgen
data_CuH10C13(N3Cl)2
_symmetry_space_group_name_H-M   'P 1'
_cell_length_a   8.49766889
_cell_length_b   9.25078031
_cell_length_c   10.34948506
_cell_angle_alpha   88.65202506
_cell_angle_beta   72.83937636
_cell_angle_gamma   65.52896843
_symmetry_Int_Tables_number   1
_chemical_formula_structural   CuH10C13(N3Cl)2
_chemical_formula_sum   'Cu2 H20 C26 N12 Cl4'
_cell_volume   702.95428624
_cell_formula_units_Z   2
loop_
 _symmetry_equiv_pos_site_id
 _symmetry_equiv_pos_as_xyz
  1  'x, y, z'
loop_
 _atom_site_type_symbol
 _atom_site_label
 _atom_site_symmetry_multiplicity
 _atom_site_fract_x
 _atom_site_fract_y
 _atom_site_fract_z
 _atom_site_occupancy
 _atom_site_hle17_ddec_charge
 _atom_site_hle17_ddec_spin_density
 _atom_site_hle17_ddec_sum_bond_order
 _atom_site_hle17_magmom
 _atom_site_hse06_10hf_ddec_charge
 _atom_site_hse06_10hf_ddec_spin_density
 _atom_site_hse06_10hf_ddec_sum_bond_order
 _atom_site_hse06_10hf_magmom
 _atom_site_hse06_ddec_charge
 _atom_site_hse06_ddec_spin_density
 _atom_site_hse06_ddec_sum_bond_order
 _atom_site_hse06_magmom
 _atom_site_pbe_cm5_charge
 _atom_site_pbe_ddec_charge
 _atom_site_pbe_ddec_spin_density
 _atom_site_pbe_ddec_sum_bond_order
 _atom_site_pbe_magmom
Cu  Cu0  1  0.28109411  0.34078613  0.30499677  1  0.734396  0.6384  1.924692  0.446  0.706312  0.739849  2.355691  0.565  0.799519  0.826169  2.276679  0.656  0.624927  0.653523  0.680937  2.407693  0.51
Cu  Cu1  1  0.71890483  0.65921372  0.69500387  1  0.73437  -0.638408  1.924866  -0.446  0.706224  -0.739829  2.355877  -0.565  0.799347  -0.826157  2.276888  -0.656  0.624921  0.653468  -0.680943  2.407839  -0.51
H  H2  1  0.03739144  0.25815542  0.59287206  1  0.11485  0.00018  0.969505  0.0  0.120846  0.00024  1.037867  0.0  0.12387  0.000164  1.036136  0.0  0.09777  0.118665  0.000301  1.039258  0.0
H  H3  1  0.96261121  0.74184442  0.40712864  1  0.114845  -0.000181  0.969489  0.0  0.120839  -0.00024  1.037854  0.0  0.123864  -0.000164  1.036122  0.0  0.097771  0.118656  -0.000301  1.039244  0.0
H  H4  1  0.94274678  0.07494830  0.74866259  1  0.080987  1.1e-05  0.994059  0.0  0.09038  -1.9e-05  1.059306  0.0  0.091731  -1.7e-05  1.061372  0.0  0.091975  0.089473  -2.3e-05  1.057812  0.0
H  H5  1  0.05725350  0.92505392  0.25134154  1  0.08099  -9e-06  0.994068  0.0  0.09038  1.9e-05  1.059313  0.0  0.091732  1.7e-05  1.061377  0.0  0.091994  0.089473  2.3e-05  1.05782  0.0
H  H6  1  0.11143449  0.78263491  0.69926384  1  0.095699  0.000304  0.965331  0.0  0.105894  0.000346  1.027128  0.0  0.109173  0.000293  1.025237  0.0  0.094501  0.103609  0.000363  1.028603  0.0
H  H7  1  0.88856512  0.21736612  0.30073950  1  0.09571  -0.000305  0.965326  0.0  0.105909  -0.000346  1.027117  0.0  0.109175  -0.000293  1.025241  0.0  0.094507  0.103628  -0.000363  1.028594  0.0
H  H8  1  0.38840530  0.65552981  0.49983271  1  0.118071  0.00018  0.983129  0.0  0.120776  0.000178  1.056613  0.0  0.125005  0.000127  1.052885  0.0  0.097746  0.117818  0.000215  1.059326  0.0
H  H9  1  0.61159298  0.34446885  0.50016811  1  0.118081  -0.000179  0.983135  0.0  0.120793  -0.000178  1.056603  0.0  0.12502  -0.000126  1.052877  0.0  0.097757  0.117834  -0.000215  1.059317  0.0
H  H10  1  0.69920990  0.62653737  0.28012223  1  0.115464  -0.000857  0.942314  0.0  0.127197  -0.000867  1.005918  0.0  0.130632  -0.00071  1.002261  0.0  0.127758  0.124401  -0.0009  1.0089  0.0
H  H11  1  0.30079085  0.37346128  0.71987703  1  0.115452  0.000858  0.942332  0.0  0.127204  0.000867  1.005907  0.0  0.130641  0.00071  1.002252  0.0  0.12776  0.124417  0.0009  1.008877  0.0
H  H12  1  0.70213247  0.73963287  0.13361795  1  0.110483  -0.000338  0.916358  0.0  0.121714  -0.000345  0.979324  0.0  0.124188  -0.000291  0.97656  0.0  0.134031  0.119485  -0.000322  0.981773  0.0
H  H13  1  0.29787017  0.26036697  0.86638082  1  0.110468  0.00034  0.916393  0.0  0.121707  0.000345  0.979346  0.0  0.124181  0.000291  0.976585  0.0  0.134024  0.119474  0.000322  0.9818  0.0
H  H14  1  0.08417201  0.57403762  0.07835235  1  0.113887  -4.3e-05  0.97338  0.0  0.122617  9e-06  1.036598  0.0  0.126482  -1.8e-05  1.033994  0.0  0.095543  0.119947  2.8e-05  1.038392  0.0
H  H15  1  0.91582578  0.42596462  0.92164852  1  0.113873  4.2e-05  0.97337  0.0  0.122601  -9e-06  1.036591  0.0  0.126467  1.9e-05  1.033988  0.0  0.095528  0.119931  -2.8e-05  1.038385  0.0
H  H16  1  0.03499993  0.79308838  0.92833969  1  0.096347  -0.001557  0.993526  0.0  0.109421  -0.001453  1.052183  0.0  0.112713  -0.001111  1.050637  0.0  0.089854  0.107212  -0.001688  1.053186  -0.001
H  H17  1  0.96499424  0.20691626  0.07166201  1  0.096272  0.001558  0.993571  0.0  0.109364  0.001453  1.052218  0.0  0.112658  0.00111  1.050671  0.0  0.08981  0.107157  0.001688  1.053226  0.001
H  H18  1  0.21318249  0.95373910  0.89478628  1  0.091312  -4.4e-05  0.963869  0.0  0.097473  -1.3e-05  1.033329  0.0  0.100025  -1e-06  1.032916  0.0  0.099514  0.095469  -2.9e-05  1.034191  0.0
H  H19  1  0.78681407  0.04626315  0.10521489  1  0.091352  4.3e-05  0.963834  0.0  0.097479  1.3e-05  1.033337  0.0  0.100031  1e-06  1.032925  0.0  0.099509  0.095473  2.9e-05  1.034205  0.0
H  H20  1  0.44072896  0.90772989  0.01469056  1  0.114314  0.000197  0.972867  0.0  0.116945  0.000162  1.048222  0.0  0.120525  0.00013  1.045467  0.0  0.100902  0.114235  0.000182  1.05069  0.0
H  H21  1  0.55927368  0.09226996  0.98530724  1  0.114329  -0.000196  0.972877  0.0  0.116981  -0.000162  1.048174  0.0  0.120561  -0.00013  1.045417  0.0  0.100909  0.114269  -0.000181  1.050642  0.0
C  C22  1  0.26875403  0.05637544  0.46104182  1  0.120154  -0.000652  3.795191  0.0  0.120344  0.000488  4.043249  0.001  0.122532  -0.000313  4.066567  0.0  0.095555  0.119185  0.001121  4.027586  0.002
C  C23  1  0.73124722  0.94361963  0.53895932  1  0.120322  0.000647  3.794859  0.0  0.120466  -0.000489  4.042971  -0.001  0.122652  0.000316  4.06629  0.0  0.095604  0.119308  -0.00112  4.027299  -0.002
C  C24  1  0.11363044  0.12875080  0.57529438  1  -0.117156  0.003062  3.710046  0.003  -0.138514  0.000775  3.958919  0.001  -0.140294  0.000861  3.978899  0.001  -0.08736  -0.137138  0.000735  3.945075  0.001
C  C25  1  0.88637154  0.87124785  0.42470554  1  -0.117173  -0.003035  3.709947  -0.003  -0.138516  -0.000775  3.95883  -0.001  -0.140297  -0.000862  3.97881  -0.001  -0.087365  -0.137136  -0.000735  3.944977  -0.001
C  C26  1  0.06314351  0.02591858  0.65934940  1  -0.063984  -0.002359  3.739555  -0.002  -0.079137  -0.00069  3.991227  -0.001  -0.082344  -0.000803  4.015036  -0.001  -0.09289  -0.076877  -0.000564  3.974977  0.0
C  C27  1  0.93685610  0.97408246  0.34065395  1  -0.06401  0.002334  3.73961  0.002  -0.079166  0.000691  3.991296  0.001  -0.08237  0.000803  4.015097  0.001  -0.092902  -0.076908  0.000564  3.975051  0.0
C  C28  1  0.16118193  0.85763609  0.63232667  1  -0.034153  0.002433  3.716101  0.002  -0.049707  0.000864  3.964337  0.001  -0.051257  0.000958  3.98673  0.001  -0.081871  -0.04848  0.000778  3.949539  0.001
C  C29  1  0.83881948  0.14236375  0.36767530  1  -0.034137  -0.00241  3.716062  -0.002  -0.049686  -0.000865  3.964296  -0.001  -0.051226  -0.000958  3.986694  -0.001  -0.081857  -0.048463  -0.000778  3.94951  -0.001
C  C30  1  0.31545356  0.78478378  0.52061706  1  -0.134855  -0.000427  3.73518  -0.001  -0.1569  -7e-06  3.995377  0.0  -0.1617  -0.000308  4.01634  -0.001  -0.092166  -0.153614  0.000293  3.981242  0.0
C  C31  1  0.68454596  0.21521487  0.47938442  1  -0.134846  0.000406  3.735147  0.001  -0.156884  6e-06  3.995349  0.0  -0.161683  0.000308  4.016308  0.001  -0.092165  -0.153596  -0.000292  3.98122  0.0
C  C32  1  0.36610905  0.88828060  0.43542839  1  0.102566  0.003387  3.766936  0.004  0.084271  0.001812  4.018569  0.002  0.088948  0.001616  4.039467  0.002  0.103854  0.081394  0.001897  4.004031  0.002
C  C33  1  0.63388981  0.11171687  0.56457135  1  0.102528  -0.003378  3.766711  -0.004  0.08422  -0.00181  4.018405  -0.002  0.088895  -0.001617  4.03931  -0.002  0.103827  0.081344  -0.001897  4.00386  -0.002
C  C34  1  0.61717481  0.71408462  0.22532770  1  0.071054  0.000755  3.576462  0.001  -0.009926  0.000387  3.818648  0.0  -0.00146  0.000388  3.823445  0.0  0.072963  -0.014863  0.000267  3.815527  0.0
C  C35  1  0.38282717  0.28591403  0.77467028  1  0.071066  -0.000763  3.57644  -0.001  -0.009955  -0.000388  3.818706  0.0  -0.001478  -0.000388  3.823473  0.0  0.072961  -0.014895  -0.000267  3.815573  0.0
C  C36  1  0.29245629  0.61729186  0.12903970  1  0.120582  0.000191  3.791099  0.0  0.12195  0.001129  4.040699  0.001  0.124463  0.000374  4.064228  0.0  0.09571  0.120622  0.001718  4.024893  0.002
C  C37  1  0.70754404  0.38271276  0.87095954  1  0.120541  -0.000201  3.79119  0.0  0.121871  -0.00113  4.040836  -0.001  0.124381  -0.000373  4.064364  0.0  0.095708  0.120543  -0.001718  4.025033  -0.002
C  C38  1  0.16011621  0.64641026  0.06427773  1  -0.123272  0.002396  3.714652  0.002  -0.145552  0.000383  3.964084  0.001  -0.147464  0.000505  3.982945  0.001  -0.091101  -0.144386  0.000348  3.951325  0.0
C  C39  1  0.83988159  0.35359198  0.93572411  1  -0.123271  -0.002375  3.714515  -0.002  -0.145548  -0.000385  3.96397  -0.001  -0.14746  -0.000506  3.98283  -0.001  -0.091088  -0.144381  -0.000348  3.951215  0.0
C  C40  1  0.13519907  0.76863251  0.98134151  1  -0.070971  -0.004103  3.746839  -0.004  -0.086778  -0.002586  3.997647  -0.003  -0.089749  -0.002158  4.019595  -0.002  -0.092447  -0.084752  -0.002846  3.982984  -0.003
C  C41  1  0.86479864  0.23136735  0.01866039  1  -0.070886  0.004084  3.746806  0.004  -0.086694  0.002587  3.997583  0.003  -0.089667  0.002158  4.019531  0.002  -0.092416  -0.084669  0.002846  3.982929  0.003
C  C42  1  0.23575569  0.86111125  0.96301686  1  -0.040538  0.001935  3.73441  0.002  -0.059812  0.000542  3.994816  0.0  -0.061949  0.000688  4.018017  0.001  -0.082146  -0.058506  0.00041  3.980165  0.0
C  C43  1  0.76424390  0.13888980  0.03698166  1  -0.040572  -0.001915  3.734499  -0.002  -0.059817  -0.000541  3.994871  0.0  -0.061953  -0.000688  4.018077  -0.001  -0.082133  -0.058512  -0.00041  3.980223  0.0
C  C44  1  0.36416237  0.83618901  0.02841139  1  -0.140669  -0.000574  3.75392  -0.001  -0.167059  -7.6e-05  4.026983  0.0  -0.170943  -0.000255  4.046835  -0.001  -0.092852  -0.164627  8.3e-05  4.013956  0.0
C  C45  1  0.63583845  0.16381204  0.97158490  1  -0.140687  0.000553  3.753992  0.001  -0.167084  7.4e-05  4.027096  0.0  -0.170955  0.000255  4.046914  0.001  -0.092847  -0.164651  -8.2e-05  4.014068  0.0
C  C46  1  0.39096360  0.71148583  0.11069725  1  0.092355  0.002999  3.776571  0.003  0.074704  0.001705  4.029309  0.002  0.079257  0.001504  4.049494  0.002  0.101485  0.072061  0.001806  4.015207  0.002
C  C47  1  0.60904035  0.28851640  0.88929922  1  0.092325  -0.002985  3.776735  -0.003  0.074687  -0.001704  4.029464  -0.002  0.07924  -0.001506  4.049655  -0.002  0.101468  0.072043  -0.001805  4.015362  -0.002
N  N48  1  0.49997229  0.86330599  0.31324790  1  -0.011779  0.001474  3.495185  0.002  0.066652  0.002562  3.730266  0.004  0.054595  0.001424  3.752703  0.002  -0.122051  0.074695  0.003543  3.714656  0.005
N  N49  1  0.50002715  0.13669028  0.68675269  1  -0.011811  -0.001479  3.495161  -0.002  0.066625  -0.002564  3.730265  -0.004  0.054571  -0.00142  3.752704  -0.002  -0.121998  0.074664  -0.003544  3.714657  -0.005
N  N50  1  0.48690521  0.00306199  0.26453912  1  -0.051883  -0.002823  2.863363  -0.004  -0.053178  0.001709  3.145581  0.001  -0.045303  0.000135  3.158381  -0.001  -0.064588  -0.058174  0.003075  3.137959  0.002
N  N51  1  0.51309291  0.99693190  0.73546183  1  -0.051859  0.002819  2.863371  0.004  -0.053149  -0.001711  3.145563  -0.001  -0.045275  -0.000137  3.158353  0.001  -0.064629  -0.058147  -0.003074  3.137939  -0.002
N  N52  1  0.35163991  0.11838974  0.35327975  1  -0.215316  0.066533  3.289364  0.081  -0.183293  0.048949  3.611663  0.063  -0.207352  0.041481  3.628194  0.056  -0.227143  -0.17004  0.052475  3.603198  0.065
N  N53  1  0.64836009  0.88160534  0.64671879  1  -0.215409  -0.066527  3.28944  -0.081  -0.183343  -0.048951  3.611733  -0.063  -0.207381  -0.041484  3.628235  -0.056  -0.227195  -0.170096  -0.052477  3.603255  -0.065
N  N54  1  0.50526831  0.64945216  0.18808209  1  -0.008477  0.001112  3.500471  0.002  0.071032  0.002129  3.732429  0.003  0.058796  0.00122  3.755119  0.002  -0.119287  0.07896  0.002897  3.71694  0.004
N  N55  1  0.49473555  0.35054768  0.81191445  1  -0.008505  -0.001117  3.500514  -0.002  0.071005  -0.002126  3.732468  -0.003  0.058768  -0.00122  3.755165  -0.002  -0.119353  0.078931  -0.002897  3.716981  -0.004
N  N56  1  0.47980115  0.52845564  0.25166542  1  -0.026657  -0.002885  2.854435  -0.004  -0.028323  0.001144  3.135144  0.001  -0.018046  -7.6e-05  3.146446  -0.001  -0.058145  -0.035136  0.002234  3.128745  0.002
N  N57  1  0.52020222  0.47154779  0.74833020  1  -0.02667  0.002877  2.854494  0.004  -0.028336  -0.001146  3.135185  -0.001  -0.018061  7.4e-05  3.14648  0.001  -0.058127  -0.03515  -0.002234  3.128785  -0.002
N  N58  1  0.35436265  0.50740132  0.21636501  1  -0.229191  0.057249  3.262743  0.069  -0.196676  0.043362  3.584108  0.056  -0.22135  0.0369  3.600546  0.05  -0.225537  -0.18319  0.046516  3.575996  0.058
N  N59  1  0.64563826  0.49260210  0.78363508  1  -0.22903  -0.057241  3.262773  -0.069  -0.196482  -0.043365  3.584104  -0.056  -0.221135  -0.036899  3.600515  -0.05  -0.22548  -0.183003  -0.046517  3.575981  -0.058
Cl  Cl60  1  0.17918268  0.28666908  0.14134314  1  -0.524306  0.113891  0.925411  0.128  -0.511828  0.076408  1.203526  0.091  -0.543437  0.06016  1.179526  0.075  -0.302401  -0.491778  0.085274  1.220881  0.099
Cl  Cl61  1  0.82081321  0.71333199  0.85865628  1  -0.524324  -0.113885  0.925456  -0.128  -0.511824  -0.076412  1.203574  -0.091  -0.543409  -0.060162  1.179571  -0.075  -0.30241  -0.491785  -0.085276  1.220919  -0.099
Cl  Cl62  1  0.22034341  0.45243821  0.51450201  1  -0.49932  0.1509  0.976081  0.168  -0.511868  0.094869  1.287962  0.113  -0.549845  0.073187  1.265445  0.091  -0.292103  -0.489213  0.106141  1.305476  0.123
Cl  Cl63  1  0.77965316  0.54756403  0.48550302  1  -0.499329  -0.150895  0.97615  -0.168  -0.51185  -0.094877  1.288018  -0.113  -0.549792  -0.073194  1.265478  -0.091  -0.292095  -0.489201  -0.106132  1.305524  -0.123
