# generated using pymatgen
data_NaH10C5BrO6
_symmetry_space_group_name_H-M   'P 1'
_cell_length_a   6.00865964
_cell_length_b   6.00863570
_cell_length_c   25.76929437
_cell_angle_alpha   89.99984195
_cell_angle_beta   90.00004113
_cell_angle_gamma   104.61325047
_symmetry_Int_Tables_number   1
_chemical_formula_structural   NaH10C5BrO6
_chemical_formula_sum   'Na4 H40 C20 Br4 O24'
_cell_volume   900.27395733
_cell_formula_units_Z   4
loop_
 _symmetry_equiv_pos_site_id
 _symmetry_equiv_pos_as_xyz
  1  'x, y, z'
loop_
 _atom_site_type_symbol
 _atom_site_label
 _atom_site_symmetry_multiplicity
 _atom_site_fract_x
 _atom_site_fract_y
 _atom_site_fract_z
 _atom_site_occupancy
 _atom_site_hle17_bader_spin_density
 _atom_site_hle17_ddec_charge
 _atom_site_hle17_ddec_spin_density
 _atom_site_hle17_ddec_sum_bond_order
 _atom_site_hle17_magmom
 _atom_site_hse06_10hf_bader_spin_density
 _atom_site_hse06_10hf_ddec_charge
 _atom_site_hse06_10hf_ddec_spin_density
 _atom_site_hse06_10hf_ddec_sum_bond_order
 _atom_site_hse06_10hf_magmom
 _atom_site_hse06_bader_spin_density
 _atom_site_hse06_ddec_charge
 _atom_site_hse06_ddec_spin_density
 _atom_site_hse06_ddec_sum_bond_order
 _atom_site_hse06_magmom
 _atom_site_pbe_bader_spin_density
 _atom_site_pbe_cm5_charge
 _atom_site_pbe_ddec_charge
 _atom_site_pbe_ddec_spin_density
 _atom_site_pbe_ddec_sum_bond_order
 _atom_site_pbe_magmom
Na  Na0  1  0.75277519  0.75277668  0.49999992  1  0  0.89839  0  0.388727  0  0  0.850981  0  0.548134  0  0  0.861372  0  0.525991  0  0  0.681125  0.843468  0  0.563816  0
Na  Na1  1  0.24722523  0.24722502  0.00000072  1  0  0.898417  0  0.388707  0  0  0.851009  0  0.548091  0  0  0.861385  0  0.525976  0  0  0.681124  0.84349  0  0.563775  0
Na  Na2  1  0.99147989  0.00851465  0.75000004  1  0  0.901092  0  0.378975  0  0  0.854966  0  0.535712  0  0  0.86372  0  0.515802  0  0  0.580159  0.848398  0  0.550101  0
Na  Na3  1  0.00851563  0.99148415  0.24999954  1  0  0.901097  0  0.378963  0  0  0.85497  0  0.535707  0  0  0.863721  0  0.515799  0  0  0.580172  0.848399  0  0.550097  0
H  H4  1  0.96413304  0.18315839  0.55982636  1  0  0.084501  0  0.941518  0  0  0.087664  0  1.010702  0  0  0.090145  0  1.008046  0  0  0.121482  0.085657  0  1.013031  0
H  H5  1  0.18316276  0.96413686  0.44017279  1  0  0.0845  0  0.941593  0  0  0.087652  0  1.010764  0  0  0.09013  0  1.008111  0  0  0.121497  0.085647  0  1.013091  0
H  H6  1  0.81684045  0.03587003  0.94017287  1  0  0.084566  0  0.941535  0  0  0.087695  0  1.010712  0  0  0.090175  0  1.008059  0  0  0.121499  0.085689  0  1.013041  0
H  H7  1  0.03586442  0.81683746  0.05982714  1  0  0.084501  0  0.94157  0  0  0.087663  0  1.010725  0  0  0.090142  0  1.008071  0  0  0.121504  0.085657  0  1.013052  0
H  H8  1  0.60926682  0.24101965  0.77099314  1  0  0.402016  0  0.896608  0  0  0.376782  0  0.957947  0  0  0.385776  0  0.944715  0  0  0.26989  0.37039  0  0.96735  0
H  H9  1  0.24101879  0.60926993  0.22900687  1  0  0.402072  0  0.896528  0  0  0.376836  0  0.957869  0  0  0.385831  0  0.944636  0  0  0.269913  0.370442  0  0.967274  0
H  H10  1  0.75897864  0.39071706  0.72900748  1  0  0.402024  0  0.896728  0  0  0.376817  0  0.957908  0  0  0.38581  0  0.944679  0  0  0.269906  0.370432  0  0.967299  0
H  H11  1  0.39071541  0.75897895  0.27099324  1  0  0.402001  0  0.896825  0  0  0.376797  0  0.957948  0  0  0.385788  0  0.944721  0  0  0.269899  0.370411  0  0.96734  0
H  H12  1  0.22168733  0.63208842  0.77155334  1  0  0.398222  0  0.905056  0  0  0.370118  0  0.969015  0  0  0.379654  0  0.954792  0  0  0.266088  0.363311  0  0.979174  0
H  H13  1  0.63208835  0.22169160  0.22844434  1  0  0.398155  0  0.905119  0  0  0.370043  0  0.969115  0  0  0.379579  0  0.954892  0  0  0.266055  0.363233  0  0.979279  0
H  H14  1  0.36791137  0.77831088  0.72844619  1  0  0.398239  0  0.905016  0  0  0.370133  0  0.968986  0  0  0.379669  0  0.954764  0  0  0.2661  0.36333  0  0.979141  0
H  H15  1  0.77831162  0.36791701  0.27155103  1  0  0.398212  0  0.905019  0  0  0.370103  0  0.969024  0  0  0.37964  0  0.954799  0  0  0.266091  0.363304  0  0.979171  0
H  H16  1  0.59623266  0.80482914  0.60096385  1  0  0.349335  0  0.932088  0  0  0.321324  0  1.016656  0  0  0.331857  0  1.005043  0  0  0.263066  0.313915  0  1.024703  0
H  H17  1  0.80483234  0.59623440  0.39903679  1  0  0.349349  0  0.932037  0  0  0.321333  0  1.016619  0  0  0.331867  0  1.005001  0  0  0.26308  0.313924  0  1.024666  0
H  H18  1  0.19517409  0.40376607  0.89903575  1  0  0.349412  0  0.932112  0  0  0.321407  0  1.016677  0  0  0.331943  0  1.005059  0  0  0.263108  0.313997  0  1.024726  0
H  H19  1  0.40376403  0.19516967  0.10096509  1  0  0.349407  0  0.932066  0  0  0.321405  0  1.016624  0  0  0.331934  0  1.005017  0  0  0.263106  0.313995  0  1.024675  0
H  H20  1  0.23484797  0.76270842  0.53146407  1  0  0.390314  0  0.858869  0  0  0.365189  0  0.934658  0  0  0.374874  0  0.922577  0  0  0.31519  0.358307  0  0.943268  0
H  H21  1  0.76271261  0.23485015  0.46853513  1  0  0.390292  0  0.858919  0  0  0.365161  0  0.93473  0  0  0.374847  0  0.92265  0  0  0.315161  0.358276  0  0.943342  0
H  H22  1  0.23729017  0.76515469  0.96853541  1  0  0.390321  0  0.858878  0  0  0.365197  0  0.934661  0  0  0.374884  0  0.922579  0  0  0.315193  0.358313  0  0.94327  0
H  H23  1  0.76515281  0.23728775  0.03146456  1  0  0.390293  0  0.85889  0  0  0.365156  0  0.9347  0  0  0.37484  0  0.92262  0  0  0.315164  0.358271  0  0.943307  0
H  H24  1  0.32544981  0.37777730  0.68199413  1  0  0.347065  0  0.928202  0  0  0.321189  0  1.009422  0  0  0.330796  0  0.998374  0  0  0.269747  0.314313  0  1.017325  0
H  H25  1  0.37777189  0.32545092  0.31800592  1  0  0.346971  0  0.928342  0  0  0.321146  0  1.009451  0  0  0.330753  0  0.998406  0  0  0.26974  0.314275  0  1.017345  0
H  H26  1  0.62221778  0.67454367  0.81800554  1  0  0.347007  0  0.928329  0  0  0.321138  0  1.009531  0  0  0.330746  0  0.998484  0  0  0.269723  0.314261  0  1.017432  0
H  H27  1  0.67454691  0.62222057  0.18199474  1  0  0.347046  0  0.928205  0  0  0.321159  0  1.009454  0  0  0.330764  0  0.998409  0  0  0.269725  0.314281  0  1.017359  0
H  H28  1  0.48830417  0.08883359  0.63297388  1  0  0.085958  0  0.930319  0  0  0.089184  0  0.999633  0  0  0.091995  0  0.997078  0  0  0.119727  0.087041  0  1.001682  0
H  H29  1  0.08883477  0.48830500  0.36702503  1  0  0.085906  0  0.9304  0  0  0.089115  0  0.999658  0  0  0.091924  0  0.997103  0  0  0.119698  0.086975  0  1.001705  0
H  H30  1  0.91116534  0.51169071  0.86702675  1  0  0.085958  0  0.930298  0  0  0.089161  0  0.999645  0  0  0.091971  0  0.997091  0  0  0.119717  0.087019  0  1.001694  0
H  H31  1  0.51169253  0.91116486  0.13297545  1  0  0.085974  0  0.930343  0  0  0.089174  0  0.9996  0  0  0.091984  0  0.997046  0  0  0.119717  0.087034  0  1.00165  0
H  H32  1  0.10437493  0.85529282  0.62067874  1  0  0.058773  0  0.925959  0  0  0.062243  0  0.994098  0  0  0.064475  0  0.992134  0  0  0.105391  0.060507  0  0.995709  0
H  H33  1  0.85529597  0.10437383  0.37932086  1  0  0.058821  0  0.926048  0  0  0.062283  0  0.994197  0  0  0.064515  0  0.992232  0  0  0.105411  0.060546  0  0.995808  0
H  H34  1  0.14470879  0.89562688  0.87932066  1  0  0.058776  0  0.926024  0  0  0.062256  0  0.994168  0  0  0.064484  0  0.992202  0  0  0.105413  0.060518  0  0.995783  0
H  H35  1  0.89562510  0.14470576  0.12067931  1  0  0.058785  0  0.92599  0  0  0.062251  0  0.994154  0  0  0.064483  0  0.99219  0  0  0.105403  0.060516  0  0.995766  0
H  H36  1  0.02616131  0.44586661  0.63747754  1  0  0.068852  0  0.931253  0  0  0.078719  0  0.999394  0  0  0.079769  0  0.99837  0  0  0.099886  0.07783  0  1.000277  0
H  H37  1  0.44586822  0.02616269  0.36252101  1  0  0.068819  0  0.931287  0  0  0.078689  0  0.999443  0  0  0.079737  0  0.998422  0  0  0.099888  0.0778  0  1.000325  0
H  H38  1  0.55413111  0.97383651  0.86252121  1  0  0.068837  0  0.931235  0  0  0.078709  0  0.999368  0  0  0.079758  0  0.998347  0  0  0.099894  0.077821  0  1.00025  0
H  H39  1  0.97383872  0.55413177  0.13747902  1  0  0.068812  0  0.931301  0  0  0.07868  0  0.999452  0  0  0.079727  0  0.998431  0  0  0.099882  0.077791  0  1.000335  0
H  H40  1  0.87155953  0.15797032  0.64960414  1  0  0.062538  0  0.954195  0  0  0.07207  0  1.028054  0  0  0.072143  0  1.028239  0  0  0.101167  0.071781  0  1.028176  0
H  H41  1  0.15797501  0.87155982  0.35039466  1  0  0.062511  0  0.954192  0  0  0.072028  0  1.02808  0  0  0.072114  0  1.028252  0  0  0.101152  0.071738  0  1.028204  0
H  H42  1  0.84202842  0.12843606  0.85039428  1  0  0.062489  0  0.95418  0  0  0.072004  0  1.028073  0  0  0.07209  0  1.028239  0  0  0.10114  0.071713  0  1.028198  0
H  H43  1  0.12843884  0.84202792  0.14960531  1  0  0.062492  0  0.954203  0  0  0.072017  0  1.02807  0  0  0.072102  0  1.028243  0  0  0.101139  0.071726  0  1.028194  0
C  C44  1  0.49199915  0.28000644  0.56350626  1  0  0.608164  0  3.727216  0  0  0.554035  0  4.038116  0  0  0.586626  0  4.02829  0  0  0.242909  0.531787  0  4.04459  0
C  C45  1  0.28003405  0.49204023  0.43649804  1  0  0.608469  0  3.727501  0  0  0.554167  0  4.038491  0  0  0.586743  0  4.028673  0  0  0.243069  0.531922  0  4.044965  0
C  C46  1  0.71997913  0.50796667  0.93649856  1  0  0.608093  0  3.727868  0  0  0.554047  0  4.038608  0  0  0.586628  0  4.028798  0  0  0.243052  0.531797  0  4.045082  0
C  C47  1  0.50797117  0.71998084  0.06350407  1  0  0.608243  0  3.727676  0  0  0.554053  0  4.038536  0  0  0.586637  0  4.028716  0  0  0.242965  0.531806  0  4.04501  0
C  C48  1  0.44339050  0.05013005  0.59177680  1  0  0.033066  0  3.691828  0  0  0.011978  0  3.934808  0  0  0.012226  0  3.942659  0  0  -0.003532  0.011677  0  3.929544  0
C  C49  1  0.05012772  0.44339269  0.40822214  1  0  0.033029  0  3.691711  0  0  0.012185  0  3.934352  0  0  0.012442  0  3.942193  0  0  -0.003447  0.011876  0  3.929089  0
C  C50  1  0.94987583  0.55660941  0.90822344  1  0  0.033272  0  3.691406  0  0  0.012159  0  3.934421  0  0  0.012409  0  3.942271  0  0  -0.003435  0.011851  0  3.929157  0
C  C51  1  0.55660838  0.94987748  0.09177796  1  0  0.032911  0  3.691828  0  0  0.012072  0  3.93444  0  0  0.012325  0  3.94228  0  0  -0.003477  0.011764  0  3.929178  0
C  C52  1  0.18081408  0.96447358  0.58769410  1  0  0.153393  0  3.614829  0  0  0.124649  0  3.871069  0  0  0.129627  0  3.879128  0  0  -0.007213  0.121259  0  3.86558  0
C  C53  1  0.96447543  0.18081563  0.41230428  1  0  0.153312  0  3.614968  0  0  0.124481  0  3.871187  0  0  0.129454  0  3.879248  0  0  -0.007254  0.121094  0  3.865699  0
C  C54  1  0.03552524  0.81918815  0.91230528  1  0  0.153435  0  3.614842  0  0  0.124622  0  3.871114  0  0  0.129611  0  3.879175  0  0  -0.007264  0.121233  0  3.865625  0
C  C55  1  0.81918426  0.03552539  0.08769551  1  0  0.153506  0  3.614782  0  0  0.124646  0  3.871028  0  0  0.129622  0  3.87909  0  0  -0.007217  0.121257  0  3.865541  0
C  C56  1  0.10572182  0.18985209  0.58705987  1  0  0.108712  0  3.509326  0  0  0.079802  0  3.764328  0  0  0.085133  0  3.772398  0  0  0.002405  0.07622  0  3.758925  0
C  C57  1  0.18985463  0.10572174  0.41293989  1  0  0.108654  0  3.509474  0  0  0.079824  0  3.764366  0  0  0.08515  0  3.772441  0  0  0.002386  0.076239  0  3.758961  0
C  C58  1  0.81014681  0.89427858  0.91293940  1  0  0.108442  0  3.509583  0  0  0.079664  0  3.76444  0  0  0.08499  0  3.772518  0  0  0.002367  0.076074  0  3.759036  0
C  C59  1  0.89427819  0.81014688  0.08706040  1  0  0.108667  0  3.509458  0  0  0.079855  0  3.764368  0  0  0.085183  0  3.772444  0  0  0.002413  0.076268  0  3.758963  0
C  C60  1  0.04213662  0.26774873  0.63970583  1  0  0.076825  0  3.659739  0  0  0.015657  0  3.932529  0  0  0.021616  0  3.938887  0  0  -0.083319  0.011718  0  3.928108  0
C  C61  1  0.26775116  0.04213861  0.36029354  1  0  0.076947  0  3.659662  0  0  0.015748  0  3.93247  0  0  0.021699  0  3.938827  0  0  -0.083329  0.01181  0  3.92805  0
C  C62  1  0.73224939  0.95785889  0.86029338  1  0  0.077005  0  3.659626  0  0  0.015838  0  3.932369  0  0  0.021792  0  3.938725  0  0  -0.083295  0.011901  0  3.927945  0
C  C63  1  0.95786175  0.73224962  0.13970642  1  0  0.076978  0  3.659687  0  0  0.015816  0  3.932433  0  0  0.021766  0  3.938791  0  0  -0.083277  0.011881  0  3.928008  0
Br  Br64  1  0.65526797  0.67437922  0.67591900  1  0  -0.639384  0  0.843502  0  0  -0.574114  0  1.081463  0  0  -0.591214  0  1.058328  0  0  -0.229785  -0.561278  0  1.097551  0
Br  Br65  1  0.67438051  0.65526781  0.32408128  1  0  -0.639358  0  0.843464  0  0  -0.574112  0  1.081403  0  0  -0.591213  0  1.05827  0  0  -0.229794  -0.561282  0  1.09749  0
Br  Br66  1  0.32561670  0.34473013  0.82408107  1  0  -0.639373  0  0.843541  0  0  -0.574094  0  1.081515  0  0  -0.591197  0  1.05838  0  0  -0.229775  -0.561254  0  1.097605  0
Br  Br67  1  0.34473041  0.32561872  0.17591937  1  0  -0.63937  0  0.84354  0  0  -0.574083  0  1.08153  0  0  -0.591183  0  1.058398  0  0  -0.229767  -0.561238  0  1.097621  0
O  O68  1  0.74800219  0.25200541  0.74999878  1  0  -0.872925  0  1.8178  0  0  -0.832325  0  1.981739  0  0  -0.847561  0  1.952501  0  0  -0.664939  -0.821458  0  2.002365  0
O  O69  1  0.25201015  0.74800712  0.25000235  1  0  -0.872969  0  1.817866  0  0  -0.832375  0  1.981761  0  0  -0.847611  0  1.952525  0  0  -0.664956  -0.821507  0  2.002391  0
O  O70  1  0.23098926  0.76901162  0.75000013  1  0  -0.88018  0  1.811414  0  0  -0.838807  0  1.970723  0  0  -0.853374  0  1.939953  0  0  -0.678278  -0.82845  0  1.992548  0
O  O71  1  0.76901554  0.23099749  0.24999713  1  0  -0.8801  0  1.811449  0  0  -0.838708  0  1.970799  0  0  -0.853275  0  1.940031  0  0  -0.678243  -0.828351  0  1.99262  0
O  O72  1  0.67086219  0.38467784  0.54255805  1  0  -0.555084  0  1.980814  0  0  -0.519413  0  2.220769  0  0  -0.538358  0  2.209125  0  0  -0.315558  -0.506516  0  2.228761  0
O  O73  1  0.38466578  0.67084520  0.45743958  1  0  -0.555136  0  1.981931  0  0  -0.51936  0  2.22191  0  0  -0.538298  0  2.210271  0  0  -0.315613  -0.506474  0  2.229907  0
O  O74  1  0.61534068  0.32915460  0.95744176  1  0  -0.555051  0  1.982025  0  0  -0.519309  0  2.221846  0  0  -0.538242  0  2.210204  0  0  -0.31563  -0.506421  0  2.22984  0
O  O75  1  0.32915295  0.61533537  0.04256095  1  0  -0.555076  0  1.981811  0  0  -0.519331  0  2.221729  0  0  -0.538272  0  2.21009  0  0  -0.315563  -0.50644  0  2.229721  0
O  O76  1  0.56629630  0.89939623  0.57092807  1  0  -0.562192  0  2.124223  0  0  -0.517234  0  2.354305  0  0  -0.531815  0  2.342027  0  0  -0.43333  -0.506707  0  2.362679  0
O  O77  1  0.89939847  0.56629345  0.42907256  1  0  -0.562205  0  2.12429  0  0  -0.517299  0  2.354277  0  0  -0.531887  0  2.341997  0  0  -0.433378  -0.506765  0  2.362647  0
O  O78  1  0.10061261  0.43371183  0.92907226  1  0  -0.562398  0  2.124302  0  0  -0.517437  0  2.354361  0  0  -0.532022  0  2.342081  0  0  -0.433437  -0.506903  0  2.36273  0
O  O79  1  0.43370248  0.10060465  0.07092860  1  0  -0.562261  0  2.124422  0  0  -0.517372  0  2.354397  0  0  -0.531955  0  2.342122  0  0  -0.433397  -0.506837  0  2.362768  0
O  O80  1  0.11887347  0.84675178  0.53963655  1  0  -0.590563  0  2.041137  0  0  -0.548851  0  2.275568  0  0  -0.562381  0  2.26111  0  0  -0.451231  -0.539227  0  2.285508  0
O  O81  1  0.84675317  0.11887469  0.46036265  1  0  -0.590527  0  2.0411  0  0  -0.548803  0  2.275528  0  0  -0.562334  0  2.261072  0  0  -0.451223  -0.539176  0  2.285465  0
O  O82  1  0.15324961  0.88113024  0.96036246  1  0  -0.590585  0  2.041133  0  0  -0.54888  0  2.275602  0  0  -0.562413  0  2.261143  0  0  -0.451255  -0.539251  0  2.285538  0
O  O83  1  0.88112608  0.15324602  0.03963750  1  0  -0.590578  0  2.041059  0  0  -0.548879  0  2.275573  0  0  -0.562408  0  2.261119  0  0  -0.451235  -0.539248  0  2.285506  0
O  O84  1  0.30404292  0.36202631  0.56474606  1  0  -0.323577  0  2.198697  0  0  -0.261758  0  2.438168  0  0  -0.282453  0  2.435174  0  0  -0.152715  -0.247665  0  2.439975  0
O  O85  1  0.36203199  0.30404958  0.43525399  1  0  -0.323758  0  2.19843  0  0  -0.261957  0  2.437979  0  0  -0.282636  0  2.434973  0  0  -0.152814  -0.247853  0  2.439776  0
O  O86  1  0.63797025  0.69594704  0.93525399  1  0  -0.323587  0  2.198548  0  0  -0.261883  0  2.438049  0  0  -0.282573  0  2.435042  0  0  -0.152777  -0.247768  0  2.439841  0
O  O87  1  0.69595253  0.63797465  0.06474706  1  0  -0.323606  0  2.19851  0  0  -0.261891  0  2.438067  0  0  -0.282569  0  2.435043  0  0  -0.152773  -0.247787  0  2.439864  0
O  O88  1  0.19428113  0.24010885  0.68049044  1  0  -0.580112  0  2.095957  0  0  -0.526666  0  2.327062  0  0  -0.542591  0  2.315727  0  0  -0.459291  -0.515336  0  2.334878  0
O  O89  1  0.24010614  0.19428078  0.31950890  1  0  -0.580052  0  2.096033  0  0  -0.526628  0  2.327135  0  0  -0.542555  0  2.315806  0  0  -0.459303  -0.515302  0  2.334944  0
O  O90  1  0.75988599  0.80571033  0.81950885  1  0  -0.58007  0  2.09603  0  0  -0.526626  0  2.327122  0  0  -0.542554  0  2.315794  0  0  -0.459264  -0.515295  0  2.334933  0
O  O91  1  0.80571558  0.75988903  0.18049137  1  0  -0.580163  0  2.09592  0  0  -0.52672  0  2.32703  0  0  -0.542645  0  2.3157  0  0  -0.459318  -0.515387  0  2.334845  0
