# generated using pymatgen
data_CuH11C13IN
_symmetry_space_group_name_H-M   'P 1'
_cell_length_a   4.00600100
_cell_length_b   15.75717289
_cell_length_c   18.99707518
_cell_angle_alpha   104.09846495
_cell_angle_beta   89.99872515
_cell_angle_gamma   90.00052187
_symmetry_Int_Tables_number   1
_chemical_formula_structural   CuH11C13IN
_chemical_formula_sum   'Cu4 H44 C52 I4 N4'
_cell_volume   1163.03677020
_cell_formula_units_Z   4
loop_
 _symmetry_equiv_pos_site_id
 _symmetry_equiv_pos_as_xyz
  1  'x, y, z'
loop_
 _atom_site_type_symbol
 _atom_site_label
 _atom_site_symmetry_multiplicity
 _atom_site_fract_x
 _atom_site_fract_y
 _atom_site_fract_z
 _atom_site_occupancy
 _atom_site_hle17_bader_spin_density
 _atom_site_hle17_ddec_charge
 _atom_site_hle17_ddec_spin_density
 _atom_site_hle17_ddec_sum_bond_order
 _atom_site_hle17_magmom
 _atom_site_hse06_10hf_bader_spin_density
 _atom_site_hse06_10hf_ddec_charge
 _atom_site_hse06_10hf_ddec_spin_density
 _atom_site_hse06_10hf_ddec_sum_bond_order
 _atom_site_hse06_10hf_magmom
 _atom_site_hse06_bader_spin_density
 _atom_site_hse06_ddec_charge
 _atom_site_hse06_ddec_spin_density
 _atom_site_hse06_ddec_sum_bond_order
 _atom_site_hse06_magmom
 _atom_site_pbe_bader_spin_density
 _atom_site_pbe_cm5_charge
 _atom_site_pbe_ddec_charge
 _atom_site_pbe_ddec_spin_density
 _atom_site_pbe_ddec_sum_bond_order
 _atom_site_pbe_magmom
Cu  Cu0  1  0.93804881  0.98523811  0.79252241  1  0  0.226656  0  2.225104  0  0  0.148042  0  2.712383  0  0  0.161169  0  2.653935  0  0  0.243496  0.14138  0  2.751511  0
Cu  Cu1  1  0.43805360  0.01476678  0.70748251  1  0  0.226794  0  2.225185  0  0  0.148152  0  2.71248  0  0  0.161303  0  2.654028  0  0  0.243494  0.141481  0  2.75159  0
Cu  Cu2  1  0.06193899  0.01475822  0.20747567  1  0  0.226729  0  2.225022  0  0  0.148144  0  2.712283  0  0  0.161294  0  2.653842  0  0  0.243536  0.141486  0  2.751405  0
Cu  Cu3  1  0.56193920  0.98523284  0.29251885  1  0  0.226708  0  2.22519  0  0  0.148085  0  2.712493  0  0  0.161205  0  2.654055  0  0  0.243495  0.141425  0  2.751597  0
H  H4  1  0.70359102  0.80128663  0.76866911  1  0  0.070011  0  0.963423  0  0  0.076206  0  1.035818  0  0  0.078886  0  1.033496  0  0  0.102066  0.074121  0  1.037661  0
H  H5  1  0.20352248  0.19872194  0.73133606  1  0  0.070133  0  0.963469  0  0  0.076322  0  1.035841  0  0  0.079004  0  1.033513  0  0  0.102152  0.074237  0  1.037682  0
H  H6  1  0.29646418  0.19870509  0.23132543  1  0  0.070167  0  0.963432  0  0  0.076351  0  1.035793  0  0  0.079031  0  1.033467  0  0  0.102125  0.074216  0  1.037682  0
H  H7  1  0.79641540  0.80128487  0.26866513  1  0  0.070052  0  0.963517  0  0  0.076264  0  1.035882  0  0  0.078948  0  1.03355  0  0  0.102064  0.074179  0  1.03772  0
H  H8  1  0.65833817  0.68904956  0.84041314  1  0  0.093934  0  0.968569  0  0  0.105621  0  1.030569  0  0  0.108541  0  1.030183  0  0  0.099847  0.103602  0  1.030894  0
H  H9  1  0.15826862  0.31095235  0.65958251  1  0  0.09392  0  0.968602  0  0  0.105562  0  1.030662  0  0  0.108523  0  1.030233  0  0  0.099802  0.103544  0  1.030984  0
H  H10  1  0.34175947  0.31094082  0.15957693  1  0  0.093916  0  0.968546  0  0  0.105596  0  1.030544  0  0  0.10856  0  1.030113  0  0  0.099848  0.10358  0  1.030868  0
H  H11  1  0.84167924  0.68905183  0.34041605  1  0  0.093894  0  0.96865  0  0  0.105586  0  1.030626  0  0  0.108509  0  1.03024  0  0  0.099836  0.103566  0  1.030952  0
H  H12  1  0.15938804  0.87146573  0.01621940  1  0  0.099402  0  0.987394  0  0  0.108265  0  1.053602  0  0  0.111622  0  1.052595  0  0  0.091043  0.105681  0  1.054684  0
H  H13  1  0.65935031  0.12853004  0.48377927  1  0  0.099507  0  0.987355  0  0  0.108367  0  1.053527  0  0  0.111723  0  1.052528  0  0  0.091078  0.105781  0  1.054611  0
H  H14  1  0.84065218  0.12853188  0.98377577  1  0  0.099665  0  0.987283  0  0  0.108497  0  1.053471  0  0  0.111853  0  1.052467  0  0  0.091131  0.105911  0  1.054559  0
H  H15  1  0.34062251  0.87147090  0.51622287  1  0  0.099506  0  0.987207  0  0  0.108374  0  1.053395  0  0  0.111724  0  1.052413  0  0  0.091091  0.10579  0  1.054475  0
H  H16  1  0.18751206  0.97399134  0.93679434  1  0  0.069657  0  0.962809  0  0  0.076721  0  1.032185  0  0  0.079546  0  1.029731  0  0  0.099609  0.074591  0  1.034006  0
H  H17  1  0.68745218  0.02601202  0.56321410  1  0  0.069545  0  0.962909  0  0  0.076543  0  1.03234  0  0  0.079361  0  1.029912  0  0  0.099551  0.074422  0  1.034134  0
H  H18  1  0.81250819  0.02600630  0.06320400  1  0  0.069551  0  0.962836  0  0  0.076618  0  1.032218  0  0  0.079443  0  1.02978  0  0  0.099589  0.074493  0  1.03402  0
H  H19  1  0.31251066  0.97399290  0.43679514  1  0  0.069642  0  0.962803  0  0  0.076708  0  1.032176  0  0  0.079534  0  1.029723  0  0  0.099629  0.074577  0  1.033997  0
H  H20  1  0.73426016  0.64516668  0.95188778  1  0  0.080477  0  0.974453  0  0  0.092494  0  1.039804  0  0  0.095293  0  1.038858  0  0  0.094533  0.090558  0  1.040534  0
H  H21  1  0.23420880  0.35482941  0.54810584  1  0  0.080498  0  0.974457  0  0  0.092457  0  1.039884  0  0  0.095245  0  1.038967  0  0  0.094547  0.090522  0  1.040614  0
H  H22  1  0.26580253  0.35482571  0.04810794  1  0  0.080508  0  0.974336  0  0  0.092435  0  1.039812  0  0  0.095237  0  1.038855  0  0  0.094541  0.090503  0  1.040543  0
H  H23  1  0.76572908  0.64517281  0.45189392  1  0  0.080588  0  0.974313  0  0  0.092537  0  1.039754  0  0  0.095342  0  1.038793  0  0  0.094568  0.0906  0  1.040482  0
H  H24  1  0.13401402  0.77326107  0.07050375  1  0  0.083281  0  0.997834  0  0  0.096913  0  1.059096  0  0  0.099396  0  1.057726  0  0  0.084328  0.09479  0  1.060479  0
H  H25  1  0.63398545  0.22673140  0.42949333  1  0  0.083262  0  0.997899  0  0  0.096873  0  1.059205  0  0  0.099395  0  1.057741  0  0  0.084308  0.094744  0  1.060603  0
H  H26  1  0.86603119  0.22673198  0.92949210  1  0  0.083227  0  0.997717  0  0  0.096834  0  1.059027  0  0  0.099374  0  1.057567  0  0  0.084238  0.094703  0  1.060421  0
H  H27  1  0.36597239  0.77327217  0.57051090  1  0  0.08324  0  0.997811  0  0  0.096821  0  1.05914  0  0  0.099308  0  1.05775  0  0  0.08429  0.094706  0  1.060523  0
H  H28  1  0.98859429  0.48687963  0.21493442  1  0  0.076895  0  0.986376  0  0  0.087725  0  1.051515  0  0  0.089964  0  1.050986  0  0  0.094215  0.086122  0  1.051956  0
H  H29  1  0.48860870  0.51311056  0.28505949  1  0  0.076865  0  0.986328  0  0  0.08776  0  1.051382  0  0  0.090015  0  1.050848  0  0  0.094203  0.086152  0  1.051819  0
H  H30  1  0.01141098  0.51311536  0.78506024  1  0  0.076939  0  0.986294  0  0  0.087764  0  1.051439  0  0  0.090009  0  1.050909  0  0  0.094209  0.086156  0  1.051874  0
H  H31  1  0.51141155  0.48689496  0.71494355  1  0  0.076851  0  0.986298  0  0  0.08773  0  1.051387  0  0  0.089992  0  1.05085  0  0  0.094203  0.086122  0  1.051824  0
H  H32  1  0.26234180  0.63300633  0.25607320  1  0  0.07684  0  0.968178  0  0  0.088969  0  1.028922  0  0  0.091251  0  1.028563  0  0  0.094499  0.087316  0  1.029293  0
H  H33  1  0.76238252  0.36698236  0.24392517  1  0  0.076803  0  0.968284  0  0  0.088997  0  1.02894  0  0  0.091267  0  1.028591  0  0  0.094497  0.087342  0  1.029319  0
H  H34  1  0.73764350  0.36698480  0.74392807  1  0  0.076793  0  0.968288  0  0  0.088964  0  1.028983  0  0  0.091238  0  1.028634  0  0  0.094469  0.087306  0  1.029362  0
H  H35  1  0.23764522  0.63301926  0.75607974  1  0  0.076741  0  0.968388  0  0  0.088983  0  1.028986  0  0  0.09124  0  1.028652  0  0  0.094478  0.087326  0  1.029364  0
H  H36  1  0.25786451  0.73661171  0.17668753  1  0  0.088313  0  0.976828  0  0  0.095163  0  1.048172  0  0  0.098052  0  1.047217  0  0  0.089104  0.092858  0  1.049145  0
H  H37  1  0.75791323  0.26338093  0.32331427  1  0  0.08837  0  0.976553  0  0  0.095135  0  1.047982  0  0  0.098055  0  1.047  0  0  0.089096  0.092831  0  1.048953  0
H  H38  1  0.74211330  0.26338669  0.82332254  1  0  0.088218  0  0.976871  0  0  0.095067  0  1.048234  0  0  0.097962  0  1.047275  0  0  0.089058  0.092761  0  1.049208  0
H  H39  1  0.24209454  0.73662267  0.67669313  1  0  0.088541  0  0.976477  0  0  0.095259  0  1.047934  0  0  0.098149  0  1.046975  0  0  0.089138  0.092954  0  1.048909  0
H  H40  1  0.69363333  0.55104612  0.01641558  1  0  0.085062  0  0.973176  0  0  0.098094  0  1.034303  0  0  0.100442  0  1.033593  0  0  0.098934  0.096409  0  1.034905  0
H  H41  1  0.19361724  0.44894639  0.48357912  1  0  0.085079  0  0.973148  0  0  0.098143  0  1.034245  0  0  0.100488  0  1.033529  0  0  0.098929  0.096457  0  1.034847  0
H  H42  1  0.30636945  0.44895346  0.98358050  1  0  0.085081  0  0.973297  0  0  0.098069  0  1.034466  0  0  0.100413  0  1.033755  0  0  0.098941  0.096387  0  1.035062  0
H  H43  1  0.80634310  0.55105908  0.51641812  1  0  0.085092  0  0.973179  0  0  0.09812  0  1.034314  0  0  0.100465  0  1.033604  0  0  0.09896  0.096435  0  1.034911  0
H  H44  1  0.70004025  0.44748709  0.09520814  1  0  0.078845  0  0.964571  0  0  0.090153  0  1.026743  0  0  0.092725  0  1.025863  0  0  0.094448  0.088301  0  1.027469  0
H  H45  1  0.20005105  0.55250546  0.40479023  1  0  0.078743  0  0.964404  0  0  0.090116  0  1.026535  0  0  0.092642  0  1.025707  0  0  0.094406  0.088262  0  1.027261  0
H  H46  1  0.29996502  0.55250988  0.90478796  1  0  0.0788  0  0.964578  0  0  0.090127  0  1.026742  0  0  0.092685  0  1.02588  0  0  0.09443  0.088277  0  1.027463  0
H  H47  1  0.79996171  0.44750069  0.59521030  1  0  0.07869  0  0.964454  0  0  0.090116  0  1.026518  0  0  0.09264  0  1.02569  0  0  0.094392  0.088273  0  1.027233  0
C  C48  1  0.80068270  0.81386000  0.82394069  1  0  0.125147  0  3.70416  0  0  0.097471  0  3.949754  0  0  0.105066  0  3.967334  0  0  0.034247  0.092427  0  3.938352  0
C  C49  1  0.30063695  0.18614931  0.67606364  1  0  0.125114  0  3.704121  0  0  0.097395  0  3.949687  0  0  0.105017  0  3.967281  0  0  0.034195  0.09234  0  3.938282  0
C  C50  1  0.19936252  0.18613566  0.17605621  1  0  0.124904  0  3.704217  0  0  0.097254  0  3.949779  0  0  0.104853  0  3.967359  0  0  0.034117  0.092249  0  3.938393  0
C  C51  1  0.69932339  0.81385752  0.32394018  1  0  0.124964  0  3.704446  0  0  0.097267  0  3.950022  0  0  0.104871  0  3.967609  0  0  0.034193  0.09222  0  3.938608  0
C  C52  1  0.77704244  0.75165885  0.86436395  1  0  -0.180724  0  3.728689  0  0  -0.195568  0  3.97034  0  0  -0.204688  0  3.991703  0  0  -0.092815  -0.18963  0  3.956018  0
C  C53  1  0.27699314  0.24834452  0.63563617  1  0  -0.180787  0  3.728874  0  0  -0.195563  0  3.970537  0  0  -0.204716  0  3.991873  0  0  -0.092882  -0.189627  0  3.956217  0
C  C54  1  0.22302524  0.24833090  0.13562916  1  0  -0.180721  0  3.728716  0  0  -0.195495  0  3.970399  0  0  -0.204654  0  3.991745  0  0  -0.092779  -0.189559  0  3.956063  0
C  C55  1  0.72296471  0.75166030  0.36436252  1  0  -0.180655  0  3.72879  0  0  -0.195456  0  3.970459  0  0  -0.204579  0  3.99182  0  0  -0.092791  -0.189519  0  3.956134  0
C  C56  1  0.90159966  0.76939396  0.93579773  1  0  0.140817  0  3.81075  0  0  0.155511  0  4.038858  0  0  0.163659  0  4.059786  0  0  0.001574  0.150183  0  4.024663  0
C  C57  1  0.40154719  0.23060958  0.56420657  1  0  0.140977  0  3.810749  0  0  0.155604  0  4.038929  0  0  0.163754  0  4.059865  0  0  0.001647  0.150273  0  4.024733  0
C  C58  1  0.09845304  0.23060172  0.06420128  1  0  0.141073  0  3.81054  0  0  0.155614  0  4.038837  0  0  0.163757  0  4.059777  0  0  0.001614  0.150287  0  4.024648  0
C  C59  1  0.59840815  0.76939723  0.43579515  1  0  0.140978  0  3.810398  0  0  0.15558  0  4.038627  0  0  0.163726  0  4.059555  0  0  0.00159  0.15025  0  4.024428  0
C  C60  1  0.05243872  0.85203327  0.96187655  1  0  -0.161155  0  3.697845  0  0  -0.175848  0  3.938252  0  0  -0.184418  0  3.959467  0  0  -0.089018  -0.170536  0  3.92458  0
C  C61  1  0.55238829  0.14796400  0.53812501  1  0  -0.161275  0  3.697925  0  0  -0.17593  0  3.938307  0  0  -0.184505  0  3.959517  0  0  -0.088999  -0.170619  0  3.924636  0
C  C62  1  0.94760400  0.14796041  0.03811785  1  0  -0.161566  0  3.698078  0  0  -0.176162  0  3.938458  0  0  -0.184735  0  3.959673  0  0  -0.089132  -0.170852  0  3.924791  0
C  C63  1  0.44757455  0.85203562  0.46187582  1  0  -0.161403  0  3.697617  0  0  -0.176066  0  3.938069  0  0  -0.184641  0  3.959272  0  0  -0.089084  -0.170757  0  3.9244  0
C  C64  1  0.06820090  0.91022009  0.91793429  1  0  0.117564  0  3.706894  0  0  0.090266  0  3.952801  0  0  0.097153  0  3.970639  0  0  0.030909  0.085668  0  3.941387  0
C  C65  1  0.56816878  0.08978771  0.58207400  1  0  0.117813  0  3.707277  0  0  0.090542  0  3.9531  0  0  0.097443  0  3.970962  0  0  0.031037  0.085941  0  3.941666  0
C  C66  1  0.93180437  0.08978344  0.08206625  1  0  0.11775  0  3.70733  0  0  0.090449  0  3.953185  0  0  0.097321  0  3.971042  0  0  0.03103  0.085857  0  3.941769  0
C  C67  1  0.43180404  0.91022110  0.41793232  1  0  0.117761  0  3.70681  0  0  0.090443  0  3.952724  0  0  0.09734  0  3.970563  0  0  0.030982  0.085843  0  3.941302  0
C  C68  1  0.87039311  0.70453658  0.97816740  1  0  -0.137078  0  3.744712  0  0  -0.155289  0  3.996446  0  0  -0.162051  0  4.016717  0  0  -0.099263  -0.15095  0  3.98288  0
C  C69  1  0.37034737  0.29545901  0.52182706  1  0  -0.137156  0  3.744879  0  0  -0.155303  0  3.996653  0  0  -0.162074  0  4.016927  0  0  -0.099241  -0.150961  0  3.983084  0
C  C70  1  0.12966209  0.29545578  0.02182463  1  0  -0.13719  0  3.74486  0  0  -0.155292  0  3.996649  0  0  -0.162055  0  4.016939  0  0  -0.099231  -0.150958  0  3.983089  0
C  C71  1  0.62960299  0.70454518  0.47817309  1  0  -0.137244  0  3.744389  0  0  -0.15536  0  3.99615  0  0  -0.16212  0  4.016417  0  0  -0.099292  -0.151017  0  3.982578  0
C  C72  1  0.99641294  0.71356942  0.04574310  1  0  -0.069983  0  3.728545  0  0  -0.09269  0  3.975059  0  0  -0.089988  0  3.993891  0  0  -0.083821  -0.09459  0  3.962768  0
C  C73  1  0.49637417  0.28642016  0.45425433  1  0  -0.069845  0  3.728847  0  0  -0.092533  0  3.975359  0  0  -0.089834  0  3.994195  0  0  -0.08381  -0.094432  0  3.963074  0
C  C74  1  0.00363976  0.28642563  0.95425735  1  0  -0.069859  0  3.728832  0  0  -0.092512  0  3.975325  0  0  -0.089846  0  3.994141  0  0  -0.083746  -0.094406  0  3.96304  0
C  C75  1  0.50357619  0.71358405  0.54574898  1  0  -0.069989  0  3.728514  0  0  -0.092568  0  3.975114  0  0  -0.089863  0  3.993953  0  0  -0.083812  -0.094484  0  3.962834  0
C  C76  1  0.98146510  0.53319270  0.18070254  1  0  -0.085324  0  3.785761  0  0  -0.09939  0  4.034069  0  0  -0.101034  0  4.055946  0  0  -0.097861  -0.098161  0  4.019101  0
C  C77  1  0.48149176  0.46679618  0.31929115  1  0  -0.085309  0  3.785334  0  0  -0.09943  0  4.033637  0  0  -0.101091  0  4.055508  0  0  -0.097906  -0.098193  0  4.01866  0
C  C78  1  0.01851770  0.46680364  0.81929660  1  0  -0.085317  0  3.785461  0  0  -0.099372  0  4.033748  0  0  -0.101025  0  4.055625  0  0  -0.097817  -0.098134  0  4.018768  0
C  C79  1  0.51853598  0.53320475  0.68071047  1  0  -0.085179  0  3.785373  0  0  -0.099291  0  4.033669  0  0  -0.100958  0  4.055541  0  0  -0.097926  -0.098055  0  4.018696  0
C  C80  1  0.13444609  0.61492479  0.20384014  1  0  -0.076263  0  3.802763  0  0  -0.087035  0  4.0485  0  0  -0.089802  0  4.071558  0  0  -0.096067  -0.085125  0  4.0329  0
C  C81  1  0.63447950  0.38506307  0.29615341  1  0  -0.076266  0  3.80255  0  0  -0.087105  0  4.048278  0  0  -0.089862  0  4.071353  0  0  -0.096012  -0.085197  0  4.032682  0
C  C82  1  0.86553422  0.38506959  0.79615913  1  0  -0.076263  0  3.802761  0  0  -0.087062  0  4.048467  0  0  -0.089825  0  4.071533  0  0  -0.096025  -0.085149  0  4.032869  0
C  C83  1  0.36554075  0.61493722  0.70384966  1  0  -0.076317  0  3.802508  0  0  -0.087183  0  4.048214  0  0  -0.089926  0  4.07128  0  0  -0.096019  -0.085272  0  4.032618  0
C  C84  1  0.13277446  0.67333888  0.15945245  1  0  -0.098244  0  3.705132  0  0  -0.114951  0  3.944767  0  0  -0.117387  0  3.966453  0  0  -0.085846  -0.113368  0  3.930503  0
C  C85  1  0.63277619  0.32665490  0.34054543  1  0  -0.098256  0  3.705115  0  0  -0.114845  0  3.944736  0  0  -0.117318  0  3.966406  0  0  -0.085831  -0.113259  0  3.930475  0
C  C86  1  0.86723331  0.32666076  0.84055049  1  0  -0.098097  0  3.70521  0  0  -0.114781  0  3.944874  0  0  -0.117228  0  3.966555  0  0  -0.085784  -0.113195  0  3.930614  0
C  C87  1  0.36721410  0.67334930  0.65945683  1  0  -0.098527  0  3.705038  0  0  -0.115007  0  3.944724  0  0  -0.11744  0  3.966402  0  0  -0.0859  -0.113425  0  3.930467  0
C  C88  1  0.97759521  0.65122815  0.09076968  1  0  0.079836  0  3.80971  0  0  0.101909  0  4.036123  0  0  0.100551  0  4.060402  0  0  -0.012083  0.102734  0  4.019887  0
C  C89  1  0.47757833  0.34876137  0.40922310  1  0  0.07981  0  3.809705  0  0  0.101832  0  4.036168  0  0  0.100487  0  4.060426  0  0  -0.01216  0.102654  0  4.019932  0
C  C90  1  0.02242255  0.34876687  0.90922815  1  0  0.079619  0  3.809483  0  0  0.101619  0  4.03601  0  0  0.10027  0  4.060275  0  0  -0.012288  0.102443  0  4.019775  0
C  C91  1  0.52239449  0.65124152  0.59077785  1  0  0.080152  0  3.809669  0  0  0.101935  0  4.036437  0  0  0.100574  0  4.060726  0  0  -0.012048  0.102758  0  4.020198  0
C  C92  1  0.81807172  0.56933364  0.06889491  1  0  -0.100957  0  3.722103  0  0  -0.119839  0  3.962064  0  0  -0.121638  0  3.983888  0  0  -0.085406  -0.118541  0  3.947215  0
C  C93  1  0.31805048  0.43066097  0.43110120  1  0  -0.101151  0  3.722075  0  0  -0.120054  0  3.962096  0  0  -0.121847  0  3.983889  0  0  -0.085401  -0.118755  0  3.947244  0
C  C94  1  0.18195852  0.43066726  0.93110302  1  0  -0.100837  0  3.721916  0  0  -0.119661  0  3.961899  0  0  -0.121453  0  3.983702  0  0  -0.085241  -0.118366  0  3.947051  0
C  C95  1  0.68191486  0.56934782  0.56890196  1  0  -0.101233  0  3.722295  0  0  -0.120059  0  3.962446  0  0  -0.121849  0  3.984247  0  0  -0.085544  -0.11876  0  3.947594  0
C  C96  1  0.82155564  0.51098119  0.11323627  1  0  -0.073668  0  3.802654  0  0  -0.085401  0  4.052844  0  0  -0.088182  0  4.075332  0  0  -0.095572  -0.083435  0  4.037478  0
C  C97  1  0.32158603  0.48900624  0.38676052  1  0  -0.07345  0  3.802665  0  0  -0.085246  0  4.052888  0  0  -0.087994  0  4.075395  0  0  -0.09549  -0.083276  0  4.03751  0
C  C98  1  0.17842967  0.48901645  0.88676312  1  0  -0.073676  0  3.802819  0  0  -0.085436  0  4.053002  0  0  -0.088208  0  4.075491  0  0  -0.095613  -0.08347  0  4.037627  0
C  C99  1  0.67843921  0.51100323  0.61324540  1  0  -0.073481  0  3.802845  0  0  -0.085287  0  4.053005  0  0  -0.088025  0  4.075508  0  0  -0.095421  -0.083329  0  4.03763  0
I  I100  1  0.93213845  0.90613527  0.65511391  1  0  -0.338229  0  1.825121  0  0  -0.287431  0  2.29838  0  0  -0.303316  0  2.253537  0  0  -0.151088  -0.275052  0  2.32952  0
I  I101  1  0.43214169  0.09387546  0.84488797  1  0  -0.338214  0  1.82506  0  0  -0.287425  0  2.29831  0  0  -0.30333  0  2.253499  0  0  -0.151104  -0.275047  0  2.329457  0
I  I102  1  0.06784186  0.09386694  0.34488532  1  0  -0.338241  0  1.825084  0  0  -0.287476  0  2.298402  0  0  -0.303382  0  2.253578  0  0  -0.151097  -0.275097  0  2.329529  0
I  I103  1  0.56786358  0.90612478  0.15510983  1  0  -0.338213  0  1.824986  0  0  -0.287453  0  2.298276  0  0  -0.303346  0  2.253441  0  0  -0.151117  -0.275081  0  2.329423  0
N  N104  1  0.94299176  0.89295406  0.84976658  1  0  -0.271125  0  3.358385  0  0  -0.19608  0  3.639631  0  0  -0.210805  0  3.65078  0  0  -0.363974  -0.187347  0  3.632719  0
N  N105  1  0.44296336  0.10705348  0.65024146  1  0  -0.2715  0  3.358532  0  0  -0.196359  0  3.63967  0  0  -0.211152  0  3.650894  0  0  -0.364127  -0.187603  0  3.63272  0
N  N106  1  0.05701352  0.10704293  0.15023215  1  0  -0.271168  0  3.358396  0  0  -0.196151  0  3.639649  0  0  -0.210876  0  3.650807  0  0  -0.364094  -0.187417  0  3.632718  0
N  N107  1  0.55701196  0.89295270  0.34976276  1  0  -0.271176  0  3.358474  0  0  -0.19609  0  3.639668  0  0  -0.21084  0  3.650844  0  0  -0.363999  -0.187354  0  3.632733  0
