# generated using pymatgen
data_CuH6C6IN2O
_symmetry_space_group_name_H-M   'P 1'
_cell_length_a   3.98539024
_cell_length_b   13.38063492
_cell_length_c   16.44367174
_cell_angle_alpha   108.72615724
_cell_angle_beta   90.00024435
_cell_angle_gamma   90.00134209
_symmetry_Int_Tables_number   1
_chemical_formula_structural   CuH6C6IN2O
_chemical_formula_sum   'Cu4 H24 C24 I4 N8 O4'
_cell_volume   830.47318340
_cell_formula_units_Z   4
loop_
 _symmetry_equiv_pos_site_id
 _symmetry_equiv_pos_as_xyz
  1  'x, y, z'
loop_
 _atom_site_type_symbol
 _atom_site_label
 _atom_site_symmetry_multiplicity
 _atom_site_fract_x
 _atom_site_fract_y
 _atom_site_fract_z
 _atom_site_occupancy
 _atom_site_hle17_bader_spin_density
 _atom_site_hle17_ddec_charge
 _atom_site_hle17_ddec_spin_density
 _atom_site_hle17_ddec_sum_bond_order
 _atom_site_hle17_magmom
 _atom_site_hse06_10hf_bader_spin_density
 _atom_site_hse06_10hf_ddec_charge
 _atom_site_hse06_10hf_ddec_spin_density
 _atom_site_hse06_10hf_ddec_sum_bond_order
 _atom_site_hse06_10hf_magmom
 _atom_site_hse06_bader_spin_density
 _atom_site_hse06_ddec_charge
 _atom_site_hse06_ddec_spin_density
 _atom_site_hse06_ddec_sum_bond_order
 _atom_site_hse06_magmom
 _atom_site_pbe_bader_spin_density
 _atom_site_pbe_cm5_charge
 _atom_site_pbe_ddec_charge
 _atom_site_pbe_ddec_spin_density
 _atom_site_pbe_ddec_sum_bond_order
 _atom_site_pbe_magmom
Cu  Cu0  1  0.55586460  0.56891126  0.25344111  1  0  0.236219  0  2.223561  0  0  0.156275  0  2.711297  0  0  0.169037  0  2.65392  0  0  0.24662  0.149474  0  2.750066  0
Cu  Cu1  1  0.94414274  0.56890722  0.75344434  1  0  0.236131  0  2.223626  0  0  0.156228  0  2.711367  0  0  0.168987  0  2.654  0  0  0.24667  0.149449  0  2.750109  0
Cu  Cu2  1  0.44413865  0.43109156  0.74655622  1  0  0.236151  0  2.223712  0  0  0.156204  0  2.711484  0  0  0.16904  0  2.654061  0  0  0.246626  0.14944  0  2.750206  0
Cu  Cu3  1  0.05585299  0.43108291  0.24655753  1  0  0.236147  0  2.22355  0  0  0.156243  0  2.71123  0  0  0.169038  0  2.653921  0  0  0.246651  0.149468  0  2.749988  0
H  H4  1  0.86026962  0.56387895  0.09091470  1  0  0.073287  0  0.956031  0  0  0.08018  0  1.025031  0  0  0.083514  0  1.021531  0  0  0.098792  0.07755  0  1.027889  0
H  H5  1  0.63975166  0.56388023  0.59092394  1  0  0.073308  0  0.95609  0  0  0.080196  0  1.025055  0  0  0.08353  0  1.021555  0  0  0.098794  0.077562  0  1.027927  0
H  H6  1  0.13974869  0.43612310  0.90908000  1  0  0.073285  0  0.956017  0  0  0.080167  0  1.025037  0  0  0.083498  0  1.021542  0  0  0.098783  0.077535  0  1.027898  0
H  H7  1  0.36023654  0.43612095  0.40908147  1  0  0.073265  0  0.955931  0  0  0.080139  0  1.024949  0  0  0.08347  0  1.021452  0  0  0.098794  0.077507  0  1.027817  0
H  H8  1  0.00302763  0.68939598  0.01277420  1  0  0.095974  0  1.001886  0  0  0.105722  0  1.066702  0  0  0.108522  0  1.066625  0  0  0.084967  0.103493  0  1.067212  0
H  H9  1  0.49699428  0.68940178  0.51278861  1  0  0.09588  0  1.002061  0  0  0.105639  0  1.066891  0  0  0.108435  0  1.066812  0  0  0.084918  0.103411  0  1.067403  0
H  H10  1  0.99694049  0.31059984  0.98720971  1  0  0.095964  0  1.001958  0  0  0.105662  0  1.066832  0  0  0.108455  0  1.066748  0  0  0.084965  0.103434  0  1.067345  0
H  H11  1  0.50299893  0.31060409  0.48722353  1  0  0.095941  0  1.001872  0  0  0.105687  0  1.066717  0  0  0.10849  0  1.066638  0  0  0.084945  0.103456  0  1.067226  0
H  H12  1  0.53569217  0.93586483  0.22012118  1  0  0.121437  0  0.945953  0  0  0.126507  0  1.014658  0  0  0.130839  0  1.011677  0  0  0.113452  0.12339  0  1.016913  0
H  H13  1  0.96432018  0.93587109  0.72014297  1  0  0.121593  0  0.945991  0  0  0.126603  0  1.01475  0  0  0.130917  0  1.011794  0  0  0.113473  0.123479  0  1.017  0
H  H14  1  0.46428097  0.06413257  0.77986315  1  0  0.12156  0  0.945897  0  0  0.126611  0  1.0146  0  0  0.130946  0  1.011615  0  0  0.113477  0.123482  0  1.016862  0
H  H15  1  0.03567805  0.06412523  0.27987695  1  0  0.121428  0  0.945818  0  0  0.126496  0  1.014515  0  0  0.130807  0  1.011557  0  0  0.113459  0.123375  0  1.016773  0
H  H16  1  0.39952023  0.79892074  0.28778033  1  0  0.084664  0  0.935337  0  0  0.092431  0  1.000075  0  0  0.095642  0  0.997228  0  0  0.110258  0.090013  0  1.002255  0
H  H17  1  0.10051560  0.79892560  0.78779475  1  0  0.084856  0  0.935067  0  0  0.092575  0  0.999857  0  0  0.095807  0  0.996985  0  0  0.110379  0.090121  0  1.002076  0
H  H18  1  0.60049557  0.20108289  0.71221539  1  0  0.08474  0  0.935251  0  0  0.092494  0  1.000007  0  0  0.095704  0  0.997161  0  0  0.110289  0.090042  0  1.002211  0
H  H19  1  0.89948012  0.20106607  0.21221178  1  0  0.084662  0  0.935137  0  0  0.092405  0  0.999925  0  0  0.095622  0  0.99707  0  0  0.110328  0.089956  0  1.002146  0
H  H20  1  0.91304460  0.92171859  0.94638847  1  0  0.345049  0  0.924225  0  0  0.325627  0  0.986526  0  0  0.335574  0  0.977699  0  0  0.293998  0.318564  0  0.99276  0
H  H21  1  0.58698622  0.92170935  0.44639694  1  0  0.345074  0  0.924141  0  0  0.325674  0  0.986412  0  0  0.335624  0  0.977589  0  0  0.294053  0.318613  0  0.992661  0
H  H22  1  0.08696617  0.07829534  0.05360513  1  0  0.34506  0  0.92418  0  0  0.325688  0  0.986406  0  0  0.335642  0  0.977577  0  0  0.294032  0.318629  0  0.992655  0
H  H23  1  0.41305717  0.07828630  0.55360821  1  0  0.345051  0  0.924255  0  0  0.325638  0  0.986535  0  0  0.335591  0  0.9777  0  0  0.293983  0.318575  0  0.992771  0
H  H24  1  0.75186370  0.79896464  0.94743292  1  0  0.310506  0  0.940304  0  0  0.293171  0  1.010588  0  0  0.300486  0  1.005203  0  0  0.276445  0.287881  0  1.014561  0
H  H25  1  0.74812758  0.79896947  0.44743251  1  0  0.310494  0  0.940283  0  0  0.293135  0  1.010599  0  0  0.300452  0  1.005225  0  0  0.276483  0.287846  0  1.014574  0
H  H26  1  0.24811697  0.20103260  0.05257083  1  0  0.31052  0  0.94026  0  0  0.293169  0  1.01055  0  0  0.300488  0  1.005172  0  0  0.276487  0.287882  0  1.014526  0
H  H27  1  0.25186061  0.20103258  0.55256280  1  0  0.310597  0  0.94012  0  0  0.293235  0  1.010427  0  0  0.300554  0  1.005054  0  0  0.276478  0.287941  0  1.014399  0
C  C28  1  0.78853856  0.64688318  0.11656284  1  0  0.123336  0  3.685229  0  0  0.095322  0  3.934312  0  0  0.10116  0  3.951059  0  0  0.035012  0.091206  0  3.923661  0
C  C29  1  0.71148460  0.64688664  0.61657151  1  0  0.123158  0  3.685421  0  0  0.095275  0  3.934418  0  0  0.101109  0  3.951165  0  0  0.034966  0.091148  0  3.92378  0
C  C30  1  0.21146218  0.35312043  0.88343471  1  0  0.123408  0  3.68511  0  0  0.095404  0  3.934191  0  0  0.101235  0  3.950937  0  0  0.035023  0.091295  0  3.923562  0
C  C31  1  0.28849356  0.35310429  0.38342935  1  0  0.123241  0  3.685894  0  0  0.095317  0  3.934912  0  0  0.101158  0  3.951664  0  0  0.034971  0.091197  0  3.924264  0
C  C32  1  0.86487967  0.71745474  0.07311976  1  0  -0.13581  0  3.737547  0  0  -0.15393  0  3.976796  0  0  -0.160047  0  3.999749  0  0  -0.09064  -0.15006  0  3.961884  0
C  C33  1  0.63514053  0.71746072  0.57312965  1  0  -0.135839  0  3.737387  0  0  -0.154076  0  3.976597  0  0  -0.160184  0  3.999543  0  0  -0.090687  -0.150201  0  3.961698  0
C  C34  1  0.13510351  0.28254023  0.92687062  1  0  -0.135968  0  3.737274  0  0  -0.154025  0  3.976595  0  0  -0.160125  0  3.999533  0  0  -0.09067  -0.150152  0  3.961692  0
C  C35  1  0.36485770  0.28254680  0.42687380  1  0  -0.135768  0  3.73778  0  0  -0.153905  0  3.976995  0  0  -0.160026  0  3.999945  0  0  -0.090631  -0.150026  0  3.96209  0
C  C36  1  0.77358063  0.82348788  0.10926501  1  0  -0.008664  0  3.732031  0  0  0.009609  0  3.964524  0  0  0.008517  0  3.985052  0  0  0.003727  0.010108  0  3.950862  0
C  C37  1  0.72646100  0.82349931  0.60928128  1  0  -0.008277  0  3.731868  0  0  0.010126  0  3.964131  0  0  0.009029  0  3.984655  0  0  0.00396  0.010622  0  3.950465  0
C  C38  1  0.22639502  0.17650396  0.89072089  1  0  -0.008189  0  3.731617  0  0  0.009995  0  3.964202  0  0  0.008894  0  3.984732  0  0  0.003926  0.010488  0  3.950538  0
C  C39  1  0.27357738  0.17651214  0.39072443  1  0  -0.008518  0  3.732234  0  0  0.009713  0  3.964692  0  0  0.008624  0  3.985216  0  0  0.003816  0.010213  0  3.95103  0
C  C40  1  0.60880325  0.85414510  0.18857404  1  0  -0.112875  0  3.686923  0  0  -0.136647  0  3.937528  0  0  -0.141494  0  3.956632  0  0  -0.07242  -0.133524  0  3.92503  0
C  C41  1  0.89122726  0.85414843  0.68858891  1  0  -0.113196  0  3.687202  0  0  -0.137018  0  3.937858  0  0  -0.141853  0  3.95697  0  0  -0.072476  -0.133883  0  3.92534  0
C  C42  1  0.39118494  0.14585305  0.81141476  1  0  -0.113165  0  3.686846  0  0  -0.136948  0  3.937578  0  0  -0.141793  0  3.956675  0  0  -0.072529  -0.133819  0  3.925056  0
C  C43  1  0.10880359  0.14585424  0.31142724  1  0  -0.112924  0  3.687356  0  0  -0.136649  0  3.937919  0  0  -0.141479  0  3.95704  0  0  -0.072429  -0.133518  0  3.925413  0
C  C44  1  0.53499113  0.77812486  0.22699126  1  0  0.125097  0  3.662032  0  0  0.095438  0  3.914174  0  0  0.101503  0  3.931328  0  0  0.041483  0.091329  0  3.902919  0
C  C45  1  0.96503681  0.77812645  0.72700512  1  0  0.124849  0  3.661764  0  0  0.095264  0  3.913935  0  0  0.101317  0  3.931073  0  0  0.041323  0.091168  0  3.902685  0
C  C46  1  0.46500710  0.22187877  0.77300386  1  0  0.125086  0  3.662005  0  0  0.095464  0  3.914142  0  0  0.101524  0  3.931294  0  0  0.041452  0.091391  0  3.90289  0
C  C47  1  0.03497145  0.22186752  0.27301114  1  0  0.125192  0  3.661684  0  0  0.095542  0  3.913837  0  0  0.101613  0  3.930979  0  0  0.041473  0.091447  0  3.902607  0
C  C48  1  0.86062872  0.90373267  0.06652722  1  0  0.607375  0  3.848291  0  0  0.561333  0  4.134541  0  0  0.590821  0  4.132124  0  0  0.240155  0.541423  0  4.135627  0
C  C49  1  0.63941321  0.90373941  0.56654460  1  0  0.606836  0  3.848432  0  0  0.560889  0  4.134495  0  0  0.590383  0  4.132084  0  0  0.240027  0.540977  0  4.135565  0
C  C50  1  0.13936700  0.09626391  0.93345994  1  0  0.60686  0  3.848588  0  0  0.560945  0  4.134737  0  0  0.590437  0  4.132328  0  0  0.240059  0.54104  0  4.135811  0
C  C51  1  0.36062767  0.09626327  0.43347094  1  0  0.607122  0  3.84849  0  0  0.561159  0  4.134654  0  0  0.590648  0  4.132244  0  0  0.240162  0.541245  0  4.135736  0
I  I52  1  0.57301144  0.38356894  0.13441104  1  0  -0.35623  0  1.846838  0  0  -0.305265  0  2.312578  0  0  -0.319206  0  2.267333  0  0  -0.158944  -0.295045  0  2.344821  0
I  I53  1  0.92696169  0.38356557  0.63441139  1  0  -0.356175  0  1.846847  0  0  -0.305199  0  2.312609  0  0  -0.319162  0  2.267357  0  0  -0.158919  -0.294989  0  2.344826  0
I  I54  1  0.42696923  0.61643307  0.86558912  1  0  -0.356199  0  1.84686  0  0  -0.305241  0  2.312627  0  0  -0.319187  0  2.267373  0  0  -0.158932  -0.295032  0  2.344858  0
I  I55  1  0.07303152  0.61643172  0.36558509  1  0  -0.356207  0  1.846822  0  0  -0.305243  0  2.312593  0  0  -0.319172  0  2.267328  0  0  -0.158942  -0.295021  0  2.344832  0
N  N56  1  0.62289792  0.67565343  0.19202309  1  0  -0.264559  0  3.369275  0  0  -0.190124  0  3.65237  0  0  -0.203862  0  3.664438  0  0  -0.359021  -0.181554  0  3.644507  0
N  N57  1  0.87712896  0.67565826  0.69203469  1  0  -0.264237  0  3.369312  0  0  -0.189935  0  3.652474  0  0  -0.203675  0  3.664559  0  0  -0.358979  -0.181335  0  3.644592  0
N  N58  1  0.37710031  0.32435179  0.80797063  1  0  -0.264635  0  3.369401  0  0  -0.19022  0  3.652535  0  0  -0.203955  0  3.664616  0  0  -0.359077  -0.181688  0  3.644704  0
N  N59  1  0.12288182  0.32434134  0.30797090  1  0  -0.264524  0  3.369299  0  0  -0.190188  0  3.652459  0  0  -0.203941  0  3.664551  0  0  -0.359087  -0.181594  0  3.644601  0
N  N60  1  0.84440733  0.87161862  0.98056625  1  0  -0.671596  0  3.111386  0  0  -0.632853  0  3.335141  0  0  -0.655869  0  3.329079  0  0  -0.565296  -0.61709  0  3.33921  0
N  N61  1  0.65560276  0.87162175  0.48058173  1  0  -0.67128  0  3.111302  0  0  -0.632574  0  3.334946  0  0  -0.655602  0  3.32889  0  0  -0.565301  -0.616824  0  3.339023  0
N  N62  1  0.15557585  0.12838269  0.01942338  1  0  -0.67138  0  3.11134  0  0  -0.63267  0  3.334954  0  0  -0.655701  0  3.328893  0  0  -0.565325  -0.61692  0  3.33904  0
N  N63  1  0.34442056  0.12838095  0.51943017  1  0  -0.671548  0  3.111413  0  0  -0.632805  0  3.335115  0  0  -0.655834  0  3.32905  0  0  -0.565285  -0.617043  0  3.339179  0
O  O64  1  0.94852620  0.99469401  0.11145362  1  0  -0.573265  0  1.904934  0  0  -0.522853  0  2.11149  0  0  -0.545213  0  2.104945  0  0  -0.298654  -0.507223  0  2.115497  0
O  O65  1  0.55147095  0.99470876  0.61146576  1  0  -0.573142  0  1.904817  0  0  -0.522736  0  2.111261  0  0  -0.545096  0  2.104719  0  0  -0.298601  -0.507101  0  2.115245  0
O  O66  1  0.05144192  0.00529542  0.88853772  1  0  -0.573038  0  1.905003  0  0  -0.52265  0  2.111498  0  0  -0.545006  0  2.10496  0  0  -0.298577  -0.507014  0  2.115482  0
O  O67  1  0.44854987  0.00530347  0.38854138  1  0  -0.573191  0  1.905069  0  0  -0.522842  0  2.111632  0  0  -0.545201  0  2.105091  0  0  -0.298712  -0.507209  0  2.115636  0
