# generated using pymatgen
data_CoH16C26(N3O4)2
_symmetry_space_group_name_H-M   'P 1'
_cell_length_a   11.92197916
_cell_length_b   14.03906979
_cell_length_c   17.26344693
_cell_angle_alpha   108.95553197
_cell_angle_beta   90.00000999
_cell_angle_gamma   90.00023569
_symmetry_Int_Tables_number   1
_chemical_formula_structural   CoH16C26(N3O4)2
_chemical_formula_sum   'Co4 H64 C104 N24 O32'
_cell_volume   2732.75176780
_cell_formula_units_Z   4
loop_
 _symmetry_equiv_pos_site_id
 _symmetry_equiv_pos_as_xyz
  1  'x, y, z'
loop_
 _atom_site_type_symbol
 _atom_site_label
 _atom_site_symmetry_multiplicity
 _atom_site_fract_x
 _atom_site_fract_y
 _atom_site_fract_z
 _atom_site_occupancy
 _atom_site_pbe_bader_charge
 _atom_site_pbe_bader_spin_density
 _atom_site_pbe_cm5_charge
 _atom_site_pbe_ddec_charge
 _atom_site_pbe_ddec_spin_density
 _atom_site_pbe_ddec_sum_bond_order
 _atom_site_pbe_magmom
Co  Co0  1  0.40691507  0.75000140  0.75000173  1  1.232485  2.589853  0.656306  0.797504  2.835922  2.481508  2.564
Co  Co1  1  0.59308338  0.24999604  0.24999406  1  1.232628  2.589837  0.656298  0.797459  2.835915  2.481574  2.564
Co  Co2  1  0.08300783  0.24999961  0.25000074  1  1.207346  2.555322  0.689806  0.830767  2.755153  2.56508  2.492
Co  Co3  1  0.91699229  0.75000089  0.75000047  1  1.207206  2.555327  0.689805  0.830794  2.75515  2.565055  2.492
H  H4  1  0.46075247  0.68285001  0.99718196  1  0.14935  0.000523  0.114681  0.125196  0.000323  1.019153  0.0
H  H5  1  0.46075189  0.81714921  0.50281769  1  0.149331  0.000523  0.114658  0.12516  0.000323  1.019192  0.0
H  H6  1  0.53924765  0.31714973  0.00281790  1  0.149344  0.000523  0.114678  0.125196  0.000323  1.01916  0.0
H  H7  1  0.53924823  0.18285202  0.49718140  1  0.149333  0.000523  0.114666  0.125168  0.000323  1.019154  0.0
H  H8  1  0.82264246  0.51077893  0.90143522  1  0.115335  7.3e-05  0.106153  0.115254  3.2e-05  1.011025  0.0
H  H9  1  0.82264358  0.98921947  0.59856542  1  0.115306  7.3e-05  0.106152  0.115279  3.2e-05  1.010977  0.0
H  H10  1  0.17735766  0.48922080  0.09856405  1  0.115332  7.3e-05  0.106149  0.11522  3.2e-05  1.011048  0.0
H  H11  1  0.17735822  0.01077801  0.40143444  1  0.115309  7.3e-05  0.106152  0.115239  3.2e-05  1.01102  0.0
H  H12  1  0.70527700  0.56403323  0.80631999  1  0.147603  0.000457  0.113304  0.123995  0.000236  1.001371  0.0
H  H13  1  0.70527537  0.93596470  0.69368052  1  0.147593  0.000457  0.113288  0.123971  0.000236  1.001373  0.0
H  H14  1  0.29472396  0.43596725  0.19367948  1  0.147622  0.000457  0.11332  0.123989  0.000236  1.001405  0.0
H  H15  1  0.29472391  0.06403279  0.30631992  1  0.147594  0.000457  0.113305  0.123991  0.000236  1.001386  0.0
H  H16  1  0.73848666  0.37683842  0.99956352  1  0.09323  5.5e-05  0.112841  0.123281  5e-06  0.979626  0.0
H  H17  1  0.73848513  0.12315968  0.50043754  1  0.093179  5.5e-05  0.112843  0.123313  5e-06  0.979607  0.0
H  H18  1  0.26151430  0.62316056  0.00043556  1  0.093201  5.5e-05  0.112853  0.123315  5e-06  0.979609  0.0
H  H19  1  0.26151498  0.87684082  0.49956367  1  0.093192  5.5e-05  0.112858  0.123323  5e-06  0.979583  0.0
H  H20  1  0.86722254  0.30872373  0.08240169  1  0.097557  0.00035  0.107561  0.105408  8.4e-05  1.013658  0.0
H  H21  1  0.86722063  0.19127556  0.41759875  1  0.097562  0.00035  0.107549  0.105414  8.4e-05  1.01359  0.0
H  H22  1  0.13277842  0.69127524  0.91759739  1  0.097569  0.00035  0.107562  0.105406  8.4e-05  1.013627  0.0
H  H23  1  0.13277866  0.80872645  0.58240343  1  0.09759  0.00035  0.107574  0.105436  8.4e-05  1.013617  0.0
H  H24  1  0.00191980  0.60445342  0.19791566  1  0.144597  7e-06  0.118725  0.13299  -6.8e-05  1.00242  0.0
H  H25  1  0.00192136  0.89554771  0.30208579  1  0.144624  7e-06  0.118735  0.13301  -6.8e-05  1.002396  0.0
H  H26  1  0.99808032  0.39554557  0.80208400  1  0.144589  7e-06  0.118734  0.133009  -6.8e-05  1.002428  0.0
H  H27  1  0.99807960  0.10445428  0.69791407  1  0.14459  7e-06  0.118727  0.132998  -6.8e-05  1.002424  0.0
H  H28  1  0.32934208  0.97465568  0.73381758  1  0.149438  0.000782  0.122391  0.127133  0.000137  1.0041  0.001
H  H29  1  0.32934267  0.52534450  0.76617998  1  0.149518  0.000782  0.122421  0.127204  0.000137  1.004058  0.001
H  H30  1  0.67066056  0.02534557  0.26618324  1  0.149475  0.000782  0.122391  0.127155  0.000137  1.004134  0.001
H  H31  1  0.67065325  0.47465374  0.23382065  1  0.149664  0.000782  0.122385  0.127151  0.000137  1.004144  0.001
H  H32  1  0.15635018  0.07785199  0.83348347  1  0.151924  0.00062  0.119805  0.116517  0.000252  1.05173  0.0
H  H33  1  0.15634848  0.42214905  0.66651421  1  0.152299  0.00062  0.119795  0.116522  0.000252  1.051724  0.0
H  H34  1  0.84365078  0.92214623  0.16651484  1  0.151894  0.00062  0.119784  0.116508  0.000252  1.051809  0.0
H  H35  1  0.84364912  0.57784841  0.33348390  1  0.152021  0.00062  0.119827  0.116571  0.000252  1.051723  0.0
H  H36  1  0.22155338  0.80501873  0.88148608  1  0.158775  0.00036  0.139851  0.107373  -0.000159  1.009781  0.0
H  H37  1  0.22155307  0.69498329  0.61851193  1  0.158591  0.00036  0.139834  0.107333  -0.000159  1.009763  0.0
H  H38  1  0.77845094  0.19498176  0.11851397  1  0.158828  0.00036  0.139844  0.107343  -0.000159  1.009749  0.0
H  H39  1  0.77844369  0.30501569  0.38148715  1  0.158616  0.00036  0.139857  0.107367  -0.000159  1.009772  0.0
H  H40  1  0.96884859  0.04302638  0.87235547  1  0.12572  6.9e-05  0.112953  0.134369  -1.7e-05  1.008888  0.0
H  H41  1  0.96884872  0.45697336  0.62764372  1  0.125736  6.9e-05  0.112962  0.134371  -1.7e-05  1.008917  0.0
H  H42  1  0.03115321  0.95697260  0.12764361  1  0.125735  6.9e-05  0.112943  0.134346  -1.7e-05  1.008903  0.0
H  H43  1  0.03114888  0.54302485  0.37235459  1  0.125627  6.9e-05  0.112935  0.134355  -1.7e-05  1.008896  0.0
H  H44  1  0.17289968  0.90987690  0.01690219  1  0.080768  4.8e-05  0.112631  0.120359  1.2e-05  0.985623  0.0
H  H45  1  0.17289561  0.59012335  0.48309500  1  0.080709  4.8e-05  0.112647  0.120421  1.2e-05  0.985586  0.0
H  H46  1  0.82710212  0.09012207  0.98309631  1  0.080702  4.8e-05  0.112633  0.120394  1.2e-05  0.985595  0.0
H  H47  1  0.82710115  0.40987487  0.51690388  1  0.080734  4.8e-05  0.112635  0.120351  1.2e-05  0.985619  0.0
H  H48  1  0.31908327  0.12878048  0.19395710  1  0.2118  0.000799  0.139452  0.119272  0.000285  1.047402  0.001
H  H49  1  0.31908219  0.37121891  0.30604330  1  0.211871  0.000799  0.139445  0.11924  0.000285  1.047388  0.001
H  H50  1  0.68091601  0.87121851  0.80604315  1  0.211815  0.000799  0.139457  0.119289  0.000285  1.047377  0.001
H  H51  1  0.68091625  0.62878158  0.69395675  1  0.21187  0.000798  0.139455  0.119273  0.000285  1.047358  0.001
H  H52  1  0.25364548  0.15584814  0.95999064  1  0.138227  0.00084  0.119737  0.117509  0.000331  1.0683  0.0
H  H53  1  0.25364588  0.34415333  0.54001122  1  0.138178  0.00084  0.119732  0.117494  0.000331  1.068328  0.0
H  H54  1  0.74635297  0.84415235  0.04000941  1  0.138202  0.00084  0.119721  0.117476  0.000331  1.068318  0.0
H  H55  1  0.74635592  0.65584791  0.45998845  1  0.138177  0.00084  0.119726  0.1175  0.000331  1.068279  0.0
H  H56  1  0.08452769  0.24891632  0.06695332  1  0.086299  0.000957  0.118355  0.112091  0.000171  1.01319  0.001
H  H57  1  0.08452858  0.25108292  0.43304874  1  0.086248  0.000957  0.118338  0.112083  0.000171  1.01317  0.001
H  H58  1  0.91546908  0.75108268  0.93304750  1  0.086292  0.000957  0.11834  0.112093  0.000171  1.013191  0.001
H  H59  1  0.91547406  0.74891683  0.56695228  1  0.086224  0.000957  0.118347  0.112091  0.000171  1.013181  0.001
H  H60  1  0.42804679  0.11898543  0.93207379  1  0.087131  1.9e-05  0.113512  0.122905  -5e-06  0.992374  0.0
H  H61  1  0.42804654  0.38101672  0.56792710  1  0.087171  1.9e-05  0.113516  0.122932  -5e-06  0.992334  0.0
H  H62  1  0.57195165  0.88101431  0.06792606  1  0.087137  1.9e-05  0.113516  0.122904  -5e-06  0.992369  0.0
H  H63  1  0.57195358  0.61898452  0.43207198  1  0.087133  1.9e-05  0.113497  0.122932  -5e-06  0.992329  0.0
H  H64  1  0.41260254  0.99033555  0.12799758  1  0.105162  0.000108  0.11817  0.131342  2.6e-05  0.984052  0.0
H  H65  1  0.41260392  0.50966342  0.37200163  1  0.105176  0.000108  0.118171  0.131342  2.6e-05  0.984068  0.0
H  H66  1  0.58739506  0.00966419  0.87200228  1  0.105193  0.000108  0.11818  0.131367  2.6e-05  0.984033  0.0
H  H67  1  0.58739620  0.49033782  0.62799803  1  0.105193  0.000108  0.118186  0.131364  2.6e-05  0.984057  0.0
C  C68  1  0.50768674  0.66887917  0.84020083  1  1.542791  -0.009291  0.19226  0.545583  -0.011849  4.213402  -0.009
C  C69  1  0.50768543  0.83111796  0.65979770  1  1.542818  -0.009291  0.192207  0.545433  -0.01185  4.213499  -0.009
C  C70  1  0.49231086  0.33112208  0.15979999  1  1.543097  -0.00929  0.192254  0.545601  -0.011848  4.213667  -0.009
C  C71  1  0.49231637  0.16888253  0.34020293  1  1.542827  -0.009291  0.192284  0.545616  -0.01185  4.213462  -0.009
C  C72  1  0.57477115  0.62805821  0.89522074  1  0.039097  0.002247  -0.012336  -0.015773  0.00103  3.963741  0.002
C  C73  1  0.57477002  0.87193995  0.60477807  1  0.038988  0.002247  -0.012371  -0.015818  0.00103  3.963804  0.002
C  C74  1  0.42522729  0.37194152  0.10477854  1  0.039043  0.002247  -0.012339  -0.015848  0.00103  3.963855  0.002
C  C75  1  0.42522926  0.12805979  0.39522179  1  0.039107  0.002247  -0.012379  -0.015821  0.00103  3.96383  0.002
C  C76  1  0.53943646  0.64413980  0.97564519  1  -0.016824  -0.001449  -0.074066  -0.136209  -0.001773  3.954347  -0.001
C  C77  1  0.53943691  0.85585821  0.52435358  1  -0.016739  -0.001449  -0.074052  -0.136167  -0.001774  3.954405  -0.001
C  C78  1  0.46056366  0.35585918  0.02435448  1  -0.01681  -0.001449  -0.074085  -0.136226  -0.001773  3.954379  -0.001
C  C79  1  0.46056321  0.14414227  0.47564589  1  -0.016857  -0.001449  -0.074053  -0.136188  -0.001773  3.954355  -0.001
C  C80  1  0.60554189  0.61163106  0.02856083  1  0.185675  0.001007  0.073274  0.014632  0.000366  3.926115  0.001
C  C81  1  0.60554178  0.88836792  0.47143899  1  0.185646  0.001007  0.073232  0.014594  0.000366  3.926192  0.001
C  C82  1  0.39445907  0.38836942  0.97143864  1  0.185635  0.001007  0.073277  0.014618  0.000366  3.926086  0.001
C  C83  1  0.39445750  0.11163258  0.52856106  1  0.185663  0.001008  0.073261  0.01464  0.000366  3.926078  0.001
C  C84  1  0.71044466  0.56525900  0.00430572  1  0.025276  -0.005132  0.006955  0.035545  -0.005486  3.982622  -0.003
C  C85  1  0.71044478  0.93473889  0.49569442  1  0.025429  -0.005132  0.006927  0.035482  -0.005485  3.982656  -0.003
C  C86  1  0.28955546  0.43473998  0.99569337  1  0.025449  -0.005132  0.00698  0.035563  -0.005486  3.982575  -0.003
C  C87  1  0.28955618  0.06526085  0.50430543  1  0.02535  -0.005132  0.006885  0.035462  -0.005485  3.982645  -0.003
C  C88  1  0.74260550  0.54741528  0.92273803  1  -0.065656  0.001098  -0.080383  -0.117447  0.00032  3.938884  0.001
C  C89  1  0.74260728  0.95258280  0.57726252  1  -0.065617  0.001098  -0.080464  -0.117532  0.00032  3.938772  0.001
C  C90  1  0.25739378  0.45258520  0.07726144  1  -0.065699  0.001098  -0.080409  -0.117447  0.00032  3.93879  0.001
C  C91  1  0.25739368  0.04741544  0.42273811  1  -0.065612  0.001098  -0.080399  -0.117427  0.00032  3.938688  0.001
C  C92  1  0.67597905  0.57763230  0.86867861  1  -0.019676  -0.002982  -0.061873  -0.046055  -0.00338  3.901279  -0.002
C  C93  1  0.67597818  0.92236476  0.63132108  1  -0.019642  -0.002981  -0.061768  -0.045915  -0.00338  3.901127  -0.002
C  C94  1  0.32402023  0.42236893  0.13132047  1  -0.01968  -0.002981  -0.061863  -0.045971  -0.00338  3.901284  -0.002
C  C95  1  0.32402194  0.07763347  0.36867838  1  -0.019643  -0.002981  -0.061815  -0.046002  -0.00338  3.901136  -0.002
C  C96  1  0.78858009  0.53071031  0.05684936  1  0.057045  0.000205  0.014671  0.05376  -2.2e-05  3.977368  0.0
C  C97  1  0.78857954  0.96928941  0.44315242  1  0.056864  0.000206  0.014728  0.053853  -2.2e-05  3.977349  0.0
C  C98  1  0.21142086  0.46928942  0.94314992  1  0.057027  0.000205  0.014659  0.05381  -2.2e-05  3.977385  0.0
C  C99  1  0.21142142  0.03071110  0.55684879  1  0.056889  0.000206  0.014686  0.053829  -2.2e-05  3.977423  0.0
C  C100  1  0.79458891  0.42700755  0.04439759  1  -0.012378  5e-06  -0.078517  -0.115811  -0.000114  3.939458  0.0
C  C101  1  0.79458811  0.07299147  0.45560335  1  -0.012355  5e-06  -0.078551  -0.115924  -0.000114  3.939482  0.0
C  C102  1  0.20541121  0.57299218  0.95560168  1  -0.012494  5e-06  -0.078513  -0.115866  -0.000114  3.939482  0.0
C  C103  1  0.20541117  0.92701054  0.54439825  1  -0.012322  5e-06  -0.078504  -0.115871  -0.000114  3.939543  0.0
C  C104  1  0.86727223  0.38877154  0.08997488  1  -0.040186  0.000624  -0.067661  -0.05739  0.00022  3.942964  0.0
C  C105  1  0.86727076  0.11122852  0.41002634  1  -0.040172  0.000625  -0.067615  -0.057264  0.000221  3.942807  0.0
C  C106  1  0.13272873  0.61122745  0.91002478  1  -0.040186  0.000624  -0.067668  -0.057366  0.00022  3.942911  0.0
C  C107  1  0.13273020  0.88877198  0.58997487  1  -0.040158  0.000624  -0.067657  -0.057363  0.000221  3.942889  0.0
C  C108  1  0.94074257  0.45222491  0.14710606  1  -0.01014  0.004185  -0.014419  -0.030975  0.002018  3.991203  0.003
C  C109  1  0.94074246  0.04777543  0.35289524  1  -0.010387  0.004185  -0.014412  -0.03112  0.002018  3.991332  0.003
C  C110  1  0.05925839  0.54777406  0.85289302  1  -0.010413  0.004186  -0.014448  -0.031003  0.002018  3.991118  0.003
C  C111  1  0.05925682  0.95222733  0.64710655  1  -0.010064  0.004185  -0.01443  -0.031016  0.002018  3.991191  0.003
C  C112  1  0.94346133  0.55424129  0.15533288  1  0.004938  0.000846  -0.069605  -0.131697  0.000183  3.947102  0.001
C  C113  1  0.94346147  0.94575977  0.34466753  1  0.005174  0.000847  -0.069643  -0.131718  0.000183  3.947144  0.001
C  C114  1  0.05653879  0.44575844  0.84466640  1  0.004933  0.000846  -0.069602  -0.131724  0.000183  3.947125  0.001
C  C115  1  0.05653698  0.05424148  0.65533387  1  0.005118  0.000846  -0.069613  -0.131738  0.000183  3.947072  0.001
C  C116  1  0.86708903  0.59228973  0.11173008  1  0.225315  0.000447  0.078886  0.019574  0.000124  3.911911  0.0
C  C117  1  0.86709067  0.90771106  0.38827315  1  0.224965  0.000447  0.078875  0.019623  0.000124  3.911784  0.0
C  C118  1  0.13291109  0.40771076  0.88827056  1  0.225252  0.000447  0.078857  0.019506  0.000124  3.911941  0.0
C  C119  1  0.13291029  0.09228943  0.61172748  1  0.225014  0.000447  0.07884  0.019578  0.000124  3.911749  0.0
C  C120  1  0.01414130  0.41324689  0.20097263  1  1.566833  0.001973  0.198523  0.547694  0.002157  4.257339  0.001
C  C121  1  0.01414052  0.08675507  0.29902896  1  1.56708  0.001973  0.198572  0.547866  0.002158  4.25728  0.001
C  C122  1  0.98585882  0.58675435  0.79902761  1  1.567129  0.001972  0.19857  0.547863  0.002157  4.257169  0.001
C  C123  1  0.98585960  0.91324769  0.70097283  1  1.566748  0.001974  0.198524  0.547738  0.002158  4.257221  0.001
C  C124  1  0.28101952  0.95446727  0.77931518  1  0.4345  0.001916  0.008119  -0.005449  0.000549  3.950019  0.001
C  C125  1  0.28101936  0.54553423  0.72068271  1  0.434784  0.001917  0.008131  -0.005462  0.00055  3.950039  0.001
C  C126  1  0.71898395  0.04553473  0.22068525  1  0.434517  0.001914  0.008083  -0.00551  0.000548  3.95018  0.001
C  C127  1  0.71897656  0.45446475  0.27931696  1  0.434181  0.00192  0.008158  -0.005404  0.000551  3.950142  0.001
C  C128  1  0.19508603  0.00607348  0.82762493  1  0.238776  0.004984  0.000905  -0.102364  0.002736  3.909088  0.003
C  C129  1  0.19508467  0.49392771  0.67237280  1  0.237573  0.004984  0.000904  -0.102363  0.002735  3.90913  0.003
C  C130  1  0.80491661  0.99392551  0.17237474  1  0.238704  0.004985  0.000905  -0.102383  0.002736  3.909174  0.003
C  C131  1  0.80491293  0.50606976  0.32762590  1  0.238125  0.004983  0.000852  -0.102481  0.002735  3.909279  0.003
C  C132  1  0.22868656  0.86498981  0.85521235  1  0.993724  0.011287  0.155216  0.11887  0.006455  3.887598  0.008
C  C133  1  0.22868681  0.63501223  0.64478567  1  0.993693  0.011291  0.15522  0.118919  0.006456  3.887517  0.008
C  C134  1  0.77131691  0.13501143  0.14478789  1  0.993476  0.011285  0.155255  0.118966  0.006453  3.887461  0.008
C  C135  1  0.77130995  0.36498600  0.35521380  1  0.993502  0.011296  0.155263  0.118951  0.006457  3.887552  0.008
C  C136  1  0.07956395  0.97371518  0.93810503  1  0.291534  0.00114  0.097091  0.159165  0.000697  4.026782  0.001
C  C137  1  0.07956197  0.52628554  0.56189379  1  0.291551  0.001141  0.097136  0.159353  0.000697  4.026711  0.001
C  C138  1  0.92043869  0.02628531  0.06189444  1  0.291499  0.001141  0.097152  0.159339  0.000697  4.026689  0.001
C  C139  1  0.92043563  0.47371344  0.43810529  1  0.291013  0.001141  0.09708  0.159223  0.000697  4.026853  0.001
C  C140  1  0.98366908  0.02626322  0.92886591  1  0.044234  0.000834  -0.081347  -0.138935  0.000418  3.954642  0.001
C  C141  1  0.98366844  0.47373658  0.57113330  1  0.044047  0.000834  -0.081337  -0.138967  0.000418  3.954731  0.001
C  C142  1  0.01633272  0.97373650  0.07113278  1  0.044053  0.000834  -0.081298  -0.1389  0.000418  3.954652  0.001
C  C143  1  0.01633084  0.52626089  0.42886540  1  0.04423  0.000835  -0.081326  -0.138882  0.000419  3.954622  0.001
C  C144  1  0.09589242  0.94751502  0.00891483  1  -0.036899  0.000642  -0.08575  -0.152218  0.000248  3.986519  0.0
C  C145  1  0.09589069  0.55248495  0.49108402  1  -0.036899  0.000642  -0.085728  -0.152333  0.000248  3.986492  0.0
C  C146  1  0.90410854  0.05248395  0.99108367  1  -0.036951  0.000641  -0.085713  -0.152245  0.000248  3.986473  0.0
C  C147  1  0.90410775  0.44751329  0.50891544  1  -0.03664  0.000642  -0.085743  -0.152228  0.000248  3.986589  0.0
C  C148  1  0.27453617  0.14561776  0.14504736  1  0.956647  0.005795  0.152657  0.113862  0.003627  3.845177  0.005
C  C149  1  0.27453586  0.35438072  0.35495395  1  0.956681  0.005794  0.152737  0.114006  0.003626  3.84519  0.005
C  C150  1  0.72546228  0.85438124  0.85495288  1  0.956627  0.005794  0.152676  0.113897  0.003626  3.845251  0.005
C  C151  1  0.72546426  0.64561977  0.64504668  1  0.956678  0.005794  0.152716  0.114001  0.003626  3.845121  0.005
C  C152  1  0.24150057  0.16386322  0.02381046  1  0.28591  0.002734  -0.001659  -0.106648  0.001421  3.932177  0.002
C  C153  1  0.24150189  0.33613664  0.47619179  1  0.286383  0.002734  -0.001673  -0.106713  0.001421  3.932364  0.002
C  C154  1  0.75849535  0.83613578  0.97619095  1  0.28623  0.002734  -0.001657  -0.106645  0.001421  3.932119  0.002
C  C155  1  0.75850074  0.66386312  0.52380981  1  0.285851  0.002734  -0.001654  -0.106695  0.001421  3.932388  0.002
C  C156  1  0.15826451  0.20971059  0.07722733  1  0.463538  0.003953  -0.001044  -0.019831  0.002409  4.002766  0.003
C  C157  1  0.15826224  0.29028819  0.42277405  1  0.463053  0.003954  -0.000982  -0.01974  0.002409  4.002659  0.003
C  C158  1  0.84173477  0.79028840  0.92277292  1  0.463219  0.003954  -0.000991  -0.019787  0.002409  4.0028  0.003
C  C159  1  0.84173788  0.70971156  0.57722639  1  0.463622  0.003953  -0.000979  -0.01977  0.002409  4.002764  0.003
C  C160  1  0.40893058  0.06146231  0.03372079  1  0.27371  0.000966  0.098548  0.164316  0.000534  4.007317  0.001
C  C161  1  0.40893155  0.43853894  0.46627952  1  0.273698  0.000966  0.098533  0.164329  0.000534  4.007202  0.001
C  C162  1  0.59106702  0.93853744  0.96627965  1  0.273406  0.000966  0.098544  0.164281  0.000534  4.007356  0.001
C  C163  1  0.59106773  0.56146230  0.53372015  1  0.273709  0.000966  0.098553  0.164322  0.000534  4.007195  0.001
C  C164  1  0.45857851  0.06645090  0.96175391  1  -0.013224  0.000874  -0.081547  -0.135986  0.000466  3.966468  0.001
C  C165  1  0.45857767  0.43355061  0.53824683  1  -0.013272  0.000874  -0.081503  -0.135964  0.000466  3.966397  0.001
C  C166  1  0.54141993  0.93354884  0.03824595  1  -0.012959  0.000874  -0.081525  -0.135924  0.000466  3.966396  0.001
C  C167  1  0.54142161  0.56645063  0.46175283  1  -0.013242  0.000874  -0.081502  -0.135979  0.000466  3.966422  0.001
C  C168  1  0.45053165  0.99489906  0.07197141  1  0.072956  0.000565  -0.078372  -0.137666  0.000221  3.959673  0.0
C  C169  1  0.45053302  0.50510081  0.42802863  1  0.07296  0.000564  -0.07838  -0.137654  0.000221  3.959813  0.0
C  C170  1  0.54946595  0.00510068  0.92802903  1  0.072965  0.000565  -0.078377  -0.13767  0.000221  3.95976  0.0
C  C171  1  0.54946710  0.49489967  0.57197084  1  0.072974  0.000564  -0.078424  -0.137692  0.000221  3.959769  0.0
N  N172  1  0.30051943  0.86658265  0.79691020  1  -1.210984  0.057923  -0.357135  -0.295629  0.03138  3.633917  0.041
N  N173  1  0.30051969  0.63341817  0.70308752  1  -1.210802  0.057921  -0.357135  -0.295619  0.031381  3.633812  0.041
N  N174  1  0.69948572  0.13341860  0.20309063  1  -1.210715  0.057915  -0.357158  -0.295618  0.03138  3.63398  0.041
N  N175  1  0.69947540  0.36658007  0.29691253  1  -1.210448  0.057916  -0.357144  -0.295611  0.031381  3.63378  0.041
N  N176  1  0.16277322  0.94857987  0.87604311  1  -1.270003  0.00671  -0.22533  0.006291  0.002984  3.804083  0.004
N  N177  1  0.16277138  0.55142192  0.62395542  1  -1.269451  0.00671  -0.22537  0.006174  0.002984  3.804217  0.004
N  N178  1  0.83722942  0.05141986  0.12395617  1  -1.269946  0.006708  -0.225323  0.00619  0.002983  3.804125  0.004
N  N179  1  0.83722622  0.44857555  0.37604327  1  -1.269171  0.006711  -0.225319  0.006245  0.002985  3.80425  0.004
N  N180  1  0.17971647  0.19800033  0.15253281  1  -1.229887  0.068964  -0.364912  -0.313528  0.03549  3.681359  0.043
N  N181  1  0.17971759  0.30199777  0.34746781  1  -1.229837  0.068967  -0.364952  -0.313621  0.035491  3.681465  0.043
N  N182  1  0.82028114  0.80199790  0.84746666  1  -1.229799  0.068964  -0.364942  -0.313609  0.035491  3.681499  0.043
N  N183  1  0.82028421  0.69800122  0.65253243  1  -1.229887  0.068967  -0.364987  -0.313635  0.035491  3.681428  0.043
N  N184  1  0.31447662  0.12266870  0.06699151  1  -1.294042  0.006943  -0.220959  0.014445  0.003124  3.780526  0.005
N  N185  1  0.31447477  0.37733144  0.43300966  1  -1.29402  0.006943  -0.221  0.014379  0.003124  3.780591  0.005
N  N186  1  0.68552266  0.87733104  0.93300835  1  -1.294043  0.006943  -0.220964  0.014446  0.003124  3.780499  0.005
N  N187  1  0.68552535  0.62266905  0.56699040  1  -1.294023  0.006943  -0.220983  0.014363  0.003124  3.780623  0.005
N  N188  1  0.56129509  0.62754307  0.11158597  1  0.390419  1.6e-05  0.060008  0.52354  -3.2e-05  4.202393  0.0
N  N189  1  0.56129572  0.87245799  0.38841439  1  0.3904  1.7e-05  0.059902  0.523352  -3.2e-05  4.202707  0.0
N  N190  1  0.43870587  0.37245742  0.88841408  1  0.390406  1.7e-05  0.060057  0.523619  -3.2e-05  4.202375  0.0
N  N191  1  0.43870524  0.12754324  0.61158470  1  0.390402  1.7e-05  0.060016  0.523536  -3.2e-05  4.202332  0.0
N  N192  1  0.87091332  0.70076250  0.12636730  1  0.343221  -0.001644  0.057666  0.5255  -0.001786  4.182291  -0.001
N  N193  1  0.87091444  0.79923755  0.37363457  1  0.343405  -0.001643  0.057633  0.525343  -0.001785  4.18231  -0.001
N  N194  1  0.12908847  0.29923648  0.87363178  1  0.343359  -0.001644  0.057677  0.525404  -0.001785  4.182416  -0.001
N  N195  1  0.12908568  0.20076370  0.62636567  1  0.343435  -0.001643  0.057645  0.525307  -0.001784  4.182363  -0.001
O  O196  1  0.53953794  0.65177998  0.76613985  1  -1.154265  0.064103  -0.3119  -0.549  0.033276  2.267538  0.056
O  O197  1  0.53953842  0.84821428  0.73385853  1  -1.154186  0.064111  -0.311857  -0.548873  0.033281  2.267563  0.056
O  O198  1  0.46045882  0.34822503  0.23386137  1  -1.154292  0.064095  -0.311909  -0.549018  0.033272  2.267684  0.056
O  O199  1  0.46046170  0.15179072  0.26614210  1  -1.15437  0.064141  -0.311892  -0.548994  0.033286  2.267549  0.056
O  O200  1  0.42159127  0.72330143  0.86786990  1  -1.153751  0.071405  -0.318567  -0.54428  0.037032  2.19201  0.063
O  O201  1  0.42158634  0.77669913  0.63212892  1  -1.153845  0.071399  -0.318535  -0.54426  0.03703  2.191975  0.063
O  O202  1  0.57840298  0.27669532  0.13213150  1  -1.153949  0.071414  -0.318562  -0.544262  0.037037  2.192155  0.063
O  O203  1  0.57841714  0.22329686  0.36787171  1  -1.153864  0.071389  -0.318563  -0.544295  0.037025  2.192086  0.063
O  O204  1  0.98197788  0.32679208  0.20594193  1  -1.135889  0.108901  -0.330396  -0.551202  0.055076  2.378124  0.083
O  O205  1  0.98197332  0.17320843  0.29405942  1  -1.135822  0.108895  -0.330405  -0.551258  0.055075  2.378022  0.083
O  O206  1  0.01802392  0.67320841  0.79405870  1  -1.135793  0.108894  -0.330425  -0.551295  0.055076  2.378085  0.083
O  O207  1  0.01802428  0.82679434  0.70594295  1  -1.135749  0.108895  -0.33038  -0.551211  0.055075  2.378094  0.083
O  O208  1  0.09664954  0.46291383  0.23680480  1  -1.169613  0.010173  -0.31815  -0.544719  0.004669  2.120962  0.007
O  O209  1  0.09664767  0.03708771  0.26319669  1  -1.169525  0.010174  -0.318186  -0.544801  0.00467  2.121011  0.007
O  O210  1  0.90335058  0.53708666  0.76319525  1  -1.169591  0.010173  -0.31817  -0.544801  0.004669  2.120884  0.007
O  O211  1  0.90335245  0.96291505  0.73680452  1  -1.1696  0.010173  -0.318148  -0.544725  0.004669  2.120917  0.007
O  O212  1  0.47329891  0.67639713  0.13156169  1  -0.450011  -7.1e-05  -0.135772  -0.331631  -0.000105  1.88893  0.0
O  O213  1  0.47329847  0.82360734  0.36843838  1  -0.449887  -7.1e-05  -0.135685  -0.331535  -0.000104  1.889035  0.0
O  O214  1  0.52670120  0.32360261  0.86843875  1  -0.449964  -7.1e-05  -0.135761  -0.331606  -0.000105  1.888951  0.0
O  O215  1  0.52670165  0.17639840  0.63156129  1  -0.450037  -7.1e-05  -0.135781  -0.33163  -0.000104  1.88885  0.0
O  O216  1  0.61367808  0.58957614  0.15655834  1  -0.472357  0.000303  -0.129458  -0.340475  0.000149  1.961761  0.0
O  O217  1  0.61368140  0.91042589  0.34344285  1  -0.472407  0.000303  -0.129413  -0.340374  0.000149  1.961881  0.0
O  O218  1  0.38632371  0.41042509  0.84344132  1  -0.472361  0.000303  -0.129523  -0.34057  0.000149  1.961775  0.0
O  O219  1  0.38632291  0.08957611  0.65655759  1  -0.472306  0.000303  -0.129441  -0.340467  0.000149  1.961789  0.0
O  O220  1  0.78192820  0.74388047  0.11960314  1  -0.480853  -0.00054  -0.122639  -0.334075  -0.000624  1.980296  0.0
O  O221  1  0.78192743  0.75611920  0.38039630  1  -0.480827  -0.000539  -0.122615  -0.334026  -0.000624  1.980337  0.0
O  O222  1  0.21807443  0.25611926  0.88039613  1  -0.480917  -0.00054  -0.122642  -0.334046  -0.000624  1.980335  0.0
O  O223  1  0.21807101  0.24388280  0.61960414  1  -0.480848  -0.000539  -0.122637  -0.334016  -0.000624  1.980404  0.0
O  O224  1  0.96231017  0.74485986  0.14550029  1  -0.46241  -0.001318  -0.134241  -0.33699  -0.001393  1.882143  -0.001
O  O225  1  0.96231190  0.75514135  0.35450653  1  -0.462333  -0.001317  -0.134211  -0.336894  -0.001392  1.882073  -0.001
O  O226  1  0.03769163  0.25513914  0.85450112  1  -0.462411  -0.001318  -0.1342  -0.336889  -0.001392  1.882206  -0.001
O  O227  1  0.03768738  0.24485990  0.64549371  1  -0.462375  -0.001317  -0.134184  -0.336855  -0.001391  1.882115  -0.001
