# generated using pymatgen
data_NiH18C16(SN2)2
_symmetry_space_group_name_H-M   'P 1'
_cell_length_a   8.77901678
_cell_length_b   10.40070172
_cell_length_c   10.86390555
_cell_angle_alpha   68.34455494
_cell_angle_beta   67.74621028
_cell_angle_gamma   84.49771113
_symmetry_Int_Tables_number   1
_chemical_formula_structural   NiH18C16(SN2)2
_chemical_formula_sum   'Ni2 H36 C32 S4 N8'
_cell_volume   852.16683713
_cell_formula_units_Z   2
loop_
 _symmetry_equiv_pos_site_id
 _symmetry_equiv_pos_as_xyz
  1  'x, y, z'
loop_
 _atom_site_type_symbol
 _atom_site_label
 _atom_site_symmetry_multiplicity
 _atom_site_fract_x
 _atom_site_fract_y
 _atom_site_fract_z
 _atom_site_occupancy
 _atom_site_hle17_ddec_charge
 _atom_site_hle17_ddec_spin_density
 _atom_site_hle17_ddec_sum_bond_order
 _atom_site_hle17_magmom
 _atom_site_hse06_10hf_ddec_charge
 _atom_site_hse06_10hf_ddec_spin_density
 _atom_site_hse06_10hf_ddec_sum_bond_order
 _atom_site_hse06_10hf_magmom
 _atom_site_hse06_ddec_charge
 _atom_site_hse06_ddec_spin_density
 _atom_site_hse06_ddec_sum_bond_order
 _atom_site_hse06_magmom
 _atom_site_pbe_cm5_charge
 _atom_site_pbe_ddec_charge
 _atom_site_pbe_ddec_spin_density
 _atom_site_pbe_ddec_sum_bond_order
 _atom_site_pbe_magmom
Ni  Ni0  1  0.00000067  0.50000138  0.49999855  1  0.607305  -1.702362  2.461855  -1.356  0.634105  -1.750256  2.855885  -1.484  0.732732  -1.860835  2.776357  -1.614  0.599094  0.57066  -1.635581  2.908342  -1.362
Ni  Ni1  1  0.50000351  0.49999945  0.99999899  1  0.608519  1.704721  2.44984  1.359  0.634778  1.75499  2.846478  1.491  0.735097  1.864989  2.766087  1.62  0.597268  0.570725  1.640091  2.898334  1.367
H  H2  1  0.08086617  0.61599620  0.17898144  1  0.081012  -0.000792  0.962972  -0.001  0.089075  -0.000659  1.026719  -0.001  0.089872  -0.00048  1.026538  -0.001  0.114352  0.088446  -0.000844  1.026932  -0.001
H  H3  1  0.91913495  0.38400596  0.82101766  1  0.081058  -0.000791  0.96301  -0.001  0.089119  -0.000659  1.026739  -0.001  0.089915  -0.000479  1.026559  -0.001  0.11436  0.088484  -0.000844  1.026956  -0.001
H  H4  1  0.96012266  0.77029705  0.00872049  1  0.10216  -0.000118  0.973223  0.0  0.110535  -0.000168  1.037662  0.0  0.113265  -0.000127  1.038056  0.0  0.10122  0.108173  -0.000217  1.03849  -0.001
H  H5  1  0.03987715  0.22970404  0.99127755  1  0.102153  -0.000118  0.973205  0.0  0.11051  -0.000168  1.037662  0.0  0.11324  -0.000127  1.038057  0.0  0.101206  0.108145  -0.000218  1.038489  -0.001
H  H6  1  0.53367092  0.78479094  0.37052569  1  0.096857  -0.000877  0.989455  0.0  0.103877  -0.000896  1.059372  -0.001  0.107184  -0.000645  1.058725  0.0  0.096966  0.101315  -0.001136  1.060407  -0.001
H  H7  1  0.46632763  0.21521012  0.62947000  1  0.096828  -0.000878  0.989499  0.0  0.103853  -0.000896  1.059404  -0.001  0.107162  -0.000645  1.058758  0.0  0.096958  0.101293  -0.001136  1.060438  -0.001
H  H8  1  0.67389864  0.63003824  0.52694132  1  0.084972  -0.00073  0.943097  -0.001  0.092061  -0.000622  1.006114  -0.001  0.093477  -0.000451  1.005109  -0.001  0.11513  0.090693  -0.000798  1.007711  -0.001
H  H9  1  0.32609617  0.36996179  0.47305683  1  0.084988  -0.000727  0.943161  -0.001  0.092102  -0.000622  1.006152  -0.001  0.09352  -0.000451  1.005147  -0.001  0.115136  0.090734  -0.000798  1.007751  -0.001
H  H10  1  0.56243655  0.94746254  0.13519792  1  0.067816  -9.1e-05  0.936934  0.0  0.08894  -0.000171  0.995465  0.0  0.089465  -0.000125  0.995858  0.0  0.091962  0.088506  -0.000209  0.995238  0.0
H  H11  1  0.43756320  0.05253751  0.86480052  1  0.067806  -9.1e-05  0.936951  0.0  0.08892  -0.000171  0.995491  0.0  0.089443  -0.000125  0.995883  0.0  0.091967  0.088483  -0.000209  0.995262  0.0
H  H12  1  0.58902904  0.82905161  0.04944935  1  0.082683  0.000209  0.949533  0.001  0.104238  1.1e-05  1.00693  0.0  0.104725  1.5e-05  1.007298  0.0  0.092268  0.103925  6e-06  1.006721  0.0
H  H13  1  0.41096843  0.17095155  0.95054867  1  0.082606  0.000209  0.949514  0.001  0.104179  1.1e-05  1.006895  0.0  0.104659  1.5e-05  1.007272  0.0  0.092243  0.103866  6e-06  1.006687  0.0
H  H14  1  0.71311942  0.06676591  0.87451555  1  0.092252  -0.000333  0.986334  0.0  0.110397  -0.00038  1.055549  0.0  0.111733  -0.000281  1.055956  0.0  0.078062  0.109357  -0.000448  1.055402  0.0
H  H15  1  0.28687935  0.93323830  0.12548261  1  0.092276  -0.000335  0.98631  0.0  0.110402  -0.000379  1.055539  0.0  0.111739  -0.000281  1.055945  0.0  0.078051  0.109362  -0.000448  1.055393  0.0
H  H16  1  0.86133587  0.93995821  0.87086195  1  0.087477  0.000407  0.980615  0.0  0.106279  0.000374  1.049006  0.0  0.108075  0.000261  1.048677  0.0  0.078873  0.105044  0.000471  1.049176  0.0
H  H17  1  0.13866530  0.06004497  0.12913584  1  0.087449  0.000406  0.98064  0.0  0.106259  0.000374  1.049018  0.0  0.108054  0.000261  1.048693  0.0  0.078851  0.105025  0.000471  1.049184  0.0
H  H18  1  0.85365515  0.05542584  0.95938580  1  0.089011  -6e-06  0.971976  0.0  0.108406  1.7e-05  1.038788  0.0  0.108932  1.1e-05  1.040715  0.0  0.079311  0.108197  3e-05  1.037217  0.0
H  H19  1  0.14634230  0.94457633  0.04061628  1  0.089061  -7e-06  0.971953  0.0  0.108451  1.7e-05  1.038761  0.0  0.108976  1.1e-05  1.040688  0.0  0.079347  0.108242  3e-05  1.037191  0.0
H  H20  1  0.33157626  0.48326071  0.80785040  1  0.07595  0.000688  0.966993  0.001  0.082112  0.000609  1.034502  0.001  0.083274  0.000434  1.034013  0.001  0.109037  0.08141  0.000791  1.034861  0.001
H  H21  1  0.66842586  0.51673732  0.19215172  1  0.075961  0.00069  0.967018  0.001  0.082122  0.000609  1.034518  0.001  0.083284  0.000434  1.034031  0.001  0.109042  0.081423  0.000791  1.034878  0.001
H  H22  1  0.19378567  0.63729323  0.64929364  1  0.112454  0.000519  0.9811  0.0  0.120412  0.000488  1.045841  0.0  0.122874  0.00036  1.046181  0.0  0.099675  0.11838  0.000644  1.046159  0.001
H  H23  1  0.80621404  0.36270583  0.35070794  1  0.112452  0.000519  0.981142  0.0  0.120433  0.000488  1.04586  0.0  0.122894  0.000359  1.0462  0.0  0.099679  0.118398  0.000644  1.046178  0.001
H  H24  1  0.27707513  0.96864056  0.76851007  1  0.099634  0.000373  0.978195  0.0  0.111545  0.000401  1.03912  0.0  0.113535  0.000288  1.040487  0.0  0.102998  0.11063  0.000521  1.037729  0.001
H  H25  1  0.72292828  0.03135851  0.23149128  1  0.099692  0.000374  0.978147  0.0  0.111573  0.000401  1.039107  0.0  0.113555  0.000288  1.040478  0.0  0.10301  0.11066  0.000521  1.037716  0.001
H  H26  1  0.41362132  0.80013563  0.92203217  1  0.074771  0.000788  0.961937  0.001  0.082621  0.000719  1.02844  0.001  0.084313  0.000513  1.026667  0.001  0.111652  0.081117  0.000905  1.030169  0.001
H  H27  1  0.58637841  0.19986346  0.07797216  1  0.074749  0.000786  0.961948  0.001  0.082589  0.000719  1.028452  0.001  0.084281  0.000514  1.026679  0.001  0.111643  0.081085  0.000905  1.030177  0.001
H  H28  1  0.07241733  0.86122116  0.57025404  1  0.081188  0.000158  0.940596  0.0  0.100074  0.000243  0.99791  0.0  0.100894  0.000195  0.998325  0.0  0.092173  0.099413  0.000275  0.997676  0.0
H  H29  1  0.92757887  0.13878004  0.42975338  1  0.081181  0.000158  0.940608  0.0  0.100063  0.000243  0.99793  0.0  0.100884  0.000195  0.998347  0.0  0.092159  0.099403  0.000275  0.997692  0.0
H  H30  1  0.06866763  0.98577532  0.64690888  1  0.079175  -0.000112  0.92299  0.0  0.101666  -0.0  0.974543  0.0  0.102627  -1.2e-05  0.974583  0.0  0.09591  0.100834  5e-06  0.974783  0.0
H  H31  1  0.93133337  0.01422382  0.35309872  1  0.079189  -0.000112  0.923056  0.0  0.1017  -0.0  0.974572  0.0  0.102659  -1.2e-05  0.974616  0.0  0.095904  0.100847  5e-06  0.974835  0.0
H  H32  1  0.22623541  0.08385144  0.38411130  1  0.095655  5.7e-05  0.982038  0.0  0.113856  0.000137  1.04999  0.0  0.115069  9.8e-05  1.05068  0.0  0.080574  0.113201  0.000144  1.049099  0.0
H  H33  1  0.77376185  0.91614762  0.61589195  1  0.095644  5.7e-05  0.982059  0.0  0.113842  0.000137  1.05002  0.0  0.115054  9.8e-05  1.050711  0.0  0.080555  0.113182  0.000144  1.04913  0.0
H  H34  1  0.36097398  0.94557335  0.39699184  1  0.081804  -0.000262  0.982376  0.0  0.100792  -0.000264  1.052081  0.0  0.102254  -0.000178  1.052092  0.0  0.076083  0.099705  -0.000346  1.052179  0.0
H  H35  1  0.63902192  0.05442364  0.60301259  1  0.081817  -0.000262  0.982422  0.0  0.100815  -0.000264  1.05211  0.0  0.102277  -0.000178  1.05212  0.0  0.076101  0.099728  -0.000346  1.052207  0.0
H  H36  1  0.36109359  0.06821239  0.47552991  1  0.09258  2.4e-05  0.955967  0.0  0.113683  2e-06  1.017447  0.0  0.114346  3e-06  1.019243  0.0  0.081835  0.113223  3e-06  1.016161  0.0
H  H37  1  0.63890626  0.93178875  0.52447179  1  0.092603  2.4e-05  0.956031  0.0  0.113716  2e-06  1.01749  0.0  0.114379  3e-06  1.019286  0.0  0.081845  0.113255  3e-06  1.016203  0.0
C  C38  1  0.83802196  0.63631893  0.72725284  1  0.275456  -0.007279  3.969042  -0.017  0.276348  -0.001727  4.283477  -0.011  0.306893  -0.001229  4.295653  -0.009  0.155823  0.254945  -0.002033  4.275027  -0.012
C  C39  1  0.16198161  0.36368321  0.27274458  1  0.275507  -0.007279  3.96907  -0.017  0.276406  -0.001727  4.283489  -0.011  0.306952  -0.001229  4.295663  -0.009  0.155889  0.255  -0.002032  4.275046  -0.012
C  C40  1  0.65736059  0.36908135  0.76572968  1  0.271921  0.004964  3.965339  0.015  0.272102  0.000956  4.278695  0.01  0.302165  0.000538  4.290994  0.008  0.156737  0.250846  0.001047  4.271211  0.011
C  C41  1  0.34264732  0.63091144  0.23426703  1  0.271927  0.004957  3.965413  0.015  0.272106  0.000953  4.278777  0.01  0.302167  0.000536  4.291078  0.008  0.156776  0.250853  0.001045  4.27129  0.011
C  C42  1  0.95988820  0.65609976  0.21775812  1  0.128932  0.007626  3.695456  0.009  0.102456  0.001423  3.947283  0.003  0.112105  0.002071  3.966719  0.003  0.046261  0.096137  0.000967  3.934115  0.002
C  C43  1  0.04011047  0.34390240  0.78224266  1  0.128807  0.007612  3.695567  0.009  0.102365  0.001422  3.947353  0.003  0.112015  0.002071  3.966787  0.003  0.046245  0.096052  0.000967  3.934185  0.002
C  C44  1  0.89111796  0.74347912  0.12265573  1  -0.173956  -0.008341  3.707938  -0.01  -0.186681  -0.002949  3.947812  -0.004  -0.194397  -0.002841  3.966652  -0.004  -0.087897  -0.181891  -0.003233  3.935869  -0.004
C  C45  1  0.10888184  0.25652196  0.87734140  1  -0.173929  -0.00833  3.708032  -0.01  -0.18664  -0.002949  3.947891  -0.004  -0.194357  -0.002842  3.966732  -0.004  -0.087942  -0.181847  -0.003233  3.935943  -0.004
C  C46  1  0.73580079  0.79513542  0.17415049  1  0.150617  0.008572  3.703442  0.01  0.167003  0.002706  3.939565  0.003  0.173216  0.002714  3.959369  0.003  0.010591  0.163164  0.002967  3.924841  0.003
C  C47  1  0.26419660  0.20486668  0.82584610  1  0.150565  0.008556  3.703546  0.01  0.166943  0.002706  3.939659  0.003  0.173155  0.002714  3.959459  0.003  0.010617  0.163106  0.002967  3.924937  0.003
C  C48  1  0.65629435  0.75130760  0.32279601  1  -0.190109  -0.008842  3.737308  -0.01  -0.206917  -0.003451  3.984452  -0.004  -0.215393  -0.003169  4.003799  -0.004  -0.092729  -0.201329  -0.003829  3.9711  -0.005
C  C49  1  0.34370532  0.24869139  0.67720100  1  -0.190027  -0.008822  3.737363  -0.01  -0.206838  -0.003451  3.984518  -0.004  -0.215318  -0.003169  4.003864  -0.004  -0.092704  -0.201249  -0.003829  3.971167  -0.005
C  C50  1  0.73286174  0.66371544  0.41126623  1  0.131284  0.007902  3.702482  0.01  0.10545  0.001592  3.95471  0.003  0.115324  0.002226  3.973482  0.003  0.043851  0.098676  0.00112  3.942963  0.002
C  C51  1  0.26713560  0.33628563  0.58873076  1  0.13126  0.007885  3.702522  0.01  0.105404  0.001592  3.954771  0.003  0.115276  0.002227  3.973546  0.003  0.043869  0.098631  0.001121  3.943029  0.002
C  C52  1  0.65712405  0.89233492  0.07576963  1  -0.11781  -0.00066  3.715294  -0.001  -0.155611  -0.000361  3.962348  0.0  -0.156297  -0.000296  3.974594  0.0  -0.162053  -0.154789  -0.000409  3.953292  0.0
C  C53  1  0.34287323  0.10766512  0.92422866  1  -0.117676  -0.00066  3.715161  -0.001  -0.15546  -0.000361  3.962173  0.0  -0.156136  -0.000296  3.97441  0.0  -0.16202  -0.154635  -0.000409  3.953111  0.0
C  C54  1  0.77809535  0.99419124  0.93802505  1  -0.285246  0.000292  3.720105  0.0  -0.359586  0.00013  3.964163  0.0  -0.361897  9e-05  3.973719  0.0  -0.252797  -0.357648  0.00017  3.957258  0.0
C  C55  1  0.22189968  0.00581196  0.06197648  1  -0.285315  0.000298  3.720122  0.0  -0.359653  0.00013  3.964198  0.0  -0.361966  9.1e-05  3.973748  0.0  -0.252812  -0.357718  0.00017  3.957293  0.0
C  C56  1  0.31794062  0.59192718  0.79569240  1  0.131458  -0.007857  3.705288  -0.009  0.10727  -0.001712  3.955924  -0.003  0.117334  -0.002281  3.974549  -0.003  0.043026  0.100413  -0.001279  3.943626  -0.002
C  C57  1  0.68206285  0.40807293  0.20430855  1  0.131464  -0.007865  3.705347  -0.009  0.10728  -0.001712  3.955989  -0.003  0.117346  -0.002282  3.97461  -0.003  0.042997  0.100421  -0.001279  3.94369  -0.002
C  C58  1  0.24104751  0.67897697  0.70701137  1  -0.178172  0.008659  3.700099  0.01  -0.19341  0.003251  3.939883  0.004  -0.201571  0.003069  3.95976  0.004  -0.089864  -0.188202  0.003532  3.927477  0.004
C  C59  1  0.75895481  0.32102419  0.29299140  1  -0.178258  0.008662  3.700209  0.01  -0.193528  0.003251  3.940012  0.004  -0.201688  0.00307  3.959887  0.004  -0.089938  -0.188316  0.003533  3.927604  0.004
C  C60  1  0.22442970  0.81826490  0.69349386  1  0.155841  -0.008151  3.714837  -0.009  0.17211  -0.002412  3.95176  -0.003  0.178472  -0.002518  3.971803  -0.003  0.01332  0.167927  -0.002687  3.93822  -0.003
C  C61  1  0.77557132  0.18173617  0.30650198  1  0.15593  -0.008156  3.714764  -0.009  0.172199  -0.002412  3.951695  -0.003  0.17856  -0.002519  3.971732  -0.003  0.013414  0.168015  -0.002687  3.938148  -0.003
C  C62  1  0.28694971  0.86167916  0.77369556  1  -0.182712  0.0081  3.718774  0.01  -0.195956  0.002785  3.958003  0.003  -0.204279  0.0027  3.978674  0.003  -0.089154  -0.191266  0.003097  3.944417  0.004
C  C63  1  0.71305133  0.13832194  0.22630211  1  -0.182775  0.008099  3.718909  0.01  -0.196018  0.002785  3.958148  0.003  -0.204331  0.0027  3.978823  0.003  -0.089198  -0.19133  0.003097  3.944561  0.004
C  C64  1  0.36322660  0.76876660  0.85932424  1  0.122992  -0.007582  3.716785  -0.009  0.097551  -0.001539  3.969207  -0.003  0.106899  -0.002164  3.988964  -0.003  0.041501  0.091556  -0.001168  3.956492  -0.002
C  C65  1  0.63677669  0.23123040  0.14067790  1  0.123008  -0.007577  3.716814  -0.009  0.097607  -0.001538  3.969191  -0.003  0.106955  -0.002164  3.988946  -0.003  0.041502  0.09161  -0.001168  3.956477  -0.002
C  C66  1  0.14953878  0.91867000  0.59408507  1  -0.121348  0.0006  3.706749  0.001  -0.15967  0.00038  3.95733  0.0  -0.160579  0.000314  3.968853  0.0  -0.161076  -0.158886  0.000461  3.949255  0.0
C  C67  1  0.85045970  0.08132906  0.40591689  1  -0.121332  0.000602  3.706702  0.001  -0.159666  0.00038  3.95728  0.0  -0.160576  0.000314  3.968801  0.0  -0.161047  -0.158863  0.000461  3.9492  0.0
C  C68  1  0.28206426  0.00947161  0.45479716  1  -0.275327  -0.000641  3.69746  -0.001  -0.346327  -0.000328  3.937252  0.0  -0.349103  -0.000261  3.948081  0.0  -0.246288  -0.344175  -0.000376  3.92952  0.0
C  C69  1  0.71793048  0.99052642  0.54520726  1  -0.275396  -0.000642  3.69752  -0.001  -0.346408  -0.000327  3.937316  0.0  -0.349183  -0.000261  3.948144  0.0  -0.246327  -0.344256  -0.000376  3.929596  0.0
S  S70  1  0.74624249  0.66593217  0.87444152  1  -0.245469  0.075168  2.254495  0.086  -0.275868  0.047084  2.609966  0.054  -0.30929  0.033899  2.603783  0.04  -0.099884  -0.252169  0.056623  2.614109  0.063
S  S71  1  0.25375973  0.33406791  0.12555799  1  -0.245464  0.075163  2.254522  0.086  -0.275878  0.047082  2.610019  0.054  -0.309298  0.033897  2.603835  0.04  -0.099888  -0.252171  0.056621  2.614148  0.063
S  S72  1  0.76609017  0.32497317  0.63008434  1  -0.243415  -0.074483  2.270576  -0.085  -0.268848  -0.046868  2.620682  -0.053  -0.299877  -0.03404  2.613154  -0.039  -0.098003  -0.247162  -0.055627  2.626873  -0.062
S  S73  1  0.23391187  0.67502380  0.36991543  1  -0.243472  -0.074503  2.270477  -0.085  -0.268903  -0.046879  2.620574  -0.053  -0.299938  -0.034048  2.613046  -0.039  -0.098039  -0.247216  -0.05564  2.626762  -0.062
N  N74  1  0.90558458  0.61470110  0.62007605  1  -0.482079  -0.009169  3.05871  -0.013  -0.470504  -0.012807  3.359116  -0.016  -0.504308  -0.012842  3.363716  -0.016  -0.388463  -0.448034  -0.012455  3.35628  -0.016
N  N75  1  0.09441796  0.38530416  0.37992148  1  -0.482161  -0.00917  3.058729  -0.013  -0.470576  -0.012808  3.359117  -0.016  -0.504388  -0.012842  3.36373  -0.016  -0.388524  -0.448103  -0.012455  3.356276  -0.016
N  N76  1  0.57942100  0.39923954  0.86611231  1  -0.482593  0.010562  3.093527  0.015  -0.469971  0.012272  3.399786  0.015  -0.503469  0.012606  3.404054  0.016  -0.388936  -0.447854  0.011615  3.397034  0.014
N  N77  1  0.42058458  0.60075437  0.13389117  1  -0.482549  0.010574  3.093738  0.015  -0.469927  0.012279  3.399987  0.015  -0.503423  0.012611  3.404257  0.016  -0.388951  -0.447816  0.011623  3.397236  0.014
N  N78  1  0.88359313  0.61726450  0.36014822  1  -0.287082  -0.061655  3.349368  -0.088  -0.241856  -0.04208  3.625001  -0.062  -0.274489  -0.034457  3.651598  -0.053  -0.325074  -0.220025  -0.047855  3.607023  -0.069
N  N79  1  0.11640539  0.38273556  0.63985061  1  -0.287035  -0.061647  3.349391  -0.088  -0.241848  -0.042081  3.625052  -0.062  -0.274481  -0.034459  3.65165  -0.053  -0.325064  -0.220016  -0.047856  3.607074  -0.069
N  N80  1  0.37957484  0.63533845  0.87062484  1  -0.288545  0.061146  3.343543  0.088  -0.244094  0.04145  3.618568  0.062  -0.277278  0.033917  3.645332  0.052  -0.325166  -0.222496  0.047303  3.600485  0.068
N  N81  1  0.62042981  0.36466063  0.12937612  1  -0.288504  0.061151  3.343407  0.088  -0.244055  0.041452  3.618401  0.062  -0.277242  0.033919  3.645172  0.052  -0.325083  -0.222457  0.047306  3.600317  0.068
