# generated using pymatgen
data_CdH22C18S(NO)6
_symmetry_space_group_name_H-M   'P 1'
_cell_length_a   8.90994871
_cell_length_b   12.01209814
_cell_length_c   12.71700000
_cell_angle_alpha   89.85995260
_cell_angle_beta   79.80872220
_cell_angle_gamma   69.39129783
_symmetry_Int_Tables_number   1
_chemical_formula_structural   CdH22C18S(NO)6
_chemical_formula_sum   'Cd2 H44 C36 S2 N12 O12'
_cell_volume   1251.21739608
_cell_formula_units_Z   2
loop_
 _symmetry_equiv_pos_site_id
 _symmetry_equiv_pos_as_xyz
  1  'x, y, z'
loop_
 _atom_site_type_symbol
 _atom_site_label
 _atom_site_symmetry_multiplicity
 _atom_site_fract_x
 _atom_site_fract_y
 _atom_site_fract_z
 _atom_site_occupancy
 _atom_site_hle17_bader_spin_density
 _atom_site_hle17_ddec_charge
 _atom_site_hle17_ddec_spin_density
 _atom_site_hle17_ddec_sum_bond_order
 _atom_site_hle17_magmom
 _atom_site_hse06_10hf_bader_spin_density
 _atom_site_hse06_10hf_ddec_charge
 _atom_site_hse06_10hf_ddec_spin_density
 _atom_site_hse06_10hf_ddec_sum_bond_order
 _atom_site_hse06_10hf_magmom
 _atom_site_hse06_bader_spin_density
 _atom_site_hse06_ddec_charge
 _atom_site_hse06_ddec_spin_density
 _atom_site_hse06_ddec_sum_bond_order
 _atom_site_hse06_magmom
 _atom_site_pbe_bader_charge
 _atom_site_pbe_bader_spin_density
 _atom_site_pbe_cm5_charge
 _atom_site_pbe_ddec_charge
 _atom_site_pbe_ddec_spin_density
 _atom_site_pbe_ddec_sum_bond_order
 _atom_site_pbe_magmom
Cd  Cd0  1  0.21791418  0.26136182  0.30049136  1  0  1.148896  0  1.729541  0  0  0.960505  0  2.181088  0  0  1.008199  0  2.134368  0  1.295901  0  0.784202  0.926788  0  2.212939  0
Cd  Cd1  1  0.78208618  0.73863844  0.69950844  1  0  1.14892  0  1.729535  0  0  0.960536  0  2.181071  0  0  1.008226  0  2.134353  0  1.295878  0  0.784216  0.926817  0  2.212925  0
H  H2  1  0.00618348  0.49777724  0.41872034  1  0  0.420212  0  0.840168  0  0  0.400564  0  0.897959  0  0  0.410183  0  0.884144  0  0.606887  0  0.307642  0.39364  0  0.905982  0
H  H3  1  0.99381504  0.50222212  0.58128833  1  0  0.420217  0  0.840122  0  0  0.400582  0  0.897886  0  0  0.410199  0  0.884106  0  0.607034  0  0.307683  0.393658  0  0.905909  0
H  H4  1  0.91302758  0.40561132  0.40530944  1  0  0.426194  0  0.887452  0  0  0.392519  0  0.954652  0  0  0.404293  0  0.937665  0  0.65104  0  0.277009  0.384227  0  0.966573  0
H  H5  1  0.08697164  0.59438893  0.59469207  1  0  0.426257  0  0.887358  0  0  0.392607  0  0.954528  0  0  0.40438  0  0.93754  0  0.651043  0  0.277035  0.384316  0  0.966449  0
H  H6  1  0.40614873  0.36242106  0.43228066  1  0  0.427267  0  0.822109  0  0  0.414084  0  0.867058  0  0  0.422314  0  0.85523  0  0.618329  0  0.319918  0.408146  0  0.875635  0
H  H7  1  0.59385109  0.63757563  0.56771842  1  0  0.427238  0  0.822232  0  0  0.414056  0  0.867116  0  0  0.422286  0  0.85529  0  0.618343  0  0.319923  0.408118  0  0.875693  0
H  H8  1  0.53825920  0.28146760  0.33424396  1  0  0.430486  0  0.878828  0  0  0.394385  0  0.950629  0  0  0.405852  0  0.933999  0  0.640961  0  0.27973  0.386328  0  0.962279  0
H  H9  1  0.46173968  0.71853800  0.66575050  1  0  0.430473  0  0.878831  0  0  0.39429  0  0.950757  0  0  0.405755  0  0.934129  0  0.640969  0  0.279704  0.386232  0  0.962407  0
H  H10  1  0.28119926  0.75121814  0.23305011  1  0  0.096353  0  0.943647  0  0  0.111559  0  0.997402  0  0  0.114294  0  0.996437  0  0.045669  0  0.102907  0.109535  0  0.998237  0
H  H11  1  0.71880154  0.24878122  0.76695121  1  0  0.096347  0  0.943708  0  0  0.111556  0  0.997458  0  0  0.114273  0  0.996516  0  0.045686  0  0.102897  0.109533  0  0.998293  0
H  H12  1  0.82786148  0.02786449  0.20717653  1  0  0.118495  0  0.975321  0  0  0.126203  0  1.042181  0  0  0.129524  0  1.040242  0  0.127164  0  0.104873  0.123731  0  1.043753  0
H  H13  1  0.17213845  0.97213666  0.79282332  1  0  0.118484  0  0.975326  0  0  0.126199  0  1.042189  0  0  0.129519  0  1.040251  0  0.127171  0  0.104882  0.123727  0  1.043759  0
H  H14  1  0.07683896  0.75604538  0.94972136  1  0  0.117127  0  0.981029  0  0  0.123597  0  1.050414  0  0  0.126995  0  1.048103  0  0.133325  0  0.104827  0.121015  0  1.052303  0
H  H15  1  0.92315999  0.24395309  0.05028018  1  0  0.117194  0  0.98102  0  0  0.123664  0  1.050406  0  0  0.127063  0  1.048095  0  0.133308  0  0.104832  0.121069  0  1.052309  0
H  H16  1  0.35887003  0.62905844  0.95315864  1  0  0.107059  0  0.934718  0  0  0.118301  0  1.001169  0  0  0.120086  0  0.999319  0  0.126233  0  0.117545  0.116924  0  1.00257  0
H  H17  1  0.64112919  0.37094182  0.04684287  1  0  0.107104  0  0.934666  0  0  0.118324  0  1.001131  0  0  0.120117  0  0.999286  0  0.12621  0  0.117541  0.116947  0  1.002533  0
H  H18  1  0.44345813  0.62294863  0.07200962  1  0  0.083629  0  0.923183  0  0  0.09729  0  0.985316  0  0  0.098327  0  0.984823  0  0.068566  0  0.112736  0.096459  0  0.985816  0
H  H19  1  0.55654196  0.37704985  0.92799100  1  0  0.083633  0  0.923183  0  0  0.097267  0  0.985324  0  0  0.098312  0  0.984836  0  0.068564  0  0.112727  0.096437  0  0.985825  0
H  H20  1  0.37802270  0.48228123  0.21842605  1  0  0.105237  0  0.930377  0  0  0.113776  0  0.994322  0  0  0.117203  0  0.989668  0  0.14466  0  0.137006  0.111197  0  0.997726  0
H  H21  1  0.62197511  0.51771725  0.78157485  1  0  0.105312  0  0.930361  0  0  0.113839  0  0.994307  0  0  0.117216  0  0.989711  0  0.145087  0  0.137018  0.11126  0  0.997712  0
H  H22  1  0.11646447  0.32955107  0.05646458  1  0  0.101709  0  0.97217  0  0  0.110291  0  1.037639  0  0  0.112663  0  1.036574  0  0.099606  0  0.114662  0.108529  0  1.038587  0
H  H23  1  0.88353361  0.67044919  0.94353157  1  0  0.101703  0  0.972164  0  0  0.110293  0  1.037631  0  0  0.112666  0  1.036565  0  0.099651  0  0.114637  0.108529  0  1.038582  0
H  H24  1  0.18132497  0.50953072  0.93511161  1  0  0.142232  0  0.978439  0  0  0.150466  0  1.038541  0  0  0.15403  0  1.036041  0  0.193951  0  0.12353  0.147861  0  1.040394  0
H  H25  1  0.81867495  0.49047042  0.06488824  1  0  0.142226  0  0.97844  0  0  0.150456  0  1.03855  0  0  0.154019  0  1.036045  0  0.193971  0  0.123535  0.14785  0  1.040403  0
H  H26  1  0.15973803  0.91380956  0.36654680  1  0  0.074414  0  0.941824  0  0  0.086884  0  1.008985  0  0  0.087549  0  1.008904  0  0.063649  0  0.109445  0.086326  0  1.009163  0
H  H27  1  0.84026347  0.08619069  0.63345285  1  0  0.074413  0  0.941822  0  0  0.086897  0  1.009008  0  0  0.087566  0  1.008925  0  0.063665  0  0.109455  0.086345  0  1.009181  0
H  H28  1  0.01259406  0.04715652  0.33352057  1  0  0.109004  0  0.939238  0  0  0.118785  0  1.007255  0  0  0.12037  0  1.006045  0  0.120997  0  0.117965  0.117479  0  1.008391  0
H  H29  1  0.98740701  0.95284462  0.66648071  1  0  0.109004  0  0.939245  0  0  0.118804  0  1.007275  0  0  0.120389  0  1.006068  0  0.121019  0  0.117956  0.117497  0  1.008413  0
H  H30  1  0.06144813  0.77292380  0.49036049  1  0  0.107974  0  0.933512  0  0  0.117024  0  0.996397  0  0  0.119851  0  0.992632  0  0.170039  0  0.13744  0.114876  0  0.999139  0
H  H31  1  0.93855679  0.22707646  0.50963953  1  0  0.108022  0  0.933556  0  0  0.117066  0  0.996442  0  0  0.119895  0  0.992673  0  0.170084  0  0.137452  0.114919  0  0.999185  0
H  H32  1  0.56410358  0.98823519  0.57863614  1  0  0.097829  0  0.971674  0  0  0.107166  0  1.032452  0  0  0.109113  0  1.0325  0  0.131168  0  0.113308  0.105772  0  1.032495  0
H  H33  1  0.43589967  0.01176150  0.42136488  1  0  0.097859  0  0.971635  0  0  0.107177  0  1.032433  0  0  0.109125  0  1.032481  0  0.130972  0  0.113303  0.105784  0  1.032477  0
H  H34  1  0.71042472  0.08700979  0.40724182  1  0  0.135973  0  0.971117  0  0  0.143247  0  1.0325  0  0  0.147113  0  1.029568  0  0.200677  0  0.123807  0.140365  0  1.034791  0
H  H35  1  0.28957494  0.91298957  0.59276043  1  0  0.136058  0  0.971178  0  0  0.143297  0  1.03258  0  0  0.147161  0  1.029651  0  0.200652  0  0.123839  0.140415  0  1.03487  0
H  H36  1  0.81066502  0.03301349  0.97558801  1  0  0.081994  0  0.966385  0  0  0.093281  0  1.036656  0  0  0.092579  0  1.040066  0  0.111859  0  0.111137  0.093688  0  1.034412  0
H  H37  1  0.18933463  0.96698588  0.02441267  1  0  0.081996  0  0.966364  0  0  0.093276  0  1.036647  0  0  0.092573  0  1.040063  0  0.111848  0  0.11113  0.093684  0  1.034403  0
H  H38  1  0.80549503  0.89152724  0.94488215  1  0  0.100413  0  0.923275  0  0  0.113536  0  0.987428  0  0  0.114723  0  0.986421  0  0.090278  0  0.115768  0.112593  0  0.988262  0
H  H39  1  0.19450620  0.10847123  0.05511755  1  0  0.100375  0  0.923286  0  0  0.11351  0  0.987425  0  0  0.114698  0  0.986416  0  0.090285  0  0.115765  0.112566  0  0.988261  0
H  H40  1  0.58728093  0.17415773  0.11476994  1  0  0.10461  0  0.929171  0  0  0.114246  0  0.992136  0  0  0.116379  0  0.989665  0  0.148796  0  0.138821  0.112625  0  0.993984  0
H  H41  1  0.41271872  0.82584164  0.88522995  1  0  0.104592  0  0.929216  0  0  0.114225  0  0.992192  0  0  0.116358  0  0.989721  0  0.148771  0  0.138804  0.112605  0  0.994039  0
H  H42  1  0.32809031  0.95400152  0.23682326  1  0  0.091887  0  0.990431  0  0  0.102035  0  1.053773  0  0  0.103532  0  1.054039  0  0.091538  0  0.11163  0.100953  0  1.053645  0
H  H43  1  0.67190935  0.04599784  0.76317662  1  0  0.09189  0  0.990449  0  0  0.10204  0  1.053787  0  0  0.103542  0  1.054041  0  0.091579  0  0.111628  0.100959  0  1.053659  0
H  H44  1  0.60916563  0.81711410  0.09395382  1  0  0.112326  0  0.954905  0  0  0.123113  0  1.015547  0  0  0.125512  0  1.014895  0  0.141467  0  0.121558  0.121342  0  1.016163  0
H  H45  1  0.39083447  0.18288438  0.90604602  1  0  0.112325  0  0.954896  0  0  0.123112  0  1.015537  0  0  0.125512  0  1.014885  0  0.141501  0  0.121559  0.121342  0  1.016153  0
C  C46  1  0.19304614  0.74256369  0.08668585  1  0  0.077779  0  3.782076  0  0  0.099985  0  4.024107  0  0  0.099395  0  4.048951  0  -0.111113  0  -0.01669  0.100388  0  4.00722  0
C  C47  1  0.80695352  0.25743567  0.91331482  1  0  0.07769  0  3.782147  0  0  0.099945  0  4.024089  0  0  0.099365  0  4.04894  0  -0.111097  0  -0.016699  0.100349  0  4.007199  0
C  C48  1  0.18369374  0.79209907  0.18808866  1  0  -0.185878  0  3.755119  0  0  -0.215606  0  4.000385  0  0  -0.219464  0  4.022408  0  -0.014642  0  -0.096748  -0.212852  0  3.985416  0
C  C49  1  0.81630733  0.20790207  0.81191105  1  0  -0.185897  0  3.755137  0  0  -0.215644  0  4.000383  0  0  -0.219489  0  4.022407  0  -0.014648  0  -0.096779  -0.21289  0  3.985415  0
C  C50  1  0.05128060  0.89391323  0.23196516  1  0  0.087127  0  3.766662  0  0  0.109124  0  4.008548  0  0  0.108665  0  4.032604  0  0.005172  0  -0.011896  0.109426  0  3.992219  0
C  C51  1  0.94872090  0.10608702  0.76803528  1  0  0.08711  0  3.766598  0  0  0.109147  0  4.00851  0  0  0.108693  0  4.032559  0  0.004972  0  -0.011879  0.109447  0  3.992183  0
C  C52  1  0.92735201  0.94561357  0.17389502  1  0  -0.150221  0  3.659157  0  0  -0.182793  0  3.904443  0  0  -0.18528  0  3.923878  0  -0.09057  0  -0.089451  -0.181017  0  3.891341  0
C  C53  1  0.07264792  0.05438758  0.82610561  1  0  -0.150203  0  3.659081  0  0  -0.182798  0  3.904408  0  0  -0.185285  0  3.923843  0  -0.090387  0  -0.089493  -0.181022  0  3.891308  0
C  C54  1  0.93404095  0.89542487  0.07333897  1  0  0.081083  0  3.760213  0  0  0.10491  0  3.997535  0  0  0.104644  0  4.021132  0  -0.075709  0  -0.011167  0.105083  0  3.981505  0
C  C55  1  0.06595915  0.10457361  0.92666166  1  0  0.081127  0  3.760082  0  0  0.104933  0  3.997474  0  0  0.104666  0  4.021072  0  -0.075718  0  -0.011136  0.105106  0  3.981442  0
C  C56  1  0.06767768  0.79438969  0.02946004  1  0  -0.167773  0  3.684302  0  0  -0.195607  0  3.925887  0  0  -0.199064  0  3.946191  0  0.008768  0  -0.091553  -0.193149  0  3.912254  0
C  C57  1  0.93232084  0.20560967  0.97054156  1  0  -0.167817  0  3.684285  0  0  -0.19567  0  3.925876  0  0  -0.199127  0  3.946178  0  0.008774  0  -0.091553  -0.193202  0  3.912252  0
C  C58  1  0.33318223  0.63037666  0.04092365  1  0  -0.051413  0  3.637384  0  0  -0.119355  0  3.888063  0  0  -0.114874  0  3.897767  0  0.260249  0  -0.049105  -0.12226  0  3.881566  0
C  C59  1  0.66681699  0.36962359  0.95907707  1  0  -0.051418  0  3.637386  0  0  -0.119296  0  3.88795  0  0  -0.114854  0  3.897707  0  0.260237  0  -0.049077  -0.122202  0  3.881454  0
C  C60  1  0.31231660  0.46555879  0.15969250  1  0  0.152693  0  3.667734  0  0  0.091422  0  3.93363  0  0  0.104463  0  3.947411  0  0.976511  0  0.137884  0.083035  0  3.924007  0
C  C61  1  0.68768323  0.53443790  0.84030580  1  0  0.15252  0  3.667734  0  0  0.091255  0  3.933638  0  0  0.10434  0  3.94744  0  0.975987  0  0.137796  0.082869  0  3.924014  0
C  C62  1  0.18139817  0.38728991  0.07130518  1  0  -0.01084  0  3.777941  0  0  -0.043771  0  4.043983  0  0  -0.042215  0  4.064647  0  0.42175  0  -0.010234  -0.044854  0  4.03005  0
C  C63  1  0.81859877  0.61271035  0.92869268  1  0  -0.010844  0  3.777956  0  0  -0.043776  0  4.043986  0  0  -0.042221  0  4.064656  0  0.421775  0  -0.010215  -0.044857  0  4.030054  0
C  C64  1  0.20954771  0.47583450  0.01141394  1  0  -0.074756  0  3.65292  0  0  -0.112542  0  3.90271  0  0  -0.111524  0  3.921589  0  0.247337  0  -0.001621  -0.113106  0  3.890045  0
C  C65  1  0.79044835  0.52416753  0.98858560  1  0  -0.074766  0  3.652941  0  0  -0.112559  0  3.902752  0  0  -0.111536  0  3.92163  0  0.247013  0  -0.001634  -0.113121  0  3.890086  0
C  C66  1  0.04244533  0.95078217  0.33962018  1  0  -0.055198  0  3.642591  0  0  -0.11944  0  3.886037  0  0  -0.1151  0  3.896156  0  0.277957  0  -0.050494  -0.12227  0  3.879359  0
C  C67  1  0.95755503  0.04921808  0.66038040  1  0  -0.055172  0  3.642529  0  0  -0.119518  0  3.886121  0  0  -0.115194  0  3.896266  0  0.277952  0  -0.050491  -0.122355  0  3.879442  0
C  C68  1  0.94386489  0.84273253  0.49053719  1  0  0.163803  0  3.644463  0  0  0.101714  0  3.912166  0  0  0.115288  0  3.925209  0  0.968698  0  0.140405  0.092986  0  3.903003  0
C  C69  1  0.05613732  0.15726862  0.50946238  1  0  0.163668  0  3.644504  0  0  0.101593  0  3.912191  0  0  0.115165  0  3.925235  0  0.968581  0  0.140337  0.092861  0  3.903032  0
C  C70  1  0.68824037  0.95730644  0.53391245  1  0  -0.017514  0  3.794705  0  0  -0.04835  0  4.058555  0  0  -0.046426  0  4.078818  0  0.403833  0  -0.009837  -0.049647  0  4.04482  0
C  C71  1  0.31176358  0.04269114  0.46608848  1  0  -0.017506  0  3.794661  0  0  -0.048328  0  4.058512  0  0  -0.046404  0  4.078776  0  0.403764  0  -0.009828  -0.049625  0  4.044776  0
C  C72  1  0.75685467  0.00737188  0.45008465  1  0  -0.076617  0  3.655151  0  0  -0.115428  0  3.910357  0  0  -0.114444  0  3.928369  0  0.19816  0  -0.003037  -0.115997  0  3.898324  0
C  C73  1  0.24314657  0.99262659  0.54991661  1  0  -0.076766  0  3.655269  0  0  -0.115554  0  3.910497  0  0  -0.114563  0  3.928495  0  0.198158  0  -0.003087  -0.116122  0  3.898463  0
C  C74  1  0.79941939  0.95226974  0.01109546  1  0  -0.04797  0  3.640222  0  0  -0.112957  0  3.883128  0  0  -0.108616  0  3.893806  0  0.311983  0  -0.04606  -0.115784  0  3.875993  0
C  C75  1  0.20058140  0.04772962  0.98890429  1  0  -0.047962  0  3.640214  0  0  -0.112965  0  3.883208  0  0  -0.108625  0  3.893885  0  0.311982  0  -0.046071  -0.115794  0  3.876075  0
C  C76  1  0.54983578  0.09777393  0.12803756  1  0  0.170716  0  3.652378  0  0  0.108346  0  3.925628  0  0  0.122724  0  3.937638  0  0.973008  0  0.142885  0.099017  0  3.917199  0
C  C77  1  0.45016361  0.90222365  0.87196158  1  0  0.170722  0  3.652402  0  0  0.108349  0  3.925655  0  0  0.122728  0  3.937664  0  0.972929  0  0.142918  0.09902  0  3.917227  0
C  C78  1  0.42336248  0.97971443  0.19063000  1  0  -0.004128  0  3.78446  0  0  -0.036578  0  4.053096  0  0  -0.034558  0  4.073612  0  0.449759  0  -0.007999  -0.037947  0  4.039239  0
C  C79  1  0.57663718  0.02028493  0.80936910  1  0  -0.004194  0  3.784497  0  0  -0.036648  0  4.05314  0  0  -0.034628  0  4.07366  0  0.44966  0  -0.008044  -0.038016  0  4.039282  0
C  C80  1  0.56058660  0.91099397  0.12006434  1  0  -0.071907  0  3.689173  0  0  -0.114218  0  3.948953  0  0  -0.112612  0  3.967715  0  0.255248  0  -0.003941  -0.115212  0  3.936356  0
C  C81  1  0.43941349  0.08900450  0.87993471  1  0  -0.071859  0  3.689122  0  0  -0.114166  0  3.948894  0  0  -0.11256  0  3.967659  0  0.255219  0  -0.003922  -0.115161  0  3.936297  0
S  S82  1  0.81514386  0.29972752  0.27301021  1  0  1.554237  0  5.875178  0  0  1.439054  0  6.419992  0  0  1.494041  0  6.38399  0  3.762729  0  0.532204  1.400992  0  6.443625  0
S  S83  1  0.18485563  0.70027452  0.72698811  1  0  1.554274  0  5.875281  0  0  1.439066  0  6.420106  0  0  1.494057  0  6.384101  0  3.763042  0  0.53218  1.400999  0  6.443744  0
N  N84  1  0.29267945  0.52428429  0.06869096  1  0  -0.059903  0  3.570695  0  0  0.035253  0  3.788648  0  0  0.020104  0  3.815985  0  -1.22119  0  -0.243973  0.045313  0  3.769978  0
N  N85  1  0.70731907  0.47571507  0.93130907  1  0  -0.059818  0  3.570632  0  0  0.035332  0  3.788554  0  0  0.020198  0  3.815888  0  -1.220841  0  -0.24392  0.045392  0  3.769883  0
N  N86  1  0.24599526  0.38170418  0.16311048  1  0  -0.395873  0  3.27909  0  0  -0.319583  0  3.562123  0  0  -0.340467  0  3.580724  0  -1.217306  0  -0.359773  -0.305221  0  3.548983  0
N  N87  1  0.75400369  0.61829429  0.83688793  1  0  -0.395816  0  3.279122  0  0  -0.319528  0  3.562155  0  0  -0.340411  0  3.580744  0  -1.21733  0  -0.359723  -0.305166  0  3.549015  0
N  N88  1  0.91894445  0.93353566  0.42402390  1  0  -0.05385  0  3.567812  0  0  0.039445  0  3.787633  0  0  0.024589  0  3.814861  0  -1.215468  0  -0.241272  0.049309  0  3.769004  0
N  N89  1  0.08105862  0.06646371  0.57597634  1  0  -0.053739  0  3.567704  0  0  0.039575  0  3.787552  0  0  0.024724  0  3.814782  0  -1.215369  0  -0.241263  0.049439  0  3.768925  0
N  N90  1  0.80574579  0.85528282  0.55823977  1  0  -0.39073  0  3.272006  0  0  -0.314951  0  3.553448  0  0  -0.335604  0  3.571001  0  -1.215883  0  -0.361357  -0.300767  0  3.541032  0
N  N91  1  0.19425930  0.14471476  0.44175945  1  0  -0.390714  0  3.272016  0  0  -0.314928  0  3.553437  0  0  -0.335581  0  3.570991  0  -1.215755  0  -0.361291  -0.300744  0  3.541021  0
N  N92  1  0.63887953  0.98747581  0.08043055  1  0  -0.060695  0  3.591777  0  0  0.033759  0  3.808437  0  0  0.018779  0  3.834881  0  -1.244089  0  -0.242607  0.043679  0  3.790416  0
N  N93  1  0.36112056  0.01252266  0.91956929  1  0  -0.060687  0  3.591778  0  0  0.033781  0  3.808429  0  0  0.0188  0  3.834873  0  -1.244067  0  -0.242603  0.0437  0  3.790407  0
N  N94  1  0.41773531  0.09603948  0.19498611  1  0  -0.391714  0  3.21167  0  0  -0.320688  0  3.497023  0  0  -0.340638  0  3.513176  0  -1.225961  0  -0.355386  -0.307007  0  3.485641  0
N  N95  1  0.58226320  0.90395989  0.80501313  1  0  -0.391684  0  3.211699  0  0  -0.320658  0  3.497055  0  0  -0.340608  0  3.513209  0  -1.225815  0  -0.355359  -0.306976  0  3.485674  0
O  O96  1  0.01725987  0.41427469  0.42179418  1  0  -0.858497  0  1.864549  0  0  -0.795787  0  2.056306  0  0  -0.818496  0  2.022953  0  -1.253381  0  -0.591654  -0.779633  0  2.077529  0
O  O97  1  0.98274022  0.58572378  0.57820958  1  0  -0.858558  0  1.864474  0  0  -0.795878  0  2.056188  0  0  -0.818584  0  2.022869  0  -1.253503  0  -0.591721  -0.779724  0  2.077412  0
O  O98  1  0.41700470  0.32010960  0.36483615  1  0  -0.85583  0  1.830417  0  0  -0.798585  0  2.019062  0  0  -0.818315  0  1.986393  0  -1.255714  0  -0.593055  -0.78461  0  2.041743  0
O  O99  1  0.58299359  0.67989956  0.63515681  1  0  -0.855773  0  1.830505  0  0  -0.798482  0  2.01921  0  0  -0.818208  0  1.986541  0  -1.2557  0  -0.593037  -0.784507  0  2.041891  0
O  O100  1  0.99513392  0.22700515  0.24203155  1  0  -0.778105  0  1.917789  0  0  -0.714394  0  2.191992  0  0  -0.737489  0  2.172297  0  -1.345079  0  -0.391176  -0.697797  0  2.204728  0
O  O101  1  0.00486513  0.77299777  0.75796762  1  0  -0.778161  0  1.917799  0  0  -0.714442  0  2.192014  0  0  -0.737527  0  2.172298  0  -1.345117  0  -0.391184  -0.697845  0  2.204753  0
O  O102  1  0.78010460  0.36110462  0.38205060  1  0  -0.763449  0  1.902713  0  0  -0.709273  0  2.128561  0  0  -0.729633  0  2.107688  0  -1.350804  0  -0.396847  -0.69487  0  2.142564  0
O  O103  1  0.21989445  0.63889831  0.61794699  1  0  -0.763466  0  1.902746  0  0  -0.70931  0  2.128615  0  0  -0.729671  0  2.10774  0  -1.350833  0  -0.396849  -0.694905  0  2.142618  0
O  O104  1  0.76349150  0.38654568  0.19221835  1  0  -0.747832  0  1.902058  0  0  -0.706773  0  2.150254  0  0  -0.726683  0  2.131578  0  -1.364891  0  -0.390664  -0.692587  0  2.162597  0
O  O105  1  0.23650816  0.61345368  0.80777760  1  0  -0.74783  0  1.902097  0  0  -0.70678  0  2.150307  0  0  -0.726693  0  2.13163  0  -1.365118  0  -0.390642  -0.692595  0  2.162655  0
O  O106  1  0.72398996  0.21478820  0.27943597  1  0  -0.758069  0  1.944443  0  0  -0.699185  0  2.188477  0  0  -0.721872  0  2.171236  0  -1.342058  0  -0.373246  -0.683031  0  2.199856  0
O  O107  1  0.27600953  0.78521383  0.72056315  1  0  -0.7581  0  1.944489  0  0  -0.699127  0  2.188514  0  0  -0.721818  0  2.171272  0  -1.3421  0  -0.373252  -0.682973  0  2.199896  0
