# generated using pymatgen
data_CuH16C14(N2O3)2
_symmetry_space_group_name_H-M   'P 1'
_cell_length_a   7.99802324
_cell_length_b   9.74803048
_cell_length_c   10.82815845
_cell_angle_alpha   102.70050371
_cell_angle_beta   90.00012289
_cell_angle_gamma   89.99986224
_symmetry_Int_Tables_number   1
_chemical_formula_structural   CuH16C14(N2O3)2
_chemical_formula_sum   'Cu2 H32 C28 N8 O12'
_cell_volume   823.56130694
_cell_formula_units_Z   2
loop_
 _symmetry_equiv_pos_site_id
 _symmetry_equiv_pos_as_xyz
  1  'x, y, z'
loop_
 _atom_site_type_symbol
 _atom_site_label
 _atom_site_symmetry_multiplicity
 _atom_site_fract_x
 _atom_site_fract_y
 _atom_site_fract_z
 _atom_site_occupancy
 _atom_site_pbe_cm5_charge
 _atom_site_pbe_ddec_charge
 _atom_site_pbe_ddec_spin_density
 _atom_site_pbe_ddec_sum_bond_order
 _atom_site_pbe_magmom
Cu  Cu0  1  0.50000104  0.49999943  0.49999950  1  0.721127  0.780553  0.726846  2.177336  0.552
Cu  Cu1  1  0.99999835  0.00000127  0.00000011  1  0.721135  0.780567  -0.726892  2.177295  -0.552
H  H2  1  0.47067880  0.72863596  0.73756432  1  0.280577  0.366353  -0.000149  0.977808  0.0
H  H3  1  0.97067857  0.77136237  0.76243322  1  0.280568  0.366313  0.00015  0.977852  0.0
H  H4  1  0.52932078  0.27136290  0.26243560  1  0.280565  0.366321  -0.000149  0.97785  0.0
H  H5  1  0.02932225  0.22863649  0.23756578  1  0.28057  0.366328  0.00015  0.977842  0.0
H  H6  1  0.30518425  0.63594977  0.70719823  1  0.27448  0.354723  9e-05  1.003267  0.0
H  H7  1  0.80518384  0.86405095  0.79280136  1  0.274458  0.354678  -9e-05  1.003338  0.0
H  H8  1  0.69481658  0.36405015  0.29280283  1  0.274475  0.354693  9e-05  1.003314  0.0
H  H9  1  0.19481824  0.13594896  0.20719877  1  0.274461  0.354676  -9e-05  1.003337  0.0
H  H10  1  0.31393659  0.21151382  0.39505740  1  0.140321  0.112361  0.00014  1.037817  0.0
H  H11  1  0.81393585  0.28848404  0.10494321  1  0.140321  0.112297  -0.000139  1.037843  0.0
H  H12  1  0.68606174  0.78848504  0.60494160  1  0.140322  0.112336  0.00014  1.037813  0.0
H  H13  1  0.18605873  0.71151903  0.89505846  1  0.140331  0.112304  -0.00014  1.037838  0.0
H  H14  1  0.52737710  0.37855788  0.75231744  1  0.120831  0.121842  0.000319  1.014784  0.001
H  H15  1  0.02737267  0.12144245  0.74768193  1  0.120833  0.121865  -0.000318  1.014707  -0.001
H  H16  1  0.47262498  0.62143888  0.24768114  1  0.120821  0.121874  0.000319  1.014746  0.001
H  H17  1  0.97262566  0.87855852  0.25232117  1  0.120833  0.121881  -0.000318  1.014729  -0.001
H  H18  1  0.39752665  0.11158724  0.75101118  1  0.123502  0.129603  0.000176  1.039673  0.0
H  H19  1  0.89752229  0.38841248  0.74898958  1  0.123511  0.129603  -0.000176  1.039701  0.0
H  H20  1  0.60247542  0.88840952  0.24898740  1  0.123496  0.129586  0.000176  1.039716  0.0
H  H21  1  0.10247979  0.61158953  0.25100911  1  0.12352  0.1296  -0.000176  1.039754  0.0
H  H22  1  0.21810930  0.98160315  0.41105873  1  0.119341  0.098401  -1.3e-05  1.014239  0.0
H  H23  1  0.71810931  0.51839571  0.08893885  1  0.119337  0.098415  1.3e-05  1.014267  0.0
H  H24  1  0.78188778  0.01839571  0.58893934  1  0.119326  0.098403  -1.3e-05  1.014271  0.0
H  H25  1  0.28189152  0.48160524  0.91105779  1  0.11934  0.098425  1.3e-05  1.014291  0.0
H  H26  1  0.24826974  0.90849977  0.67627557  1  0.102444  0.154708  -0.000409  1.035424  0.0
H  H27  1  0.74826772  0.59149894  0.82372538  1  0.102469  0.154756  0.00041  1.035368  0.0
H  H28  1  0.75172983  0.09149698  0.32372209  1  0.102446  0.154741  -0.000409  1.035389  0.0
H  H29  1  0.25173186  0.40850096  0.17627382  1  0.102459  0.154715  0.00041  1.035379  0.0
H  H30  1  0.15759103  0.79921627  0.52887076  1  0.097936  0.144892  4.4e-05  1.026522  0.0
H  H31  1  0.65759162  0.70078259  0.97113008  1  0.09793  0.144886  -4.4e-05  1.026547  0.0
H  H32  1  0.84240729  0.20078259  0.47112917  1  0.097944  0.144928  4.4e-05  1.026513  0.0
H  H33  1  0.34240921  0.29921942  0.02886861  1  0.097939  0.144905  -4.4e-05  1.026536  0.0
C  C34  1  0.35512314  0.22360192  0.49191311  1  0.145162  0.092215  -0.000803  3.895445  -0.001
C  C35  1  0.85512090  0.27639482  0.00808643  1  0.145249  0.092425  0.000803  3.895366  0.001
C  C36  1  0.64487644  0.77639589  0.50808569  1  0.145173  0.092278  -0.000803  3.895416  -0.001
C  C37  1  0.14487618  0.72360405  0.99191534  1  0.145241  0.092419  0.000803  3.895372  0.001
C  C38  1  0.46434403  0.30345826  0.67842744  1  0.004095  -0.013677  0.001255  3.964634  0.001
C  C39  1  0.96434044  0.19654028  0.82157136  1  0.004107  -0.013688  -0.001255  3.964546  -0.001
C  C40  1  0.53565680  0.69653849  0.32157115  1  0.004069  -0.013797  0.001255  3.964645  0.001
C  C41  1  0.03565789  0.80346173  0.17842918  1  0.004066  -0.013783  -0.001255  3.964632  -0.001
C  C42  1  0.12096608  0.49996012  0.46257044  1  0.092377  0.139911  0.006667  4.16778  0.003
C  C43  1  0.62096599  0.00004016  0.03743127  1  0.092358  0.139875  -0.006663  4.167719  -0.003
C  C44  1  0.87903725  0.50003665  0.53743370  1  0.092293  0.139857  0.006667  4.167806  0.003
C  C45  1  0.37903359  0.99996186  0.96257112  1  0.092377  0.139975  -0.006663  4.167701  -0.003
C  C46  1  0.40059847  0.17298005  0.67913855  1  0.001013  -0.107128  0.001965  3.887981  0.002
C  C47  1  0.90059700  0.32701860  0.82086109  1  0.001007  -0.107131  -0.001965  3.887986  -0.002
C  C48  1  0.59939986  0.82701775  0.32085932  1  0.001072  -0.107013  0.001965  3.888005  0.002
C  C49  1  0.09940258  0.67298341  0.17913853  1  0.001039  -0.107084  -0.001965  3.888043  -0.002
C  C50  1  0.95521471  0.45034876  0.41039504  1  0.098491  0.156714  0.014501  4.15478  0.016
C  C51  1  0.45521504  0.04965098  0.08960894  1  0.098449  0.156681  -0.014497  4.154841  -0.016
C  C52  1  0.04478862  0.54965012  0.58960951  1  0.098461  0.15673  0.014501  4.154802  0.016
C  C53  1  0.54478579  0.95035104  0.91039253  1  0.09848  0.156698  -0.014498  4.154672  -0.016
C  C54  1  0.25150643  0.99346945  0.51045042  1  0.009836  0.031099  0.000583  4.026261  0.001
C  C55  1  0.75150514  0.50652715  0.98954827  1  0.00981  0.031007  -0.000583  4.026298  -0.001
C  C56  1  0.74849315  0.00652835  0.48954744  1  0.009798  0.031026  0.000583  4.026367  0.001
C  C57  1  0.24849694  0.49347381  0.01045114  1  0.009792  0.030924  -0.000583  4.026544  -0.001
C  C58  1  0.21898863  0.89592520  0.57618840  1  -0.181337  -0.334237  -0.000688  3.849974  -0.001
C  C59  1  0.71898686  0.60407566  0.92381109  1  -0.181344  -0.334256  0.000688  3.849864  0.001
C  C60  1  0.78101220  0.10407261  0.42380947  1  -0.181308  -0.334263  -0.000688  3.849957  -0.001
C  C61  1  0.28101522  0.39592845  0.07618802  1  -0.181321  -0.334177  0.000688  3.850017  0.001
N  N62  1  0.43484277  0.33343339  0.56110411  1  -0.38145  -0.285809  0.043069  3.665501  0.052
N  N63  1  0.93484086  0.16656415  0.93889445  1  -0.381493  -0.285868  -0.04307  3.665558  -0.052
N  N64  1  0.56515806  0.66656441  0.43889469  1  -0.38148  -0.2858  0.043067  3.665524  0.052
N  N65  1  0.06515746  0.83343681  0.06110496  1  -0.381496  -0.285886  -0.043068  3.665543  -0.052
N  N66  1  0.33124123  0.12326247  0.55998268  1  -0.22889  0.054108  0.001313  3.824673  0.002
N  N67  1  0.83123871  0.37673526  0.94001759  1  -0.228949  0.054038  -0.001313  3.824807  -0.002
N  N68  1  0.66875835  0.87673534  0.44001519  1  -0.228884  0.054061  0.001313  3.824796  0.002
N  N69  1  0.16876087  0.62326571  0.05998275  1  -0.228942  0.054102  -0.001313  3.824769  -0.002
O  O70  1  0.26234344  0.49842736  0.41144091  1  -0.286835  -0.398418  0.063427  2.427642  0.086
O  O71  1  0.76234100  0.00157374  0.08856210  1  -0.286834  -0.398395  -0.063417  2.427634  -0.086
O  O72  1  0.73765989  0.50157150  0.58856178  1  -0.286787  -0.398408  0.063426  2.427617  0.086
O  O73  1  0.23765858  0.99842723  0.91144008  1  -0.286835  -0.398454  -0.063419  2.427631  -0.086
O  O74  1  0.42878981  0.63148904  0.71366644  1  -0.60501  -0.789753  0.005252  2.071185  0.008
O  O75  1  0.92878937  0.86850936  0.78633105  1  -0.604997  -0.789674  -0.005253  2.07124  -0.008
O  O76  1  0.57121102  0.36850982  0.28633256  1  -0.604995  -0.789695  0.005252  2.071244  0.008
O  O77  1  0.07121271  0.13148949  0.21366795  1  -0.604991  -0.789692  -0.005252  2.071223  -0.008
O  O78  1  0.90613002  0.38926244  0.30208309  1  -0.287411  -0.41815  0.012837  2.330203  0.016
O  O79  1  0.40613048  0.11073843  0.19791918  1  -0.287395  -0.418141  -0.012831  2.33028  -0.016
O  O80  1  0.09387081  0.61074064  0.69792043  1  -0.287386  -0.418143  0.012838  2.330263  0.016
O  O81  1  0.59386910  0.88926044  0.80208259  1  -0.287412  -0.418156  -0.012832  2.330144  -0.016
