# generated using pymatgen
data_PrH9C10O9
_symmetry_space_group_name_H-M   'P 1'
_cell_length_a   6.67039426
_cell_length_b   10.17791630
_cell_length_c   10.93860334
_cell_angle_alpha   117.72398577
_cell_angle_beta   101.71832646
_cell_angle_gamma   90.00473925
_symmetry_Int_Tables_number   1
_chemical_formula_structural   PrH9C10O9
_chemical_formula_sum   'Pr2 H18 C20 O18'
_cell_volume   639.83120350
_cell_formula_units_Z   2
loop_
 _symmetry_equiv_pos_site_id
 _symmetry_equiv_pos_as_xyz
  1  'x, y, z'
loop_
 _atom_site_type_symbol
 _atom_site_label
 _atom_site_symmetry_multiplicity
 _atom_site_fract_x
 _atom_site_fract_y
 _atom_site_fract_z
 _atom_site_occupancy
 _atom_site_hle17_bader_spin_density
 _atom_site_hle17_ddec_charge
 _atom_site_hle17_ddec_spin_density
 _atom_site_hle17_ddec_sum_bond_order
 _atom_site_hle17_magmom
 _atom_site_hse06_10hf_bader_spin_density
 _atom_site_hse06_10hf_ddec_charge
 _atom_site_hse06_10hf_ddec_spin_density
 _atom_site_hse06_10hf_ddec_sum_bond_order
 _atom_site_hse06_10hf_magmom
 _atom_site_hse06_bader_spin_density
 _atom_site_hse06_ddec_charge
 _atom_site_hse06_ddec_spin_density
 _atom_site_hse06_ddec_sum_bond_order
 _atom_site_hse06_magmom
 _atom_site_pbe_bader_spin_density
 _atom_site_pbe_cm5_charge
 _atom_site_pbe_ddec_charge
 _atom_site_pbe_ddec_spin_density
 _atom_site_pbe_ddec_sum_bond_order
 _atom_site_pbe_magmom
Pr  Pr0  1  0.96010273  0.81912891  0.10854747  1  0  2.301191  0  1.578889  0  0  2.131815  0  2.044372  0  0  2.222522  0  1.903444  0  0  1.476053  2.101468  0  2.077524  0
Pr  Pr1  1  0.46007738  0.28942630  0.10865919  1  0  2.301496  0  1.578946  0  0  2.13271  0  2.043422  0  0  2.222813  0  1.903577  0  0  1.476348  2.102375  0  2.076563  0
H  H2  1  0.96698178  0.19793205  0.73274841  1  0  0.105785  0  0.935179  0  0  0.116042  0  0.993293  0  0  0.119617  0  0.99068  0  0  0.109351  0.113696  0  0.994835  0
H  H3  1  0.46667031  0.53479007  0.73273106  1  0  0.104788  0  0.935364  0  0  0.114854  0  0.994032  0  0  0.118439  0  0.991406  0  0  0.108684  0.11251  0  0.995568  0
H  H4  1  0.78678818  0.13196155  0.48358482  1  0  0.107306  0  0.950899  0  0  0.117096  0  1.01247  0  0  0.120703  0  1.010446  0  0  0.109703  0.114564  0  1.013987  0
H  H5  1  0.28692548  0.35163314  0.48348666  1  0  0.107176  0  0.950644  0  0  0.116659  0  1.012755  0  0  0.120271  0  1.010683  0  0  0.109578  0.114107  0  1.014295  0
H  H6  1  0.91066751  0.58739319  0.57995339  1  0  0.117955  0  0.954478  0  0  0.126751  0  1.016337  0  0  0.130988  0  1.013175  0  0  0.108484  0.123837  0  1.018441  0
H  H7  1  0.41084627  0.99253323  0.57983443  1  0  0.118098  0  0.95369  0  0  0.126944  0  1.015585  0  0  0.131142  0  1.012467  0  0  0.108593  0.124039  0  1.017694  0
H  H8  1  0.00614778  0.80454805  0.74545808  1  0  0.0929  0  0.927798  0  0  0.103821  0  0.990427  0  0  0.106172  0  0.987192  0  0  0.114965  0.102191  0  0.992615  0
H  H9  1  0.50613978  0.94093582  0.74555279  1  0  0.092942  0  0.928039  0  0  0.104084  0  0.990691  0  0  0.106412  0  0.987537  0  0  0.114792  0.102457  0  0.992858  0
H  H10  1  0.25978311  0.74515025  0.74670748  1  0  0.093378  0  0.901748  0  0  0.109208  0  0.956872  0  0  0.110598  0  0.954974  0  0  0.116669  0.108076  0  0.958297  0
H  H11  1  0.75979237  0.00168365  0.74684335  1  0  0.093697  0  0.901656  0  0  0.109391  0  0.957091  0  0  0.110816  0  0.955205  0  0  0.116534  0.108248  0  0.958502  0
H  H12  1  0.53556298  0.88206400  0.21325593  1  0  0.453045  0  0.807241  0  0  0.431025  0  0.861576  0  0  0.439766  0  0.848959  0  0  0.328001  0.424897  0  0.870592  0
H  H13  1  0.03563204  0.33110794  0.21332182  1  0  0.453248  0  0.806776  0  0  0.431167  0  0.861388  0  0  0.439901  0  0.848777  0  0  0.328086  0.425038  0  0.870405  0
H  H14  1  0.63845468  0.03578651  0.24526135  1  0  0.452781  0  0.841073  0  0  0.42068  0  0.906602  0  0  0.431289  0  0.891245  0  0  0.308588  0.413043  0  0.917793  0
H  H15  1  0.13832932  0.20937605  0.24536255  1  0  0.453588  0  0.840038  0  0  0.421509  0  0.905455  0  0  0.432108  0  0.890115  0  0  0.30875  0.41388  0  0.916638  0
H  H16  1  0.80711788  0.60160726  0.19256277  1  0  0.426579  0  0.880347  0  0  0.393126  0  0.948521  0  0  0.405052  0  0.931196  0  0  0.295622  0.384547  0  0.961143  0
H  H17  1  0.30693602  0.59074789  0.19232004  1  0  0.426075  0  0.880999  0  0  0.392977  0  0.948598  0  0  0.404892  0  0.93129  0  0  0.295504  0.384404  0  0.961202  0
H  H18  1  0.01492764  0.67388303  0.31040959  1  0  0.436434  0  0.816712  0  0  0.420774  0  0.866212  0  0  0.429288  0  0.853815  0  0  0.325359  0.414644  0  0.8753  0
H  H19  1  0.51448286  0.63633069  0.31040722  1  0  0.437726  0  0.815493  0  0  0.421899  0  0.864874  0  0  0.430433  0  0.852429  0  0  0.325828  0.415769  0  0.873966  0
C  C20  1  0.01135258  0.54097066  0.75626303  1  0  0.278154  0  3.765323  0  0  0.261588  0  4.030925  0  0  0.273156  0  4.048062  0  0  0.099545  0.253531  0  4.020343  0
C  C21  1  0.51121878  0.21530423  0.75620230  1  0  0.278014  0  3.765817  0  0  0.261393  0  4.030643  0  0  0.272979  0  4.047718  0  0  0.098917  0.25337  0  4.020082  0
C  C22  1  0.02603131  0.43016401  0.80009043  1  0  -0.173302  0  3.714623  0  0  -0.161955  0  3.959067  0  0  -0.172199  0  3.980004  0  0  -0.017706  -0.154787  0  3.944827  0
C  C23  1  0.52580659  0.36994070  0.80008518  1  0  -0.174965  0  3.717084  0  0  -0.162533  0  3.959437  0  0  -0.172923  0  3.980596  0  0  -0.018054  -0.155395  0  3.945225  0
C  C24  1  0.94825705  0.28287786  0.69843114  1  0  -0.040887  0  3.73312  0  0  -0.064942  0  3.990999  0  0  -0.063681  0  4.010964  0  0  -0.076225  -0.065651  0  3.976938  0
C  C25  1  0.44803790  0.41553518  0.69839863  1  0  -0.038731  0  3.730756  0  0  -0.062973  0  3.988298  0  0  -0.061703  0  4.008309  0  0  -0.075146  -0.063667  0  3.974233  0
C  C26  1  0.85061624  0.24612762  0.56009591  1  0  -0.078179  0  3.72283  0  0  -0.10829  0  3.982921  0  0  -0.110955  0  4.003699  0  0  -0.08409  -0.106376  0  3.968586  0
C  C27  1  0.35063854  0.31392147  0.56000055  1  0  -0.078492  0  3.721777  0  0  -0.108391  0  3.98226  0  0  -0.111083  0  4.003105  0  0  -0.084345  -0.106443  0  3.967875  0
C  C28  1  0.83678900  0.35765049  0.51893817  1  0  -0.008439  0  3.73614  0  0  0.012587  0  3.97136  0  0  0.009979  0  3.990538  0  0  -0.003819  0.014514  0  3.958091  0
C  C29  1  0.33681494  0.16123930  0.51881248  1  0  -0.007781  0  3.734894  0  0  0.012825  0  3.970866  0  0  0.010237  0  3.990018  0  0  -0.003593  0.014727  0  3.957596  0
C  C30  1  0.92144417  0.50407474  0.61618367  1  0  -0.197661  0  3.711642  0  0  -0.228085  0  3.96358  0  0  -0.233429  0  3.982108  0  0  -0.095189  -0.22442  0  3.950557  0
C  C31  1  0.42147937  0.11208098  0.61608115  1  0  -0.197985  0  3.709755  0  0  -0.228529  0  3.962047  0  0  -0.233827  0  3.980514  0  0  -0.095507  -0.224897  0  3.949076  0
C  C32  1  0.14225387  0.78687791  0.80954940  1  0  -0.056178  0  3.618719  0  0  -0.116474  0  3.883371  0  0  -0.112065  0  3.883386  0  0  -0.058016  -0.119429  0  3.883712  0
C  C33  1  0.64221462  0.02274043  0.80963547  1  0  -0.056866  0  3.62062  0  0  -0.118109  0  3.885968  0  0  -0.113859  0  3.886197  0  0  -0.057913  -0.120971  0  3.88617  0
C  C34  1  0.22532373  0.93514417  0.94176898  1  0  0.710056  0  3.884402  0  0  0.664437  0  4.185038  0  0  0.69731  0  4.18015  0  0  0.225222  0.641742  0  4.191152  0
C  C35  1  0.72535723  0.00683160  0.94190667  1  0  0.709338  0  3.886429  0  0  0.664693  0  4.18589  0  0  0.697614  0  4.180971  0  0  0.223938  0.641976  0  4.19202  0
C  C36  1  0.12782684  0.46055532  0.94711365  1  0  0.728912  0  3.821112  0  0  0.678342  0  4.117423  0  0  0.714279  0  4.108182  0  0  0.236339  0.65372  0  4.125266  0
C  C37  1  0.62752196  0.48658845  0.94712803  1  0  0.728994  0  3.82005  0  0  0.678598  0  4.11521  0  0  0.71462  0  4.105892  0  0  0.235832  0.653965  0  4.123091  0
C  C38  1  0.72310636  0.32639347  0.37405519  1  0  0.66012  0  3.875228  0  0  0.613651  0  4.162379  0  0  0.646807  0  4.158079  0  0  0.207685  0.590404  0  4.168039  0
C  C39  1  0.22315499  0.04758966  0.37394359  1  0  0.660717  0  3.876256  0  0  0.614652  0  4.162613  0  0  0.647817  0  4.158319  0  0  0.20863  0.591428  0  4.168289  0
O  O40  1  0.09102478  0.68409458  0.85639801  1  0  -0.326045  0  2.487191  0  0  -0.251633  0  2.72825  0  0  -0.272615  0  2.732131  0  0  -0.196661  -0.239436  0  2.725949  0
O  O41  1  0.59085017  0.17236444  0.85638601  1  0  -0.325537  0  2.487323  0  0  -0.250926  0  2.728541  0  0  -0.271756  0  2.732419  0  0  -0.195747  -0.238792  0  2.726219  0
O  O42  1  0.27995589  0.04060099  0.92050897  1  0  -0.711738  0  1.993867  0  0  -0.662728  0  2.242483  0  0  -0.69308  0  2.230785  0  0  -0.385246  -0.645379  0  2.248917  0
O  O43  1  0.77991899  0.88011934  0.92069079  1  0  -0.710856  0  1.994602  0  0  -0.662157  0  2.242815  0  0  -0.69259  0  2.231045  0  0  -0.384669  -0.644823  0  2.249292  0
O  O44  1  0.23273783  0.94431809  0.06190766  1  0  -0.716438  0  2.052934  0  0  -0.668325  0  2.305116  0  0  -0.697675  0  2.294915  0  0  -0.375208  -0.652559  0  2.312556  0
O  O45  1  0.73289959  0.11786682  0.06201093  1  0  -0.716466  0  2.053934  0  0  -0.668465  0  2.305226  0  0  -0.697697  0  2.294928  0  0  -0.375027  -0.652747  0  2.312787  0
O  O46  1  0.14968220  0.59358796  0.05195667  1  0  -0.743686  0  2.054639  0  0  -0.683641  0  2.298049  0  0  -0.714151  0  2.282852  0  0  -0.377919  -0.666404  0  2.307266  0
O  O47  1  0.64927284  0.45845341  0.05199866  1  0  -0.74376  0  2.05347  0  0  -0.683993  0  2.297175  0  0  -0.714406  0  2.281898  0  0  -0.377576  -0.66674  0  2.306386  0
O  O48  1  0.19058808  0.35038330  0.96254561  1  0  -0.715376  0  2.005119  0  0  -0.663575  0  2.257305  0  0  -0.693598  0  2.243399  0  0  -0.395931  -0.647177  0  2.2646  0
O  O49  1  0.69036435  0.61215887  0.96251185  1  0  -0.715334  0  2.004574  0  0  -0.663664  0  2.256667  0  0  -0.693753  0  2.242609  0  0  -0.395552  -0.647246  0  2.263939  0
O  O50  1  0.58078079  0.21658249  0.30455719  1  0  -0.692602  0  2.01946  0  0  -0.630776  0  2.252016  0  0  -0.660121  0  2.243113  0  0  -0.358623  -0.613014  0  2.257846  0
O  O51  1  0.08050426  0.08782689  0.30457281  1  0  -0.693787  0  2.021322  0  0  -0.631705  0  2.253494  0  0  -0.661041  0  2.244398  0  0  -0.359128  -0.613905  0  2.259223  0
O  O52  1  0.76109224  0.41323356  0.32449648  1  0  -0.705748  0  1.911679  0  0  -0.654784  0  2.13957  0  0  -0.682442  0  2.127163  0  0  -0.38276  -0.638954  0  2.147552  0
O  O53  1  0.26141109  0.91126488  0.32428124  1  0  -0.705612  0  1.912059  0  0  -0.654944  0  2.140157  0  0  -0.682641  0  2.127669  0  0  -0.382885  -0.639134  0  2.14817  0
O  O54  1  0.66565332  0.93071438  0.21896306  1  0  -0.909661  0  1.817882  0  0  -0.864101  0  2.012982  0  0  -0.887599  0  1.977075  0  0  -0.634381  -0.851814  0  2.035151  0
O  O55  1  0.16577344  0.28829432  0.21928847  1  0  -0.910802  0  1.817414  0  0  -0.865199  0  2.012736  0  0  -0.888557  0  1.97676  0  0  -0.634539  -0.852943  0  2.034986  0
O  O56  1  0.89148046  0.69898456  0.26431297  1  0  -0.888283  0  1.797326  0  0  -0.841568  0  1.965624  0  0  -0.863687  0  1.930129  0  0  -0.619859  -0.8294  0  1.988223  0
O  O57  1  0.39098535  0.56517686  0.26423290  1  0  -0.889294  0  1.796999  0  0  -0.842831  0  1.96452  0  0  -0.864886  0  1.929117  0  0  -0.620286  -0.830665  0  1.987125  0
