# generated using pymatgen
data_MgH22PtC18N4Cl2O7
_symmetry_space_group_name_H-M   'P 1'
_cell_length_a   9.15175905
_cell_length_b   11.93485031
_cell_length_c   13.67300000
_cell_angle_alpha   68.93567104
_cell_angle_beta   80.28417950
_cell_angle_gamma   68.90591580
_symmetry_Int_Tables_number   1
_chemical_formula_structural   MgH22PtC18N4Cl2O7
_chemical_formula_sum   'Mg2 H44 Pt2 C36 N8 Cl4 O14'
_cell_volume   1298.91761770
_cell_formula_units_Z   2
loop_
 _symmetry_equiv_pos_site_id
 _symmetry_equiv_pos_as_xyz
  1  'x, y, z'
loop_
 _atom_site_type_symbol
 _atom_site_label
 _atom_site_symmetry_multiplicity
 _atom_site_fract_x
 _atom_site_fract_y
 _atom_site_fract_z
 _atom_site_occupancy
 _atom_site_hle17_bader_spin_density
 _atom_site_hle17_ddec_charge
 _atom_site_hle17_ddec_spin_density
 _atom_site_hle17_ddec_sum_bond_order
 _atom_site_hle17_magmom
 _atom_site_hse06_10hf_bader_spin_density
 _atom_site_hse06_10hf_ddec_charge
 _atom_site_hse06_10hf_ddec_spin_density
 _atom_site_hse06_10hf_ddec_sum_bond_order
 _atom_site_hse06_10hf_magmom
 _atom_site_hse06_bader_spin_density
 _atom_site_hse06_ddec_charge
 _atom_site_hse06_ddec_spin_density
 _atom_site_hse06_ddec_sum_bond_order
 _atom_site_hse06_magmom
 _atom_site_pbe_bader_charge
 _atom_site_pbe_bader_spin_density
 _atom_site_pbe_cm5_charge
 _atom_site_pbe_ddec_charge
 _atom_site_pbe_ddec_spin_density
 _atom_site_pbe_ddec_sum_bond_order
 _atom_site_pbe_magmom
Mg  Mg0  1  0.75472346  0.01706985  0.05948611  1  0  1.513173  0  1.123363  0  0  1.408097  0  1.376164  0  0  1.432663  0  1.338396  0  1.698992  0  0.810635  1.390619  0  1.402674  0
Mg  Mg1  1  0.24527752  0.98293086  0.94051428  1  0  1.513186  0  1.123351  0  0  1.408112  0  1.376177  0  0  1.432678  0  1.338402  0  1.698963  0  0.810596  1.390636  0  1.402682  0
H  H2  1  0.59706070  0.88994446  0.00883691  1  0  0.416831  0  0.879283  0  0  0.38595  0  0.949585  0  0  0.395458  0  0.935373  0  0.620809  0  0.302335  0.379216  0  0.959663  0
H  H3  1  0.40294514  0.11005246  0.99116266  1  0  0.416805  0  0.87936  0  0  0.385915  0  0.94965  0  0  0.395422  0  0.935438  0  0.620761  0  0.302327  0.379181  0  0.959727  0
H  H4  1  0.63076988  0.99593195  0.90902898  1  0  0.429154  0  0.880513  0  0  0.393773  0  0.951777  0  0  0.405917  0  0.933962  0  0.65202  0  0.291623  0.385206  0  0.964324  0
H  H5  1  0.36923072  0.00406972  0.09097043  1  0  0.429143  0  0.880533  0  0  0.393771  0  0.95178  0  0  0.405914  0  0.933965  0  0.65202  0  0.291629  0.385207  0  0.964321  0
H  H6  1  0.49093290  0.45992604  0.68222366  1  0  0.1151  0  0.968294  0  0  0.124855  0  1.028386  0  0  0.128145  0  1.027941  0  0.109728  0  0.103329  0.122418  0  1.028991  0
H  H7  1  0.50906656  0.54007848  0.31778376  1  0  0.1151  0  0.968419  0  0  0.124855  0  1.028485  0  0  0.128154  0  1.028029  0  0.109667  0  0.103321  0.122424  0  1.029069  0
H  H8  1  0.62324694  0.25847291  0.82403701  1  0  0.124859  0  0.965336  0  0  0.12718  0  1.036743  0  0  0.131977  0  1.031709  0  0.148909  0  0.114507  0.12358  0  1.040555  0
H  H9  1  0.37675370  0.74152591  0.17596914  1  0  0.124809  0  0.965506  0  0  0.127137  0  1.036866  0  0  0.131928  0  1.031845  0  0.149018  0  0.114478  0.123534  0  1.040681  0
H  H10  1  0.03986610  0.36620659  0.75369031  1  0  0.102707  0  0.958423  0  0  0.10588  0  1.029627  0  0  0.109995  0  1.025026  0  0.139294  0  0.112386  0.10288  0  1.032943  0
H  H11  1  0.96014234  0.63378938  0.24630635  1  0  0.10275  0  0.958408  0  0  0.105912  0  1.029607  0  0  0.110034  0  1.024984  0  0.13934  0  0.112401  0.102912  0  1.032924  0
H  H12  1  0.40628117  0.61990238  0.55253823  1  0  0.115257  0  0.974183  0  0  0.119824  0  1.043126  0  0  0.124081  0  1.041031  0  0.159735  0  0.098982  0.116721  0  1.044896  0
H  H13  1  0.59371836  0.38009644  0.44746366  1  0  0.115241  0  0.974324  0  0  0.119822  0  1.04324  0  0  0.124075  0  1.041147  0  0.159703  0  0.098981  0.116719  0  1.04501  0
H  H14  1  0.34896913  0.78429787  0.37711730  1  0  0.113301  0  0.955716  0  0  0.120047  0  1.022127  0  0  0.12381  0  1.018692  0  0.156987  0  0.105991  0.117253  0  1.024597  0
H  H15  1  0.65102964  0.21570285  0.62288334  1  0  0.11329  0  0.955735  0  0  0.120037  0  1.022141  0  0  0.123801  0  1.0187  0  0.157051  0  0.105986  0.117241  0  1.024614  0
H  H16  1  0.81062502  0.81161894  0.36070414  1  0  0.101234  0  0.958816  0  0  0.104266  0  1.03228  0  0  0.108156  0  1.027767  0  0.172948  0  0.113581  0.101369  0  1.035606  0
H  H17  1  0.18937711  0.18837893  0.63929336  1  0  0.101214  0  0.95885  0  0  0.104243  0  1.032324  0  0  0.108133  0  1.027808  0  0.172962  0  0.11357  0.101345  0  1.03565  0
H  H18  1  0.92137113  0.99049869  0.25828320  1  0  0.04338  0  0.927614  0  0  0.050595  0  1.001503  0  0  0.052411  0  0.996146  0  0.113302  0  0.123757  0.049106  0  1.00534  0
H  H19  1  0.07862019  0.00950678  0.74171241  1  0  0.043555  0  0.927709  0  0  0.050782  0  1.001558  0  0  0.052597  0  0.9962  0  0.113204  0  0.123896  0.049294  0  1.005391  0
H  H20  1  0.94348693  0.28787252  0.07454229  1  0  0.105902  0  0.952643  0  0  0.123393  0  1.018188  0  0  0.125167  0  1.016866  0  0.093431  0  0.106546  0.122043  0  1.019169  0
H  H21  1  0.05652629  0.71212535  0.92544519  1  0  0.105872  0  0.952719  0  0  0.123357  0  1.018261  0  0  0.125129  0  1.016937  0  0.093991  0  0.10657  0.121998  0  1.019256  0
H  H22  1  0.14061275  0.24252636  0.10963018  1  0  0.099437  0  0.948433  0  0  0.118603  0  1.013212  0  0  0.119277  0  1.01317  0  0.093361  0  0.102568  0.118006  0  1.013333  0
H  H23  1  0.85940053  0.75746581  0.89036273  1  0  0.099299  0  0.948546  0  0  0.118463  0  1.013343  0  0  0.119131  0  1.013296  0  0.093671  0  0.1025  0.117872  0  1.013462  0
H  H24  1  0.98303187  0.33195389  0.17827182  1  0  0.085804  0  0.966816  0  0  0.09954  0  1.043847  0  0  0.10042  0  1.043257  0  0.056846  0  0.091043  0.098763  0  1.044362  0
H  H25  1  0.01698169  0.66804587  0.82171648  1  0  0.085769  0  0.966832  0  0  0.09952  0  1.043855  0  0  0.100393  0  1.043271  0  0.056589  0  0.091055  0.098742  0  1.044372  0
H  H26  1  0.22456090  0.05932241  0.28078224  1  0  0.103546  0  0.936869  0  0  0.122697  0  0.997072  0  0  0.123124  0  0.997727  0  0.076514  0  0.101178  0.12225  0  0.996694  0
H  H27  1  0.77544158  0.94067735  0.71921243  1  0  0.103577  0  0.936941  0  0  0.122744  0  0.997121  0  0  0.123167  0  0.997778  0  0.07653  0  0.101209  0.122299  0  0.996741  0
H  H28  1  0.07578064  0.99744361  0.35795219  1  0  0.109233  0  0.964336  0  0  0.128687  0  1.027468  0  0  0.129629  0  1.027652  0  0.098677  0  0.099249  0.127884  0  1.027415  0
H  H29  1  0.92421774  0.00255806  0.64204235  1  0  0.109301  0  0.964385  0  0  0.128754  0  1.027502  0  0  0.129691  0  1.027691  0  0.09861  0  0.099313  0.127951  0  1.027449  0
H  H30  1  0.07240505  0.15112284  0.35011191  1  0  0.093289  0  0.961077  0  0  0.102061  0  1.043174  0  0  0.104468  0  1.04009  0  0.083952  0  0.089298  0.100149  0  1.045443  0
H  H31  1  0.92759441  0.84888167  0.64988015  1  0  0.093308  0  0.96106  0  0  0.102108  0  1.043127  0  0  0.104512  0  1.040044  0  0.083878  0  0.089313  0.100191  0  1.045403  0
H  H32  1  0.54118502  0.26584418  0.12312222  1  0  0.050514  0  0.907102  0  0  0.058772  0  0.974073  0  0  0.061618  0  0.967735  0  0.103339  0  0.129215  0.056523  0  0.978752  0
H  H33  1  0.45880530  0.73415274  0.87688642  1  0  0.050527  0  0.907113  0  0  0.058772  0  0.974082  0  0  0.061616  0  0.967746  0  0.103355  0  0.129264  0.056523  0  0.97876  0
H  H34  1  0.35434154  0.32254777  0.88855475  1  0  0.122673  0  0.935553  0  0  0.144148  0  0.991784  0  0  0.145208  0  0.99162  0  0.101471  0  0.118351  0.143282  0  0.99204  0
H  H35  1  0.64565761  0.67745200  0.11144688  1  0  0.12268  0  0.93565  0  0  0.144144  0  0.991886  0  0  0.145205  0  0.99172  0  0.101411  0  0.118341  0.143279  0  0.992143  0
H  H36  1  0.28627026  0.48980896  0.86625783  1  0  0.098715  0  0.942865  0  0  0.119132  0  1.0062  0  0  0.119302  0  1.006781  0  0.074638  0  0.099637  0.118903  0  1.005909  0
H  H37  1  0.71372850  0.51019175  0.13374428  1  0  0.098707  0  0.942871  0  0  0.119138  0  1.006175  0  0  0.119307  0  1.006758  0  0.074639  0  0.099651  0.118921  0  1.005875  0
H  H38  1  0.16943748  0.39485417  0.94402349  1  0  0.100129  0  0.926918  0  0  0.123748  0  0.986746  0  0  0.124068  0  0.986796  0  0.069738  0  0.106969  0.123428  0  0.986806  0
H  H39  1  0.83055980  0.60514750  0.05597703  1  0  0.100171  0  0.926878  0  0  0.123781  0  0.986708  0  0  0.124101  0  0.986759  0  0.069633  0  0.106984  0.123461  0  0.98677  0
H  H40  1  0.18449045  0.47662367  0.09942353  1  0  0.100713  0  0.928275  0  0  0.122379  0  0.988528  0  0  0.122816  0  0.989094  0  0.069917  0  0.105011  0.121971  0  0.988218  0
H  H41  1  0.81549806  0.52336945  0.90058212  1  0  0.100551  0  0.92858  0  0  0.122284  0  0.988738  0  0  0.122691  0  0.98934  0  0.069869  0  0.104989  0.121878  0  0.988424  0
H  H42  1  0.30490182  0.56383973  0.01399744  1  0  0.100407  0  0.935152  0  0  0.119605  0  1.000099  0  0  0.120266  0  1.000085  0  0.067754  0  0.105063  0.119044  0  1.000196  0
H  H43  1  0.69508517  0.43615719  0.98601304  1  0  0.100296  0  0.935322  0  0  0.119535  0  1.00025  0  0  0.120198  0  1.000233  0  0.067778  0  0.104986  0.118974  0  1.000348  0
H  H44  1  0.37766414  0.44502303  0.13488856  1  0  0.100669  0  0.944262  0  0  0.119372  0  1.009662  0  0  0.119366  0  1.010899  0  0.070274  0  0.107138  0.119265  0  1.008934  0
H  H45  1  0.62232288  0.55497104  0.86511915  1  0  0.100726  0  0.94412  0  0  0.119388  0  1.009584  0  0  0.119407  0  1.010791  0  0.07007  0  0.107175  0.119271  0  1.008865  0
Pt  Pt46  1  0.95339221  0.61634161  0.56860496  1  0  0.357416  0  3.237278  0  0  0.278233  0  3.891415  0  0  0.301821  0  3.849228  0  0.630001  0  0.556571  0.26519  0  3.917909  0
Pt  Pt47  1  0.04660805  0.38365816  0.43139582  1  0  0.357462  0  3.23738  0  0  0.278281  0  3.89153  0  0  0.301867  0  3.849344  0  0.629765  0  0.556597  0.265244  0  3.918025  0
C  C48  1  0.69743001  0.51689550  0.64178540  1  0  0.162835  0  3.739126  0  0  0.149837  0  3.988233  0  0  0.159351  0  4.004453  0  0.414296  0  0.106487  0.143554  0  3.977461  0
C  C49  1  0.30257315  0.48310807  0.35821459  1  0  0.162887  0  3.738967  0  0  0.149774  0  3.988188  0  0  0.159287  0  4.004415  0  0.414969  0  0.106443  0.143495  0  3.977415  0
C  C50  1  0.61137287  0.43742293  0.70119634  1  0  -0.133801  0  3.695246  0  0  -0.147981  0  3.943235  0  0  -0.155492  0  3.961086  0  -0.041089  0  -0.077071  -0.143353  0  3.931636  0
C  C51  1  0.38862995  0.56257874  0.29880940  1  0  -0.133929  0  3.695231  0  0  -0.148066  0  3.943198  0  0  -0.155585  0  3.961038  0  -0.04114  0  -0.07712  -0.143435  0  3.931605  0
C  C52  1  0.68300607  0.32688716  0.78013633  1  0  0.002067  0  3.658361  0  0  -0.033613  0  3.915347  0  0  -0.024132  0  3.92572  0  0.049379  0  -0.05974  -0.039628  0  3.908535  0
C  C53  1  0.31699561  0.67311736  0.21986499  1  0  0.002212  0  3.658452  0  0  -0.033402  0  3.915401  0  0  -0.023912  0  3.925772  0  0.049226  0  -0.059625  -0.039418  0  3.908596  0
C  C54  1  0.83975792  0.29882545  0.79896871  1  0  -0.097038  0  3.704262  0  0  -0.069309  0  3.939304  0  0  -0.080525  0  3.959004  0  -0.026374  0  -0.006223  -0.062579  0  3.926531  0
C  C55  1  0.16024754  0.70117242  0.20103354  1  0  -0.097022  0  3.704475  0  0  -0.069471  0  3.939686  0  0  -0.080703  0  3.959406  0  -0.026329  0  -0.006251  -0.062741  0  3.926911  0
C  C56  1  0.91815563  0.38427631  0.74074151  1  0  0.113541  0  3.63882  0  0  0.065779  0  3.892715  0  0  0.077145  0  3.905671  0  0.48142  0  0.046653  0.058038  0  3.885001  0
C  C57  1  0.08184681  0.61572631  0.25925446  1  0  0.113473  0  3.63878  0  0  0.065798  0  3.892653  0  0  0.077171  0  3.905615  0  0.481156  0  0.046615  0.058057  0  3.884942  0
C  C58  1  0.92741839  0.17296602  0.87516156  1  0  0.699133  0  3.922034  0  0  0.641023  0  4.226701  0  0  0.675082  0  4.21735  0  1.645392  0  0.226805  0.618131  0  4.232334  0
C  C59  1  0.07257418  0.82702805  0.12484480  1  0  0.699206  0  3.921663  0  0  0.641152  0  4.226305  0  0  0.675211  0  4.216954  0  1.645512  0  0.226871  0.618262  0  4.231935  0
C  C60  1  0.64222063  0.62405851  0.54789709  1  0  0.161227  0  3.72929  0  0  0.149831  0  3.975491  0  0  0.158543  0  3.992602  0  0.42253  0  0.107197  0.144015  0  3.964196  0
C  C61  1  0.35778077  0.37593841  0.45210518  1  0  0.161326  0  3.729127  0  0  0.149992  0  3.975305  0  0  0.158704  0  3.992416  0  0.42232  0  0.107239  0.14417  0  3.964011  0
C  C62  1  0.49458577  0.66283671  0.50835748  1  0  -0.118503  0  3.678206  0  0  -0.133026  0  3.924788  0  0  -0.140059  0  3.942436  0  -0.062929  0  -0.074077  -0.128764  0  3.913327  0
C  C63  1  0.50542076  0.33716401  0.49164009  1  0  -0.118525  0  3.67804  0  0  -0.133082  0  3.924624  0  0  -0.140113  0  3.942268  0  -0.062753  0  -0.074068  -0.128817  0  3.913164  0
C  C64  1  0.46185756  0.75508247  0.41070608  1  0  -0.002668  0  3.680317  0  0  -0.035393  0  3.930738  0  0  -0.027252  0  3.943873  0  -0.002292  0  -0.06104  -0.040515  0  3.922041  0
C  C65  1  0.53814200  0.24491350  0.58929816  1  0  -0.002635  0  3.680218  0  0  -0.035353  0  3.930632  0  0  -0.027211  0  3.943768  0  -0.002321  0  -0.061023  -0.040475  0  3.921934  0
C  C66  1  0.57670463  0.80817401  0.35449695  1  0  -0.090351  0  3.700967  0  0  -0.065001  0  3.937754  0  0  -0.076211  0  3.958023  0  0.028557  0  -0.0055  -0.058275  0  3.924591  0
C  C67  1  0.42329341  0.19182576  0.64550407  1  0  -0.090403  0  3.701052  0  0  -0.065018  0  3.937851  0  0  -0.076228  0  3.958122  0  0.028522  0  -0.005524  -0.05829  0  3.924687  0
C  C68  1  0.71905670  0.77084291  0.40028331  1  0  0.12734  0  3.606707  0  0  0.080258  0  3.856726  0  0  0.091431  0  3.87043  0  0.43928  0  0.052566  0.072961  0  3.847838  0
C  C69  1  0.28094210  0.22915496  0.59971823  1  0  0.127408  0  3.606574  0  0  0.08031  0  3.856612  0  0  0.091486  0  3.870312  0  0.438943  0  0.052586  0.073009  0  3.847727  0
C  C70  1  0.55087180  0.89927178  0.24385900  1  0  0.671336  0  3.934595  0  0  0.618781  0  4.234024  0  0  0.652667  0  4.225529  0  1.626028  0  0.215107  0.595952  0  4.239043  0
C  C71  1  0.44913209  0.10073274  0.75614281  1  0  0.67123  0  3.93465  0  0  0.61858  0  4.234233  0  0  0.652464  0  4.225745  0  1.626234  0  0.215  0.59575  0  4.239249  0
C  C72  1  0.91581681  0.08246077  0.19732329  1  0  0.422808  0  3.793681  0  0  0.346792  0  4.082782  0  0  0.375897  0  4.081591  0  1.380926  0  0.186011  0.327298  0  4.083079  0
C  C73  1  0.08417780  0.91754755  0.80266667  1  0  0.42273  0  3.793379  0  0  0.346661  0  4.082473  0  0  0.375765  0  4.081281  0  1.380737  0  0.185951  0.327169  0  4.082768  0
C  C74  1  0.01815817  0.25885652  0.13984721  1  0  -0.170939  0  3.656352  0  0  -0.268065  0  3.900187  0  0  -0.264606  0  3.909806  0  0.206995  0  -0.136949  -0.270108  0  3.893741  0
C  C75  1  0.98185470  0.74113945  0.86014310  1  0  -0.170665  0  3.656278  0  0  -0.267838  0  3.900072  0  0  -0.264361  0  3.909686  0  0.206486  0  -0.136861  -0.269885  0  3.893646  0
C  C76  1  0.09981940  0.08405599  0.30639201  1  0  -0.176392  0  3.64659  0  0  -0.269575  0  3.884771  0  0  -0.267167  0  3.896203  0  0.229915  0  -0.135075  -0.270818  0  3.877061  0
C  C77  1  0.90017861  0.91594662  0.69360081  1  0  -0.176581  0  3.646795  0  0  -0.269844  0  3.884943  0  0  -0.267428  0  3.896375  0  0.229907  0  -0.135202  -0.271081  0  3.877238  0
C  C78  1  0.49037737  0.27021300  0.05357130  1  0  0.413024  0  3.793277  0  0  0.333774  0  4.085668  0  0  0.362609  0  4.083755  0  1.372314  0  0.188532  0.314469  0  4.086473  0
C  C79  1  0.50961322  0.72979151  0.94643127  1  0  0.413196  0  3.793343  0  0  0.334023  0  4.085697  0  0  0.362861  0  4.083785  0  1.372318  0  0.188634  0.314718  0  4.086503  0
C  C80  1  0.29016228  0.39673710  0.92362034  1  0  -0.167601  0  3.642901  0  0  -0.270857  0  3.890717  0  0  -0.266932  0  3.901111  0  0.23732  0  -0.133185  -0.273232  0  3.883649  0
C  C81  1  0.70983351  0.60326551  0.07638224  1  0  -0.167704  0  3.642908  0  0  -0.270916  0  3.890714  0  0  -0.266991  0  3.901113  0  0.237444  0  -0.133233  -0.273303  0  3.883638  0
C  C82  1  0.30546454  0.47010604  0.06900575  1  0  -0.172649  0  3.679476  0  0  -0.275677  0  3.93243  0  0  -0.27284  0  3.945863  0  0.250481  0  -0.12948  -0.277251  0  3.923203  0
C  C83  1  0.69452356  0.52989088  0.93100168  1  0  -0.172499  0  3.679741  0  0  -0.275549  0  3.932718  0  0  -0.272706  0  3.946151  0  0.250948  0  -0.129424  -0.277114  0  3.923495  0
N  N84  1  0.84904361  0.49130923  0.66403233  1  0  -0.228716  0  3.49045  0  0  -0.160889  0  3.789507  0  0  -0.176937  0  3.803932  0  -1.137034  0  -0.337072  -0.151012  0  3.779813  0
N  N85  1  0.15096112  0.50868769  0.33596810  1  0  -0.228739  0  3.490298  0  0  -0.160879  0  3.789338  0  0  -0.176929  0  3.803763  0  -1.137409  0  -0.337013  -0.151006  0  3.779648  0
N  N86  1  0.75163180  0.68114476  0.49481895  1  0  -0.217428  0  3.464628  0  0  -0.148584  0  3.759134  0  0  -0.165222  0  3.77471  0  -1.14379  0  -0.331518  -0.138331  0  3.748755  0
N  N87  1  0.24836956  0.31885501  0.50517805  1  0  -0.217503  0  3.464634  0  0  -0.148672  0  3.759154  0  0  -0.165311  0  3.774729  0  -1.143543  0  -0.331556  -0.138414  0  3.748772  0
N  N88  1  0.00388872  0.14068552  0.21513954  1  0  -0.071118  0  3.48137  0  0  0.033956  0  3.709487  0  0  0.013571  0  3.734882  0  -1.199408  0  -0.275452  0.047537  0  3.691874  0
N  N89  1  0.99611521  0.85931615  0.78485291  1  0  -0.071099  0  3.481204  0  0  0.034087  0  3.709236  0  0  0.013704  0  3.734625  0  -1.199356  0  -0.275537  0.047667  0  3.69162  0
N  N90  1  0.36771225  0.37469737  0.01672631  1  0  -0.100035  0  3.506528  0  0  0.005393  0  3.742862  0  0  -0.015552  0  3.768791  0  -1.211982  0  -0.282476  0.01947  0  3.724779  0
N  N91  1  0.63228285  0.62530145  0.98327754  1  0  -0.100084  0  3.50623  0  0  0.005223  0  3.742696  0  0  -0.015725  0  3.768625  0  -1.212154  0  -0.28256  0.019302  0  3.724611  0
Cl  Cl92  1  0.17394034  0.53403561  0.66591014  1  0  -0.444184  0  1.163555  0  0  -0.406394  0  1.470998  0  0  -0.424264  0  1.452608  0  -0.521299  0  -0.287437  -0.393691  0  1.482947  0
Cl  Cl93  1  0.82605728  0.46596795  0.33409339  1  0  -0.44419  0  1.163574  0  0  -0.406403  0  1.471015  0  0  -0.424273  0  1.452627  0  -0.521266  0  -0.287433  -0.393705  0  1.482966  0
Cl  Cl94  1  0.05674922  0.76630601  0.45191514  1  0  -0.43351  0  1.176749  0  0  -0.395851  0  1.479836  0  0  -0.415239  0  1.462303  0  -0.510589  0  -0.283584  -0.382125  0  1.491217  0
Cl  Cl95  1  0.94325360  0.23369565  0.54808621  1  0  -0.433526  0  1.176814  0  0  -0.395866  0  1.479897  0  0  -0.415256  0  1.462367  0  -0.510573  0  -0.2836  -0.382141  0  1.491279  0
O  O96  1  0.85207270  0.09636296  0.91953978  1  0  -0.705407  0  2.039246  0  0  -0.650076  0  2.287346  0  0  -0.673087  0  2.274769  0  -1.227811  0  -0.350833  -0.634082  0  2.295533  0
O  O97  1  0.14793421  0.90363681  0.08045805  1  0  -0.705589  0  2.038596  0  0  -0.65026  0  2.286655  0  0  -0.673272  0  2.274073  0  -1.227737  0  -0.350907  -0.634263  0  2.29484  0
O  O98  1  0.07092724  0.15275130  0.88405231  1  0  -0.69816  0  1.996447  0  0  -0.644303  0  2.235988  0  0  -0.66755  0  2.224341  0  -1.226813  0  -0.348304  -0.628222  0  2.243514  0
O  O99  1  0.92907929  0.84724942  0.11595916  1  0  -0.698065  0  1.996742  0  0  -0.6442  0  2.236242  0  0  -0.667445  0  2.224595  0  -1.226965  0  -0.348287  -0.628123  0  2.243768  0
O  O100  1  0.64540939  0.96143806  0.20469152  1  0  -0.727555  0  2.036305  0  0  -0.672822  0  2.272984  0  0  -0.696539  0  2.2615  0  -1.227575  0  -0.360867  -0.656295  0  2.280275  0
O  O101  1  0.35458234  0.03856360  0.79530889  1  0  -0.727545  0  2.036086  0  0  -0.672776  0  2.272782  0  0  -0.696497  0  2.261302  0  -1.227574  0  -0.360832  -0.656246  0  2.280068  0
O  O102  1  0.43695817  0.90317343  0.19993222  1  0  -0.617879  0  1.976844  0  0  -0.563062  0  2.201254  0  0  -0.587981  0  2.191074  0  -1.186188  0  -0.305004  -0.54558  0  2.207674  0
O  O103  1  0.56303728  0.09682728  0.80006661  1  0  -0.617776  0  1.977037  0  0  -0.562907  0  2.201479  0  0  -0.587822  0  2.191299  0  -1.186283  0  -0.304945  -0.545425  0  2.2079  0
O  O104  1  0.83206102  0.12639686  0.11956060  1  0  -0.620236  0  2.08706  0  0  -0.566442  0  2.336221  0  0  -0.588901  0  2.327653  0  -1.230883  0  -0.331106  -0.550865  0  2.34155  0
O  O105  1  0.16793546  0.87360955  0.88043632  1  0  -0.620374  0  2.086686  0  0  -0.566566  0  2.335848  0  0  -0.589024  0  2.327278  0  -1.230621  0  -0.331141  -0.550987  0  2.341173  0
O  O106  1  0.54677793  0.18354863  0.01363600  1  0  -0.586436  0  2.166812  0  0  -0.526477  0  2.416641  0  0  -0.548972  0  2.408497  0  -1.190027  0  -0.296567  -0.510979  0  2.421826  0
O  O107  1  0.45322860  0.81645209  0.98636011  1  0  -0.586488  0  2.167227  0  0  -0.526564  0  2.417041  0  0  -0.549056  0  2.408887  0  -1.190071  0  -0.296644  -0.511069  0  2.422225  0
O  O108  1  0.67359654  0.93470855  0.97943913  1  0  -0.896107  0  1.852549  0  0  -0.842848  0  2.042523  0  0  -0.859984  0  2.009435  0  -1.301258  0  -0.615711  -0.83078  0  2.065653  0
O  O109  1  0.32640628  0.06529311  0.02056222  1  0  -0.896102  0  1.852624  0  0  -0.842841  0  2.042582  0  0  -0.859974  0  2.009496  0  -1.301235  0  -0.615739  -0.830774  0  2.065706  0
