# generated using pymatgen
data_CoH14C21N2O7
_symmetry_space_group_name_H-M   'P 1'
_cell_length_a   9.54720188
_cell_length_b   10.98543754
_cell_length_c   10.74957208
_cell_angle_alpha   96.58038680
_cell_angle_beta   110.60255492
_cell_angle_gamma   113.80550132
_symmetry_Int_Tables_number   1
_chemical_formula_structural   CoH14C21N2O7
_chemical_formula_sum   'Co2 H28 C42 N4 O14'
_cell_volume   921.15778090
_cell_formula_units_Z   2
loop_
 _symmetry_equiv_pos_site_id
 _symmetry_equiv_pos_as_xyz
  1  'x, y, z'
loop_
 _atom_site_type_symbol
 _atom_site_label
 _atom_site_symmetry_multiplicity
 _atom_site_fract_x
 _atom_site_fract_y
 _atom_site_fract_z
 _atom_site_occupancy
 _atom_site_pbe_cm5_charge
 _atom_site_pbe_ddec_charge
 _atom_site_pbe_ddec_spin_density
 _atom_site_pbe_ddec_sum_bond_order
 _atom_site_pbe_magmom
Co  Co0  1  0.11346756  0.98039132  0.15267413  1  0.677209  0.783848  -1.101621  2.850684  -0.952
Co  Co1  1  0.88652709  0.01960940  0.84731803  1  0.677244  0.783865  1.101623  2.850801  0.952
H  H2  1  0.73416889  0.79386775  0.05875390  1  0.123329  0.091048  0.000286  1.040954  0.0
H  H3  1  0.26581955  0.20613386  0.94123083  1  0.123334  0.091032  -0.000286  1.041038  0.0
H  H4  1  0.53661846  0.80145047  0.16014385  1  0.109373  0.126678  8e-06  1.027783  0.0
H  H5  1  0.46337167  0.19855015  0.83984502  1  0.109356  0.126628  -8e-06  1.027804  0.0
H  H6  1  0.64327588  0.99120658  0.37127741  1  0.112059  0.117041  7.6e-05  0.981295  0.0
H  H7  1  0.35672043  0.00879108  0.62871491  1  0.11207  0.117038  -7.6e-05  0.981277  0.0
H  H8  1  0.50461616  0.17637866  0.33229796  1  0.119707  0.085944  7.7e-05  1.033587  0.0
H  H9  1  0.49538252  0.82362524  0.66769767  1  0.119688  0.08592  -7.7e-05  1.033603  0.0
H  H10  1  0.66342167  0.38139370  0.54269598  1  0.107915  0.114412  -0.000118  0.99596  0.0
H  H11  1  0.33657241  0.61860599  0.45729867  1  0.107907  0.114418  0.000118  0.995966  0.0
H  H12  1  0.50826985  0.44866841  0.65890549  1  0.107898  0.115818  0.000157  1.029354  0.0
H  H13  1  0.49172535  0.55132925  0.34109392  1  0.1079  0.115806  -0.000157  1.029375  0.0
H  H14  1  0.91061973  0.21416624  0.56876633  1  0.105876  0.119263  5.2e-05  1.011558  0.0
H  H15  1  0.08937423  0.78582521  0.43123106  1  0.10586  0.119241  -5.2e-05  1.011573  0.0
H  H16  1  0.21828484  0.37927646  0.66672629  1  0.103306  0.110532  -3.2e-05  1.037114  0.0
H  H17  1  0.78170796  0.62071291  0.33327329  1  0.103291  0.11049  3.2e-05  1.037133  0.0
H  H18  1  0.14788833  0.81870211  0.88428974  1  0.113117  0.12546  3.2e-05  1.026016  0.0
H  H19  1  0.85212280  0.18130002  0.11572073  1  0.113112  0.125428  -3.2e-05  1.02601  0.0
H  H20  1  0.51293089  0.65003030  0.85302674  1  0.306377  0.371661  3.3e-05  0.973382  0.0
H  H21  1  0.48707116  0.34997363  0.14695971  1  0.306347  0.371632  -3.3e-05  0.973422  0.0
H  H22  1  0.12921456  0.41688704  0.81139483  1  0.110031  0.115675  0.000171  1.026757  0.0
H  H23  1  0.87079662  0.58311716  0.18861776  1  0.109999  0.115606  -0.000171  1.026594  0.0
H  H24  1  0.71389555  0.45144006  0.84751452  1  0.109296  0.11042  5.8e-05  1.016263  0.0
H  H25  1  0.28610703  0.54856082  0.15247919  1  0.10931  0.110452  -5.8e-05  1.016197  0.0
H  H26  1  0.39559465  0.07440404  0.12042951  1  0.298325  0.382976  -5.9e-05  0.954858  0.0
H  H27  1  0.60441383  0.92560735  0.87958864  1  0.298356  0.383093  5.9e-05  0.954722  0.0
H  H28  1  0.32138102  0.91759766  0.13834295  1  0.291651  0.370266  0.000115  0.981288  0.0
H  H29  1  0.67861480  0.08240515  0.86164980  1  0.291647  0.37021  -0.000115  0.981306  0.0
C  C30  1  0.77931144  0.87480564  0.15295272  1  0.057665  0.10977  0.00724  3.876069  0.008
C  C31  1  0.22068493  0.12519615  0.84704102  1  0.057589  0.10982  -0.00724  3.875888  -0.008
C  C32  1  0.66990836  0.88053232  0.20996408  1  -0.079787  -0.117521  0.000183  3.946707  -0.001
C  C33  1  0.33008346  0.11946732  0.79002892  1  -0.079772  -0.117506  -0.000183  3.946682  0.001
C  C34  1  0.72958078  0.98672586  0.32841850  1  -0.062525  -0.067591  0.007743  3.905971  0.009
C  C35  1  0.27041098  0.01326966  0.67157588  1  -0.062517  -0.067556  -0.007744  3.905959  -0.009
C  C36  1  0.90345355  0.08727136  0.39273338  1  0.00083  0.046544  0.000369  4.01836  0.0
C  C37  1  0.09654100  0.91272114  0.60726431  1  0.00074  0.046469  -0.000369  4.018368  0.0
C  C38  1  0.00523961  0.07158677  0.33013507  1  0.112298  0.102853  0.004008  4.003693  0.004
C  C39  1  0.99475777  0.92840681  0.66986177  1  0.112355  0.102975  -0.004008  4.003421  -0.004
C  C40  1  0.43731987  0.20462717  0.38349066  1  0.04862  0.091314  0.00926  3.917998  0.01
C  C41  1  0.56267360  0.79536942  0.61650530  1  0.04861  0.091289  -0.00926  3.917951  -0.01
C  C42  1  0.52572433  0.32050535  0.50242933  1  -0.082381  -0.1149  -0.001564  3.975469  -0.003
C  C43  1  0.47427028  0.67949126  0.49756699  1  -0.082387  -0.114922  0.001564  3.975323  0.003
C  C44  1  0.44021009  0.35755597  0.56736166  1  -0.06623  -0.079492  0.011568  3.903223  0.013
C  C45  1  0.55978561  0.64243860  0.43263476  1  -0.066197  -0.079401  -0.011568  3.903097  -0.013
C  C46  1  0.26221522  0.27391240  0.51255829  1  -0.000164  0.051461  -0.000839  4.020337  -0.002
C  C47  1  0.73777816  0.72607801  0.48744066  1  -0.000186  0.051433  0.000839  4.020229  0.002
C  C48  1  0.18278141  0.16069324  0.39138583  1  0.109357  0.107773  0.005062  4.001717  0.006
C  C49  1  0.81721484  0.83930032  0.60861065  1  0.109372  0.107729  -0.005063  4.001478  -0.006
C  C50  1  0.98578512  0.20212600  0.51658102  1  -0.081782  -0.111625  -0.000453  3.94583  0.0
C  C51  1  0.01421052  0.79786445  0.48341771  1  -0.081707  -0.111512  0.000453  3.945888  0.0
C  C52  1  0.15692389  0.29255566  0.57247630  1  -0.08485  -0.124374  0.00012  3.964834  0.0
C  C53  1  0.84307289  0.70743482  0.42752465  1  -0.084881  -0.124412  -0.000119  3.964849  0.0
C  C54  1  0.83693633  0.72753397  0.89198802  1  0.225376  0.590602  0.005543  4.13164  0.006
C  C55  1  0.16306455  0.27246585  0.10800876  1  0.225381  0.590611  -0.005545  4.131766  -0.006
C  C56  1  0.92099828  0.64429749  0.86651941  1  -0.017399  -0.049492  0.000944  3.960873  0.001
C  C57  1  0.07900602  0.35570244  0.13348589  1  -0.017447  -0.049443  -0.000943  3.960837  -0.001
C  C58  1  0.07967870  0.70645717  0.86419199  1  -0.0655  -0.079028  0.000723  3.8819  0.001
C  C59  1  0.92033016  0.29354492  0.13581777  1  -0.065486  -0.079119  -0.000723  3.881845  -0.001
C  C60  1  0.15456668  0.62439078  0.84252610  1  -0.018681  -0.054642  -0.000209  3.993773  0.0
C  C61  1  0.84544906  0.37561558  0.15748909  1  -0.018577  -0.054353  0.00021  3.993683  0.0
C  C62  1  0.32688728  0.69070267  0.84684607  1  0.236566  0.586849  -3.5e-05  4.109007  0.0
C  C63  1  0.67311978  0.30929016  0.15317695  1  0.236414  0.58661  3.5e-05  4.109357  0.0
C  C64  1  0.06988502  0.48096759  0.82232525  1  -0.071048  -0.092194  0.001637  3.922643  0.002
C  C65  1  0.93012494  0.51903245  0.17768276  1  -0.071089  -0.092261  -0.001636  3.922692  -0.002
C  C66  1  0.90932942  0.41762060  0.82067508  1  -0.021479  -0.049638  0.003331  3.99961  0.004
C  C67  1  0.09067431  0.58238033  0.17932644  1  -0.021444  -0.049549  -0.00333  3.999632  -0.004
C  C68  1  0.82572300  0.26455898  0.80591792  1  0.204679  0.561131  0.000503  4.217267  -0.001
C  C69  1  0.17427678  0.73544288  0.19407875  1  0.204652  0.561091  -0.000504  4.217241  0.001
C  C70  1  0.83602027  0.49970499  0.84353693  1  -0.065034  -0.084654  0.001725  3.922237  0.002
C  C71  1  0.16398287  0.50029488  0.15646149  1  -0.065083  -0.084823  -0.001725  3.922133  -0.002
N  N72  1  0.94433243  0.96946180  0.21071392  1  -0.333906  -0.20998  0.008412  3.640635  0.012
N  N73  1  0.05566108  0.03053684  0.78928043  1  -0.333843  -0.210054  -0.008413  3.640307  -0.012
N  N74  1  0.26725484  0.12602016  0.32578209  1  -0.335257  -0.246595  -0.001064  3.650511  -0.001
N  N75  1  0.73274320  0.87397860  0.67421833  1  -0.33527  -0.246574  0.001065  3.650348  0.001
O  O76  1  0.92727409  0.85989472  0.95600825  1  -0.302186  -0.554472  0.015338  2.506448  0.021
O  O77  1  0.07272569  0.14010714  0.04398842  1  -0.302187  -0.554446  -0.015337  2.506457  -0.021
O  O78  1  0.67640496  0.66246011  0.84356201  1  -0.304269  -0.546103  0.002568  2.239154  0.004
O  O79  1  0.32359868  0.33753666  0.15643156  1  -0.30426  -0.546126  -0.002569  2.23924  -0.004
O  O80  1  0.39562118  0.60622455  0.85273218  1  -0.329307  -0.48645  0.0  2.318238  0.0
O  O81  1  0.60437345  0.39377816  0.14724158  1  -0.329294  -0.486448  0.0  2.317842  0.0
O  O82  1  0.39852063  0.81288872  0.84566473  1  -0.281982  -0.500614  5e-05  2.190575  0.0
O  O83  1  0.60152410  0.18715137  0.15440522  1  -0.281807  -0.500345  -4.9e-05  2.191388  0.0
O  O84  1  0.90942275  0.20167521  0.79353684  1  -0.310548  -0.55609  0.036231  2.370045  0.059
O  O85  1  0.09057243  0.79832244  0.20645791  1  -0.310539  -0.556074  -0.03623  2.369998  -0.059
O  O86  1  0.68311159  0.20902395  0.81068995  1  -0.316459  -0.550242  -7.9e-05  2.227984  0.0
O  O87  1  0.31688595  0.79097992  0.18930532  1  -0.316448  -0.550229  7.9e-05  2.227929  0.0
O  O88  1  0.28887792  0.98800261  0.09762403  1  -0.560082  -0.713671  0.003929  2.314754  0.007
O  O89  1  0.71111848  0.01200123  0.90236809  1  -0.560117  -0.7137  -0.00393  2.314786  -0.007
