# generated using pymatgen
data_Al2H33C39I3N2O13
_symmetry_space_group_name_H-M   'P 1'
_cell_length_a   6.69783732
_cell_length_b   19.73615904
_cell_length_c   22.55386585
_cell_angle_alpha   89.99934181
_cell_angle_beta   89.99948871
_cell_angle_gamma   88.18862989
_symmetry_Int_Tables_number   1
_chemical_formula_structural   Al2H33C39I3N2O13
_chemical_formula_sum   'Al4 H66 C78 I6 N4 O26'
_cell_volume   2979.89633709
_cell_formula_units_Z   2
loop_
 _symmetry_equiv_pos_site_id
 _symmetry_equiv_pos_as_xyz
  1  'x, y, z'
loop_
 _atom_site_type_symbol
 _atom_site_label
 _atom_site_symmetry_multiplicity
 _atom_site_fract_x
 _atom_site_fract_y
 _atom_site_fract_z
 _atom_site_occupancy
 _atom_site_pbe_bader_charge
 _atom_site_pbe_bader_spin_density
 _atom_site_pbe_cm5_charge
 _atom_site_pbe_ddec_charge
 _atom_site_pbe_ddec_spin_density
 _atom_site_pbe_ddec_sum_bond_order
 _atom_site_pbe_magmom
Al  Al0  1  0.98560136  0.68434321  0.49620419  1  2.502041  0  0.396239  1.643153  0  2.557769  0
Al  Al1  1  0.01438364  0.31565512  0.99620276  1  2.502112  0  0.396218  1.643107  0  2.557924  0
Al  Al2  1  0.48525318  0.68458224  0.49560140  1  2.501859  0  0.396878  1.64163  0  2.564969  0
Al  Al3  1  0.51472885  0.31541867  0.99560133  1  2.501986  0  0.396872  1.641634  0  2.565038  0
H  H4  1  0.53764287  0.51523636  0.05575919  1  0.110748  0  0.108892  0.115311  0  0.989278  0
H  H5  1  0.46235656  0.48475944  0.55575887  1  0.110716  0  0.108893  0.115361  0  0.98937  0
H  H6  1  0.52626994  0.66151714  0.22481861  1  0.061647  0  0.101588  0.102564  0  0.996717  0
H  H7  1  0.47370810  0.33848074  0.72482374  1  0.061318  0  0.101517  0.10244  0  0.996679  0
H  H8  1  0.48500081  0.61291526  0.12560133  1  0.0452  0  0.10171  0.103796  0  0.997248  0
H  H9  1  0.51500404  0.38708210  0.62560408  1  0.045122  0  0.10172  0.10383  0  0.997273  0
H  H10  1  0.83102763  0.46130314  0.45228711  1  0.074407  0  0.107322  0.11037  0  0.979657  0
H  H11  1  0.16899597  0.53871106  0.95228612  1  0.074444  0  0.107332  0.110447  0  0.979534  0
H  H12  1  0.78416162  0.36092080  0.38841393  1  0.069098  0  0.103549  0.116718  0  1.018015  0
H  H13  1  0.21585042  0.63909030  0.88840648  1  0.069242  0  0.10358  0.116846  0  1.018051  0
H  H14  1  0.63581442  0.65042308  0.32892307  1  0.070984  0  0.103817  0.110583  0  1.010255  0
H  H15  1  0.36419190  0.34958581  0.82892926  1  0.071464  0  0.103891  0.110631  0  1.010281  0
H  H16  1  0.43814444  0.81029267  0.34140109  1  0.104651  0  0.115072  0.123528  0  0.975726  0
H  H17  1  0.56184065  0.18969804  0.84140528  1  0.104851  0  0.115024  0.123416  0  0.975533  0
H  H18  1  0.45714555  0.90649027  0.26852083  1  0.112449  0  0.107335  0.113753  0  1.035292  0
H  H19  1  0.54283121  0.09350605  0.76852294  1  0.112737  0  0.107291  0.113612  0  1.035344  0
H  H20  1  0.49487578  0.01583079  0.11925289  1  0.074797  0  0.109116  0.124402  0  1.058441  0
H  H21  1  0.50513076  0.98415905  0.61925670  1  0.074922  0  0.109086  0.124491  0  1.058203  0
H  H22  1  0.00000685  0.86645328  0.41637700  1  0.130799  0  0.115331  0.130582  0  0.987791  0
H  H23  1  0.99996258  0.13354270  0.91638149  1  0.130655  0  0.115398  0.130764  0  0.987541  0
H  H24  1  0.27124469  0.08893614  0.99142435  1  0.065695  0  0.105167  0.081007  0  0.986697  0
H  H25  1  0.30449870  0.04075370  0.05692401  1  0.015866  0  0.093344  0.052894  0  1.020847  0
H  H26  1  0.57595985  0.03982928  0.94710630  1  0.052108  0  0.077469  0.070014  0  1.040846  0
H  H27  1  0.63958035  0.99564799  0.01258575  1  0.029408  0  0.085889  0.081801  0  0.98916  0
H  H28  1  0.34321223  0.92155209  0.00060808  1  0.001684  0  0.081212  0.105596  0  1.017534  0
H  H29  1  0.49318739  0.91864471  0.93587904  1  0.011167  0  0.08291  0.114511  0  1.00285  0
H  H30  1  0.26705555  0.96753607  0.93643598  1  0.024874  0  0.071359  0.096062  0  1.072801  0
H  H31  1  0.72874047  0.91105719  0.49142504  1  0.065674  0  0.105141  0.080983  0  0.986747  0
H  H32  1  0.69550070  0.95924006  0.55692447  1  0.016078  0  0.093312  0.052852  0  1.020929  0
H  H33  1  0.42401764  0.96016572  0.44711039  1  0.052357  0  0.077518  0.070059  0  1.040753  0
H  H34  1  0.36040840  0.00434696  0.51259057  1  0.029831  0  0.085886  0.081852  0  0.989214  0
H  H35  1  0.65676492  0.07844618  0.50060339  1  0.001929  0  0.081193  0.105572  0  1.017668  0
H  H36  1  0.50677549  0.08135059  0.43587853  1  0.010765  0  0.082935  0.114588  0  1.00282  0
H  H37  1  0.73291179  0.03246272  0.43643005  1  0.025042  0  0.071354  0.096064  0  1.072884  0
H  H38  1  0.32533722  0.02957674  0.22343784  1  0.054485  0  0.096605  0.072212  0  1.005563  0
H  H39  1  0.22724084  0.04587641  0.15145377  1  0.024801  0  0.083815  0.038463  0  1.069096  0
H  H40  1  0.12243718  0.92893498  0.23449018  1  0.028597  0  0.080889  0.075025  0  1.013262  0
H  H41  1  0.98267486  0.94887382  0.17050348  1  0.046929  0  0.091753  0.089681  0  1.01076  0
H  H42  1  0.27349093  0.92766741  0.10494369  1  0.023798  0  0.081472  0.106008  0  1.024534  0
H  H43  1  0.23457758  0.85605064  0.15016340  1  0.036057  0  0.088606  0.120613  0  0.989242  0
H  H44  1  0.43218697  0.91121225  0.16682342  1  0.038856  0  0.080019  0.100827  0  1.060882  0
H  H45  1  0.67464386  0.97041555  0.72344401  1  0.054256  0  0.096635  0.072216  0  1.005679  0
H  H46  1  0.77272892  0.95410732  0.65146074  1  0.024854  0  0.083772  0.038302  0  1.069229  0
H  H47  1  0.87754207  0.07105871  0.73448056  1  0.028669  0  0.080855  0.075065  0  1.013384  0
H  H48  1  0.01730629  0.05111004  0.67049453  1  0.047097  0  0.091735  0.089678  0  1.010812  0
H  H49  1  0.72648469  0.07231432  0.60493489  1  0.024188  0  0.081427  0.10596  0  1.024516  0
H  H50  1  0.76540418  0.14393044  0.65015023  1  0.036103  0  0.08848  0.120391  0  0.989312  0
H  H51  1  0.56779728  0.08877315  0.66681443  1  0.038714  0  0.080065  0.100852  0  1.060793  0
H  H52  1  0.51666629  0.28461241  0.26636286  1  0.05656  0  0.100072  0.070733  0  0.971672  0
H  H53  1  0.55688027  0.31168483  0.34049098  1  0.028114  0  0.097243  0.057076  0  0.989503  0
H  H54  1  0.87581918  0.24959895  0.25660549  1  0.045665  0  0.076032  0.068935  0  1.046717  0
H  H55  1  0.92124620  0.27327517  0.33052168  1  0.024479  0  0.086386  0.081403  0  0.983393  0
H  H56  1  0.68024931  0.18644905  0.36706961  1  0.00202  0  0.078181  0.101984  0  1.0124  0
H  H57  1  0.86363683  0.14665542  0.32064249  1  0.02974  0  0.078583  0.113025  0  1.045832  0
H  H58  1  0.62150795  0.16515998  0.29267811  1  0.047654  0  0.079463  0.106199  0  1.014227  0
H  H59  1  0.48340312  0.71539512  0.76635970  1  0.055827  0  0.100022  0.070675  0  0.971752  0
H  H60  1  0.44315409  0.68832616  0.84048732  1  0.027828  0  0.097307  0.057138  0  0.989463  0
H  H61  1  0.12426843  0.75041105  0.75658739  1  0.045065  0  0.07606  0.069037  0  1.046792  0
H  H62  1  0.07878547  0.72673344  0.83049862  1  0.02439  0  0.086325  0.081453  0  0.983636  0
H  H63  1  0.31975739  0.81355884  0.86706189  1  0.002093  0  0.078163  0.102053  0  1.012329  0
H  H64  1  0.13639813  0.85334974  0.82062554  1  0.029948  0  0.078562  0.112963  0  1.04591  0
H  H65  1  0.37854424  0.83484992  0.79267401  1  0.047095  0  0.079455  0.106207  0  1.014322  0
H  H66  1  0.23812878  0.65005662  0.42543344  1  0.636826  0  0.351088  0.430457  0  0.854976  0
H  H67  1  0.76186426  0.34994863  0.92543592  1  0.63681  0  0.35103  0.4304  0  0.854983  0
H  H68  1  0.73934359  0.66313235  0.57112260  1  0.627053  0  0.333488  0.410288  0  0.89773  0
H  H69  1  0.26062997  0.33687517  0.07111924  1  0.62696  0  0.333455  0.410219  0  0.897871  0
C  C70  1  0.25239106  0.59684829  0.57102203  1  1.575685  0  0.268979  0.660703  0  4.069001  0
C  C71  1  0.74761091  0.40314880  0.07102427  1  1.57448  0  0.268942  0.660758  0  4.069126  0
C  C72  1  0.22183427  0.78134370  0.56026201  1  1.624201  0  0.267538  0.666147  0  4.079428  0
C  C73  1  0.77813068  0.21865139  0.06026116  1  1.623723  0  0.26767  0.666426  0  4.079708  0
C  C74  1  0.71864822  0.77381998  0.42392246  1  1.611045  0  0.269342  0.635138  0  4.105973  0
C  C75  1  0.28133144  0.22617478  0.92392612  1  1.611047  0  0.269362  0.634966  0  4.106081  0
C  C76  1  0.75163134  0.59120638  0.42581836  1  1.566905  0  0.272608  0.666292  0  4.082501  0
C  C77  1  0.24834974  0.40879747  0.92581849  1  1.566984  0  0.272523  0.66606  0  4.082739  0
C  C78  1  0.56184130  0.56615488  0.13990235  1  -0.058389  0  -0.096609  -0.147492  0  4.028049  0
C  C79  1  0.43815566  0.43384138  0.63990216  1  -0.058246  0  -0.096618  -0.147559  0  4.028002  0
C  C80  1  0.72243444  0.45758291  0.11698333  1  -0.037502  0  -0.023354  -0.078978  0  3.97181  0
C  C81  1  0.27757066  0.54241508  0.61698247  1  -0.037568  0  -0.023272  -0.078715  0  3.971806  0
C  C82  1  0.79435422  0.46816968  0.40548539  1  -0.017168  0  -0.08853  -0.075603  0  4.037788  0
C  C83  1  0.20566031  0.53183865  0.90548393  1  -0.017708  0  -0.088558  -0.075602  0  4.03779  0
C  C84  1  0.77240995  0.41138314  0.36906490  1  -0.064956  0  -0.118727  -0.238307  0  4.056844  0
C  C85  1  0.22760565  0.58862666  0.86906103  1  -0.065003  0  -0.118662  -0.238507  0  4.056885  0
C  C86  1  0.73191844  0.41977080  0.30880695  1  0.531607  0  0.086311  0.22157  0  4.058604  0
C  C87  1  0.26811835  0.58023753  0.80880306  1  0.532077  0  0.086389  0.221684  0  4.058609  0
C  C88  1  0.73007037  0.48598864  0.28297291  1  -0.009213  0  -0.013312  -0.066535  0  3.925789  0
C  C89  1  0.26996270  0.51401855  0.78297190  1  -0.010776  0  -0.013214  -0.066272  0  3.925357  0
C  C90  1  0.71492105  0.54264797  0.32232022  1  0.021708  0  -0.001905  0.076341  0  3.982029  0
C  C91  1  0.28509891  0.45735985  0.82232197  1  0.022984  0  -0.001958  0.076228  0  3.981915  0
C  C92  1  0.71564222  0.49748892  0.21966842  1  0.037414  0  -0.004034  0.019234  0  3.926139  0
C  C93  1  0.28438375  0.50251460  0.71966971  1  0.03681  0  -0.004157  0.019119  0  3.925851  0
C  C94  1  0.61955243  0.55919452  0.19989601  1  0.020957  0  -0.005648  0.087779  0  4.013665  0
C  C95  1  0.38045322  0.44080593  0.69989724  1  0.021163  0  -0.005644  0.087722  0  4.013596  0
C  C96  1  0.59089261  0.61364184  0.24125720  1  -0.008818  0  -0.092925  -0.1354  0  4.022092  0
C  C97  1  0.40910733  0.38635965  0.74126156  1  -0.008349  0  -0.092828  -0.135125  0  4.021975  0
C  C98  1  0.64994984  0.60727238  0.29892487  1  -0.079501  0  -0.091508  -0.125612  0  4.00001  0
C  C99  1  0.35006334  0.39273532  0.79892932  1  -0.079976  0  -0.091582  -0.125758  0  4.000289  0
C  C100  1  0.79576710  0.45333839  0.17490371  1  -0.161338  0  -0.03257  0.012389  0  3.808419  0
C  C101  1  0.20426167  0.54666670  0.67490343  1  -0.160749  0  -0.032693  0.012225  0  3.808441  0
C  C102  1  0.59677073  0.51356118  0.10075052  1  -0.048176  0  -0.08842  -0.09358  0  4.021637  0
C  C103  1  0.40322290  0.48643511  0.60074812  1  -0.048156  0  -0.088408  -0.09368  0  4.021515  0
C  C104  1  0.75525418  0.53290000  0.38360638  1  0.007512  0  -0.023961  -0.10717  0  3.974677  0
C  C105  1  0.24475800  0.46710863  0.88360902  1  0.007597  0  -0.024058  -0.107294  0  3.974635  0
C  C106  1  0.77519481  0.15624623  0.09828645  1  0.06061  0  -0.022994  -0.156682  0  3.905901  0
C  C107  1  0.22477648  0.84375083  0.59828798  1  0.060354  0  -0.022959  -0.156716  0  3.905695  0
C  C108  1  0.91647799  0.14216350  0.14336597  1  -0.221559  0  -0.048598  -0.05034  0  3.876651  0
C  C109  1  0.08349048  0.85783655  0.64336817  1  -0.222291  0  -0.048527  -0.050192  0  3.876441  0
C  C110  1  0.89529247  0.08764302  0.18275464  1  0.5983  0  0.072953  0.143549  0  4.027585  0
C  C111  1  0.10468681  0.91235083  0.68275712  1  0.59778  0  0.072711  0.143329  0  4.027885  0
C  C112  1  0.72783060  0.04634708  0.17654815  1  0.323901  0  0.085427  0.103643  0  4.054956  0
C  C113  1  0.27214587  0.95364891  0.67655244  1  0.325192  0  0.085461  0.10365  0  4.054819  0
C  C114  1  0.60592703  0.05362573  0.12653911  1  0.023102  0  -0.107187  -0.293333  0  4.017182  0
C  C115  1  0.39405987  0.94636827  0.62654625  1  0.022566  0  -0.10709  -0.293327  0  4.016751  0
C  C116  1  0.62415580  0.10844319  0.08819194  1  0.506219  0  0.089141  0.24708  0  4.071573  0
C  C117  1  0.37583372  0.89155179  0.58819570  1  0.506228  0  0.089177  0.247127  0  4.071325  0
C  C118  1  0.57272975  0.89767022  0.30180150  1  -0.058374  0  -0.083462  -0.149257  0  3.98305  0
C  C119  1  0.42723707  0.10232424  0.80180692  1  -0.058129  0  -0.083581  -0.149445  0  3.982958  0
C  C120  1  0.56379378  0.84408190  0.34156171  1  0.012769  0  -0.079088  -0.08691  0  3.969826  0
C  C121  1  0.43618532  0.15590989  0.84156700  1  0.012855  0  -0.078974  -0.086616  0  3.969516  0
C  C122  1  0.72928830  0.94337203  0.30501647  1  0.31696  0  0.085536  0.1283  0  4.052978  0
C  C123  1  0.27067544  0.05662344  0.80502055  1  0.316059  0  0.085638  0.128512  0  4.052729  0
C  C124  1  0.71989102  0.83244227  0.38208854  1  -0.040148  0  -0.003819  -0.013598  0  3.948366  0
C  C125  1  0.28009137  0.16755099  0.88209723  1  -0.039805  0  -0.003736  -0.013394  0  3.948157  0
C  C126  1  0.87905780  0.87668840  0.38499093  1  0.001552  0  -0.085459  -0.136377  0  3.983667  0
C  C127  1  0.12092301  0.12330534  0.88499827  1  0.001547  0  -0.085713  -0.136942  0  3.983669  0
C  C128  1  0.87766745  0.93375840  0.34882523  1  -0.218834  0  -0.03877  -0.008222  0  3.886487  0
C  C129  1  0.12230097  0.06623848  0.84883270  1  -0.219019  0  -0.038674  -0.008027  0  3.886355  0
C  C130  1  0.38459444  0.06416775  0.01985120  1  0.413304  0  -0.064873  0.039569  0  3.857416  0
C  C131  1  0.51214585  0.01294258  0.98500246  1  -0.030124  0  -0.179298  -0.146928  0  3.994945  0
C  C132  1  0.39717782  0.95208934  0.96345077  1  -0.034746  0  -0.248578  -0.343662  0  3.96617  0
C  C133  1  0.61539559  0.93582761  0.51985212  1  0.412749  0  -0.064809  0.039617  0  3.857545  0
C  C134  1  0.48783799  0.98705186  0.48500611  1  -0.030719  0  -0.179343  -0.147042  0  3.995094  0
C  C135  1  0.60279470  0.04790752  0.46344945  1  -0.035134  0  -0.248579  -0.343706  0  3.966498  0
C  C136  1  0.19288061  0.02495840  0.19538741  1  0.409566  0  -0.080708  0.021262  0  3.875241  0
C  C137  1  0.13259882  0.95130026  0.18993317  1  -0.045695  0  -0.179808  -0.142734  0  3.952362  0
C  C138  1  0.27725701  0.90933432  0.15106492  1  -0.09731  0  -0.248732  -0.34798  0  3.953807  0
C  C139  1  0.80709383  0.97502774  0.69539097  1  0.409707  0  -0.080692  0.021564  0  3.875206  0
C  C140  1  0.86737578  0.04868950  0.68992602  1  -0.045998  0  -0.179828  -0.143025  0  3.952675  0
C  C141  1  0.72271874  0.09065137  0.65105505  1  -0.09751  0  -0.248593  -0.347659  0  3.953635  0
C  C142  1  0.62952311  0.30387455  0.29701723  1  0.417624  0  -0.063298  0.046744  0  3.872219  0
C  C143  1  0.80626292  0.25372470  0.30069024  1  -0.025246  0  -0.176615  -0.142008  0  3.984952  0
C  C144  1  0.73960354  0.18431962  0.32155539  1  -0.066969  0  -0.249652  -0.348962  0  3.967153  0
C  C145  1  0.37053045  0.69613376  0.79701279  1  0.41868  0  -0.063368  0.046685  0  3.872409  0
C  C146  1  0.19378605  0.74628361  0.80067378  1  -0.024273  0  -0.17656  -0.142141  0  3.985098  0
C  C147  1  0.26043287  0.81569109  0.82154470  1  -0.066785  0  -0.249572  -0.348975  0  3.966784  0
I  I148  1  0.10503729  0.00393720  0.35909128  1  0.153202  0  0.153207  0.037164  0  1.643421  0
I  I149  1  0.89491887  0.99606423  0.85909218  1  0.153226  0  0.153171  0.03714  0  1.643243  0
I  I150  1  0.17445074  0.19897994  0.15614406  1  0.182137  0  0.145633  0.069889  0  1.726025  0
I  I151  1  0.82551437  0.80102150  0.65614357  1  0.182477  0  0.145647  0.069869  0  1.726051  0
I  I152  1  0.05711972  0.39431109  0.19452378  1  0.134797  0  0.0967  -0.011743  0  1.625402  0
I  I153  1  0.94294578  0.60571464  0.69452763  1  0.134653  0  0.096712  -0.011764  0  1.625512  0
N  N154  1  0.69152858  0.99119691  0.21455418  1  -0.45831  0  -0.137213  -0.102061  0  3.280074  0
N  N155  1  0.30845573  0.00879698  0.71455732  1  -0.458426  0  -0.137246  -0.101946  0  3.279907  0
N  N156  1  0.74508202  0.00028397  0.26778549  1  -0.452806  0  -0.134473  -0.088357  0  3.285191  0
N  N157  1  0.25488878  0.99971292  0.76778714  1  -0.452642  0  -0.134455  -0.088495  0  3.285274  0
O  O158  1  0.38770658  0.74939235  0.55307205  1  -1.248391  0  -0.228708  -0.578879  0  2.353022  0
O  O159  1  0.61226307  0.25059974  0.05306644  1  -1.248784  0  -0.228803  -0.579128  0  2.353196  0
O  O160  1  0.08240352  0.62412057  0.55947820  1  -1.259657  0  -0.238079  -0.603096  0  2.387965  0
O  O161  1  0.91759430  0.37588026  0.05947495  1  -1.259638  0  -0.238023  -0.603092  0  2.388117  0
O  O162  1  0.91851073  0.60696534  0.44831754  1  -1.25934  0  -0.238  -0.597916  0  2.309914  0
O  O163  1  0.08147569  0.39303157  0.94830805  1  -1.259475  0  -0.237881  -0.597628  0  2.310038  0
O  O164  1  0.05536532  0.76436286  0.53894534  1  -1.252002  0  -0.23018  -0.576184  0  2.382388  0
O  O165  1  0.94459875  0.23563859  0.03894655  1  -1.251526  0  -0.230201  -0.576222  0  2.382495  0
O  O166  1  0.88715840  0.74588624  0.43609192  1  -1.249364  0  -0.230682  -0.577766  0  2.343995  0
O  O167  1  0.11283884  0.25410818  0.93609662  1  -1.249481  0  -0.23061  -0.577642  0  2.344415  0
O  O168  1  0.41787807  0.61164577  0.54685338  1  -1.259031  0  -0.236301  -0.596217  0  2.34863  0
O  O169  1  0.58211416  0.38834921  0.04685842  1  -1.257787  0  -0.236335  -0.596252  0  2.34855  0
O  O170  1  0.23452705  0.68087369  0.45900624  1  -1.440381  0  -0.449552  -0.983852  0  2.16747  0
O  O171  1  0.76546053  0.31912611  0.95900592  1  -1.440515  0  -0.449486  -0.983759  0  2.16737  0
O  O172  1  0.54950175  0.75691304  0.44347285  1  -1.250358  0  -0.226043  -0.569687  0  2.338653  0
O  O173  1  0.45049824  0.24308784  0.94346881  1  -1.250494  0  -0.226108  -0.569658  0  2.338296  0
O  O174  1  0.58263706  0.62042543  0.43621532  1  -1.255698  0  -0.23792  -0.607955  0  2.333761  0
O  O175  1  0.41735566  0.37957968  0.93621929  1  -1.255423  0  -0.237882  -0.607954  0  2.333755  0
O  O176  1  0.73591876  0.68453435  0.53229722  1  -1.438141  0  -0.450039  -0.988337  0  2.206238  0
O  O177  1  0.26406342  0.31546700  0.03229673  1  -1.438134  0  -0.450038  -0.98831  0  2.206355  0
O  O178  1  0.50379850  0.11901782  0.04043615  1  -1.064781  0  -0.171885  -0.189165  0  2.565272  0
O  O179  1  0.49619990  0.88097414  0.54043882  1  -1.063892  0  -0.171873  -0.189158  0  2.564954  0
O  O180  1  0.04305472  0.07015394  0.22238984  1  -1.063585  0  -0.206992  -0.249321  0  2.627479  0
O  O181  1  0.95692936  0.92984036  0.72239126  1  -1.063584  0  -0.206944  -0.249316  0  2.627851  0
O  O182  1  0.67967533  0.36847545  0.27225877  1  -1.085922  0  -0.182718  -0.207787  0  2.617231  0
O  O183  1  0.32038943  0.63152952  0.77225335  1  -1.086445  0  -0.182817  -0.2078  0  2.617497  0
