# generated using pymatgen
data_DyH15C20(N3O5)2
_symmetry_space_group_name_H-M   'P 1'
_cell_length_a   9.49354015
_cell_length_b   9.30727716
_cell_length_c   13.44300000
_cell_angle_alpha   81.85722883
_cell_angle_beta   73.97882356
_cell_angle_gamma   67.23491281
_symmetry_Int_Tables_number   1
_chemical_formula_structural   DyH15C20(N3O5)2
_chemical_formula_sum   'Dy2 H30 C40 N12 O20'
_cell_volume   1051.92391589
_cell_formula_units_Z   2
loop_
 _symmetry_equiv_pos_site_id
 _symmetry_equiv_pos_as_xyz
  1  'x, y, z'
loop_
 _atom_site_type_symbol
 _atom_site_label
 _atom_site_symmetry_multiplicity
 _atom_site_fract_x
 _atom_site_fract_y
 _atom_site_fract_z
 _atom_site_occupancy
 _atom_site_pbe_bader_charge
 _atom_site_pbe_bader_spin_density
 _atom_site_pbe_cm5_charge
 _atom_site_pbe_ddec_charge
 _atom_site_pbe_ddec_spin_density
 _atom_site_pbe_ddec_sum_bond_order
 _atom_site_pbe_magmom
Dy  Dy0  1  0.44609735  0.26667415  0.01358379  1  2.202341  0  1.512294  2.138973  0  2.098561  0
Dy  Dy1  1  0.55390402  0.73333087  0.98641530  1  2.202228  0  1.512282  2.139001  0  2.09855  0
H  H2  1  0.10034044  0.49337440  0.08098752  1  0.626919  0  0.31483  0.400948  0  0.913315  0
H  H3  1  0.89965980  0.50662479  0.91901311  1  0.626927  0  0.314837  0.400956  0  0.913305  0
H  H4  1  0.21161690  0.59435862  0.03273291  1  0.658786  0  0.298863  0.401713  0  0.936185  0
H  H5  1  0.78838247  0.40564290  0.96726914  1  0.658793  0  0.298845  0.401653  0  0.936258  0
H  H6  1  0.13401662  0.24920248  0.15213248  1  0.656875  0  0.288678  0.366642  0  0.981735  0
H  H7  1  0.86599282  0.75079555  0.84787168  1  0.65678  0  0.288658  0.366637  0  0.981732  0
H  H8  1  0.26534740  0.07235181  0.13450647  1  0.631081  0  0.298989  0.402614  0  0.932412  0
H  H9  1  0.73465832  0.92764738  0.86549606  1  0.630747  0  0.298992  0.402637  0  0.932375  0
H  H10  1  0.86787342  0.84769376  0.58079834  1  0.628255  0  0.293686  0.320117  0  1.026818  0
H  H11  1  0.13213112  0.15229377  0.41920334  1  0.62822  0  0.293687  0.320141  0  1.026755  0
H  H12  1  0.97639216  0.82040470  0.04064359  1  0.091339  0  0.111632  0.118867  0  0.993122  0
H  H13  1  0.02360417  0.17959916  0.95935511  1  0.091342  0  0.11164  0.118857  0  0.993043  0
H  H14  1  0.09666858  0.96381629  0.28679012  1  0.100851  0  0.110738  0.119168  0  0.987659  0
H  H15  1  0.90332950  0.03618873  0.71320813  1  0.100843  0  0.110719  0.119075  0  0.987697  0
H  H16  1  0.55497121  0.66227576  0.45351005  1  0.121038  0  0.110477  0.111587  0  1.063497  0
H  H17  1  0.44502903  0.33772343  0.54649132  1  0.121034  0  0.110496  0.111633  0  1.063457  0
H  H18  1  0.81745742  0.04563997  0.38511306  1  0.097728  0  0.112918  0.121422  0  1.029619  0
H  H19  1  0.18254067  0.95436505  0.61488221  1  0.097786  0  0.113002  0.12145  0  1.029673  0
H  H20  1  0.30251763  0.26600247  0.48980899  1  0.185492  0  0.132748  0.105103  0  1.037958  0
H  H21  1  0.69748500  0.73399322  0.51019375  1  0.185442  0  0.132752  0.105073  0  1.037915  0
H  H22  1  0.75795231  0.33369339  0.17697170  1  0.179945  0  0.148698  0.125985  0  0.976726  0
H  H23  1  0.24204487  0.66630813  0.82303004  1  0.179894  0  0.148695  0.125982  0  0.976729  0
H  H24  1  0.45757419  0.92464000  0.27139845  1  0.165183  0  0.149443  0.125687  0  0.988774  0
H  H25  1  0.54242409  0.07536152  0.72860010  1  0.16519  0  0.149472  0.125677  0  0.988771  0
H  H26  1  0.27308921  0.75455155  0.54119260  1  0.093144  0  0.103152  0.098564  0  1.054437  0
H  H27  1  0.72691036  0.24544647  0.45880902  1  0.093112  0  0.103191  0.098564  0  1.054507  0
H  H28  1  0.18758323  0.55344485  0.30594334  1  0.075318  0  0.108046  0.105247  0  1.041774  0
H  H29  1  0.81241595  0.44656017  0.69405543  1  0.07534  0  0.108007  0.105171  0  1.04185  0
H  H30  1  0.02126063  0.53061612  0.27888646  1  0.135385  0  0.133148  0.097172  0  1.02741  0
H  H31  1  0.97874003  0.46938190  0.72111345  1  0.135384  0  0.133131  0.097186  0  1.0273  0
C  C32  1  0.94188066  0.87071839  0.11611093  1  -0.042183  0  -0.074723  -0.099923  0  3.931879  0
C  C33  1  0.05811656  0.12928896  0.88388502  1  -0.042194  0  -0.074697  -0.099827  0  3.931746  0
C  C34  1  0.78309618  0.92292234  0.16865716  1  0.032405  0  -0.00311  -0.090517  0  3.932917  0
C  C35  1  0.21690296  0.07707685  0.83133996  1  0.032436  0  -0.003083  -0.09055  0  3.93292  0
C  C36  1  0.66932325  0.90841023  0.11555241  1  1.597806  0  0.230279  0.646078  0  4.202023  0
C  C37  1  0.33067241  0.09159246  0.88444504  1  1.59871  0  0.230231  0.645983  0  4.201874  0
C  C38  1  0.22377488  0.83363876  0.09791292  1  1.527164  0  0.202878  0.574688  0  4.208148  0
C  C39  1  0.77621992  0.16636626  0.90208447  1  1.527148  0  0.202798  0.574665  0  4.208207  0
C  C40  1  0.05563270  0.88721637  0.15650972  1  -0.036694  0  -0.023986  -0.051569  0  3.995324  0
C  C41  1  0.94436429  0.11278865  0.84348874  1  -0.036735  0  -0.024002  -0.051656  0  3.995349  0
C  C42  1  0.73869851  0.98849795  0.26565047  1  0.3254  0  0.117168  0.139774  0  3.956822  0
C  C43  1  0.26129848  0.01150707  0.73434501  1  0.325152  0  0.117136  0.139792  0  3.956839  0
C  C44  1  0.52976708  0.56429774  0.32774657  1  0.363461  0  0.11476  0.138633  0  3.955999  0
C  C45  1  0.47023472  0.43570611  0.67225330  1  0.363468  0  0.114805  0.138643  0  3.956135  0
C  C46  1  0.00901486  0.95329923  0.25333628  1  0.030975  0  -0.07351  -0.064398  0  3.950075  0
C  C47  1  0.99098452  0.04670229  0.74666354  1  0.031091  0  -0.073485  -0.064253  0  3.949973  0
C  C48  1  0.46775457  0.46865892  0.17973654  1  1.609879  0  0.231908  0.64907  0  4.192448  0
C  C49  1  0.53224524  0.53134144  0.82026406  1  1.609594  0  0.232047  0.64932  0  4.191962  0
C  C50  1  0.42612895  0.53314073  0.28454423  1  0.003299  0  -0.007689  -0.10183  0  3.942483  0
C  C51  1  0.57387156  0.46686662  0.71545480  1  0.003562  0  -0.007661  -0.101857  0  3.942439  0
C  C52  1  0.47250289  0.64281822  0.42030836  1  -0.047761  0  -0.08509  -0.161838  0  4.004853  0
C  C53  1  0.52749649  0.35718330  0.57969295  1  -0.047677  0  -0.085148  -0.161928  0  4.004827  0
C  C54  1  0.85251764  0.00084892  0.30816405  1  -0.015901  0  -0.079983  -0.148001  0  3.971078  0
C  C55  1  0.14747997  0.99915144  0.69183325  1  -0.015749  0  -0.080069  -0.148084  0  3.971152  0
C  C56  1  0.38067285  0.18299134  0.43082916  1  0.971092  0  0.149153  0.142388  0  3.976957  0
C  C57  1  0.61932801  0.81700318  0.56917403  1  0.971113  0  0.149154  0.142452  0  3.976846  0
C  C58  1  0.79400714  0.40431471  0.21486220  1  0.96247  0  0.171937  0.11887  0  3.861711  0
C  C59  1  0.20599310  0.59568448  0.78513843  1  0.962263  0  0.171915  0.118827  0  3.861707  0
C  C60  1  0.45341110  0.01048557  0.31992958  1  1.008297  0  0.174722  0.118612  0  3.857614  0
C  C61  1  0.54658718  0.98951596  0.68006897  1  1.008296  0  0.174664  0.11866  0  3.857492  0
C  C62  1  0.31365338  0.69338147  0.46961821  1  -0.032407  0  -0.07719  -0.067612  0  3.966457  0
C  C63  1  0.68634705  0.30661422  0.53038346  1  -0.032588  0  -0.077152  -0.067523  0  3.966397  0
C  C64  1  0.26814389  0.57887749  0.33793633  1  0.048537  0  -0.07001  -0.088701  0  3.940028  0
C  C65  1  0.73185830  0.42111937  0.66206266  1  0.048438  0  -0.069953  -0.088587  0  3.940101  0
C  C66  1  0.92464679  0.50609888  0.26726303  1  0.964392  0  0.148536  0.143545  0  4.006239  0
C  C67  1  0.07535454  0.49390031  0.73273738  1  0.964716  0  0.148574  0.143566  0  4.006153  0
C  C68  1  0.03692461  0.71402493  0.47682316  1  1.52958  0  0.225498  0.573635  0  4.129164  0
C  C69  1  0.96306682  0.28596843  0.52317083  1  1.529284  0  0.225671  0.573808  0  4.12853  0
C  C70  1  0.20920726  0.66107934  0.42894780  1  -0.009348  0  -0.015264  -0.042769  0  3.989008  0
C  C71  1  0.79079579  0.33891518  0.57105423  1  -0.009154  0  -0.015371  -0.042891  0  3.989367  0
N  N72  1  0.57941626  0.04414970  0.32319515  1  -0.836481  0  -0.111024  0.130326  0  3.720588  0
N  N73  1  0.42058245  0.95585066  0.67680269  1  -0.836422  0  -0.111008  0.130285  0  3.720524  0
N  N74  1  0.69444219  0.51508601  0.28378184  1  -0.853245  0  -0.109625  0.134474  0  3.723623  0
N  N75  1  0.30555828  0.48491551  0.71621852  1  -0.852892  0  -0.109641  0.134472  0  3.723602  0
N  N76  1  0.32656736  0.09671280  0.38701186  1  -1.223942  0  -0.318889  -0.30941  0  3.337273  0
N  N77  1  0.67343350  0.90328172  0.61298984  1  -1.223937  0  -0.318881  -0.309432  0  3.337228  0
N  N78  1  0.53284409  0.15500145  0.39486826  1  -0.694806  0  -0.220036  -0.262217  0  3.132903  0
N  N79  1  0.46715634  0.84499424  0.60513193  1  -0.69491  0  -0.220031  -0.262229  0  3.132905  0
N  N80  1  0.94116327  0.39618000  0.20247904  1  -1.185711  0  -0.320922  -0.342876  0  3.324427  0
N  N81  1  0.05883434  0.60382036  0.79752124  1  -1.185466  0  -0.320916  -0.342854  0  3.324404  0
N  N82  1  0.77832757  0.58095897  0.31753610  1  -0.666378  0  -0.212085  -0.235524  0  3.122649  0
N  N83  1  0.22167223  0.41904138  0.68246375  1  -0.66699  0  -0.212084  -0.235507  0  3.122616  0
O  O84  1  0.52960861  0.53884296  0.10286610  1  -1.203404  0  -0.412268  -0.698225  0  2.421368  0
O  O85  1  0.47038751  0.46116440  0.89712932  1  -1.20331  0  -0.412328  -0.698303  0  2.421376  0
O  O86  1  0.32140385  0.87476243  0.12527326  1  -1.186521  0  -0.352668  -0.631306  0  2.275403  0
O  O87  1  0.67859271  0.12524376  0.87472368  1  -1.186636  0  -0.35263  -0.631305  0  2.275464  0
O  O88  1  0.27053359  0.74688328  0.02045877  1  -1.181499  0  -0.342652  -0.625264  0  2.27297  0
O  O89  1  0.72946579  0.25311824  0.97954106  1  -1.181546  0  -0.342624  -0.625226  0  2.272951  0
O  O90  1  0.20329471  0.48942365  0.03887214  1  -1.271516  0  -0.63544  -0.837993  0  2.089737  0
O  O91  1  0.79670467  0.51057787  0.96112918  1  -1.271503  0  -0.635429  -0.837965  0  2.089802  0
O  O92  1  0.57198560  0.03182169  0.08425378  1  -1.202123  0  -0.407985  -0.70057  0  2.413422  0
O  O93  1  0.42802203  0.96816934  0.91573728  1  -1.2023  0  -0.408008  -0.700551  0  2.41309  0
O  O94  1  0.68022673  0.77210485  0.10288044  1  -1.159821  0  -0.379132  -0.636901  0  2.270407  0
O  O95  1  0.31976556  0.22788618  0.89712923  1  -1.160423  0  -0.379101  -0.63685  0  2.270623  0
O  O96  1  0.24690595  0.18536552  0.12322960  1  -1.291945  0  -0.657359  -0.859868  0  2.121011  0
O  O97  1  0.75310415  0.81463367  0.87678324  1  -1.291468  0  -0.657313  -0.859877  0  2.120936  0
O  O98  1  0.43268386  0.35298767  0.17282499  1  -1.174271  0  -0.382722  -0.640394  0  2.260511  0
O  O99  1  0.56732342  0.64701618  0.82717530  1  -1.174227  0  -0.382784  -0.640488  0  2.260214  0
O  O100  1  0.94846649  0.67621998  0.44324687  1  -1.151642  0  -0.283904  -0.492938  0  2.186237  0
O  O101  1  0.05154326  0.32379204  0.55674692  1  -1.151307  0  -0.284101  -0.493227  0  2.185358  0
O  O102  1  0.98910993  0.80782715  0.55610579  1  -1.156775  0  -0.337916  -0.479263  0  2.316652  0
O  O103  1  0.01089457  0.19215455  0.44390018  1  -1.15696  0  -0.337896  -0.479191  0  2.316741  0
