# generated using pymatgen
data_Cd3H28C12I6(N4O)2
_symmetry_space_group_name_H-M   'P 1'
_cell_length_a   7.86653154
_cell_length_b   9.28135889
_cell_length_c   10.40610992
_cell_angle_alpha   89.77688469
_cell_angle_beta   87.49987506
_cell_angle_gamma   74.78646307
_symmetry_Int_Tables_number   1
_chemical_formula_structural   Cd3H28C12I6(N4O)2
_chemical_formula_sum   'Cd3 H28 C12 I6 N8 O2'
_cell_volume   732.42504964
_cell_formula_units_Z   1
loop_
 _symmetry_equiv_pos_site_id
 _symmetry_equiv_pos_as_xyz
  1  'x, y, z'
loop_
 _atom_site_type_symbol
 _atom_site_label
 _atom_site_symmetry_multiplicity
 _atom_site_fract_x
 _atom_site_fract_y
 _atom_site_fract_z
 _atom_site_occupancy
 _atom_site_pbe_bader_spin_density
 _atom_site_pbe_cm5_charge
 _atom_site_pbe_ddec_charge
 _atom_site_pbe_ddec_spin_density
 _atom_site_pbe_ddec_sum_bond_order
 _atom_site_pbe_magmom
Cd  Cd0  1  0.99999991  0.00000296  0.99999870  1  0  0.614976  0.765302  0  2.194084  0
Cd  Cd1  1  0.10813144  0.60466848  0.72853708  1  0  0.435937  0.517099  0  2.590361  0
Cd  Cd2  1  0.89186104  0.39533239  0.27147132  1  0  0.435939  0.517111  0  2.590471  0
H  H3  1  0.11974648  0.33150575  0.93159128  1  0  0.098059  0.068462  0  1.032982  0
H  H4  1  0.88025323  0.66849171  0.06840245  1  0  0.098003  0.068351  0  1.03288  0
H  H5  1  0.97944604  0.31364340  0.80499543  1  0  0.10143  0.082898  0  1.016229  0
H  H6  1  0.02054759  0.68635741  0.19500332  1  0  0.101496  0.082931  0  1.016448  0
H  H7  1  0.08805106  0.30340989  0.58263442  1  0  0.094496  0.06987  0  1.05277  0
H  H8  1  0.91195019  0.69659097  0.41736497  1  0  0.094464  0.069845  0  1.052748  0
H  H9  1  0.30868185  0.31609578  0.54546189  1  0  0.102259  0.07806  0  1.017873  0
H  H10  1  0.69131650  0.68390617  0.45453664  1  0  0.102259  0.07807  0  1.017887  0
H  H11  1  0.49568327  0.34293604  0.71567043  1  0  0.106463  0.091958  0  1.002516  0
H  H12  1  0.50432116  0.65706257  0.28432308  1  0  0.106509  0.091951  0  1.002754  0
H  H13  1  0.41719814  0.34836463  0.88043304  1  0  0.099317  0.076173  0  1.020518  0
H  H14  1  0.58280341  0.65163508  0.11956154  1  0  0.099262  0.076061  0  1.020382  0
H  H15  1  0.36558512  0.13109642  0.97871332  1  0  0.104664  0.072532  0  1.026525  0
H  H16  1  0.63441795  0.86889889  0.02128798  1  0  0.104648  0.072499  0  1.026543  0
H  H17  1  0.41086814  0.95792952  0.88975616  1  0  0.100976  0.070025  0  1.037666  0
H  H18  1  0.58913125  0.04206907  0.11024045  1  0  0.10097  0.070043  0  1.037633  0
H  H19  1  0.22138658  0.93213942  0.71741331  1  0  0.093428  0.059475  0  1.060029  0
H  H20  1  0.77861069  0.06787370  0.28258225  1  0  0.093302  0.05933  0  1.059718  0
H  H21  1  0.03779892  0.08485198  0.68232747  1  0  0.110292  0.094189  0  0.992895  0
H  H22  1  0.96219013  0.91515099  0.31766760  1  0  0.110359  0.094217  0  0.993168  0
H  H23  1  0.55436289  0.10877172  0.59384357  1  0  0.105286  0.087179  0  1.016292  0
H  H24  1  0.44564520  0.89123140  0.40615069  1  0  0.10536  0.087348  0  1.0166  0
H  H25  1  0.51460352  0.94703256  0.67021507  1  0  0.107555  0.082383  0  0.999228  0
H  H26  1  0.48538871  0.05298053  0.32978262  1  0  0.107448  0.082298  0  0.999062  0
H  H27  1  0.30361503  0.94264528  0.17520194  1  0  0.273641  0.328105  0  1.032151  0
H  H28  1  0.69639108  0.05735225  0.82479536  1  0  0.273625  0.328096  0  1.032172  0
H  H29  1  0.18950026  0.11095527  0.19070013  1  0  0.245615  0.32167  0  1.048467  0
H  H30  1  0.81050288  0.88904008  0.80930693  1  0  0.245609  0.321648  0  1.048491  0
C  C31  1  0.11560712  0.28212491  0.83625947  1  0  0.000848  -0.009471  0  3.867937  0
C  C32  1  0.88440413  0.71787727  0.16375390  1  0  0.000827  -0.009379  0  3.868051  0
C  C33  1  0.22457337  0.27204237  0.61364374  1  0  0.006521  -0.001448  0  3.866197  0
C  C34  1  0.77542079  0.72796066  0.38635303  1  0  0.00652  -0.001482  0  3.865965  0
C  C35  1  0.41266025  0.29928167  0.78508454  1  0  0.011247  0.006256  0  3.834542  0
C  C36  1  0.58733337  0.70071590  0.21492867  1  0  0.011252  0.006383  0  3.834263  0
C  C37  1  0.36312633  0.08002999  0.88398517  1  0  0.007421  -0.002142  0  3.871794  0
C  C38  1  0.63687301  0.91996858  0.11600760  1  0  0.007489  -0.002013  0  3.871692  0
C  C39  1  0.17447452  0.05420312  0.71238336  1  0  0.007386  0.001031  0  3.871761  0
C  C40  1  0.82554881  0.94577668  0.28762016  1  0  0.007522  0.001262  0  3.871671  0
C  C41  1  0.46760449  0.06915114  0.66294784  1  0  0.015646  0.010734  0  3.849433  0
C  C42  1  0.53238953  0.93082514  0.33706272  1  0  0.015738  0.010591  0  3.849694  0
I  I43  1  0.25499253  0.70470369  0.94562471  1  0  -0.155282  -0.319158  0  1.614885  0
I  I44  1  0.74500441  0.29530275  0.05437575  1  0  -0.155292  -0.319188  0  1.614916  0
I  I45  1  0.74959795  0.64523798  0.77686079  1  0  -0.204438  -0.389102  0  1.499621  0
I  I46  1  0.25039552  0.35476407  0.22315332  1  0  -0.204453  -0.389136  0  1.499635  0
I  I47  1  0.25250194  0.68858717  0.50720433  1  0  -0.219616  -0.383553  0  1.447214  0
I  I48  1  0.74748953  0.31140471  0.49279942  1  0  -0.219591  -0.38353  0  1.44731  0
N  N49  1  0.22770419  0.34258531  0.74311239  1  0  -0.348875  -0.151176  0  3.399549  0
N  N50  1  0.77229737  0.65741441  0.25688315  1  0  -0.348845  -0.151269  0  3.399821  0
N  N51  1  0.17773756  0.11770252  0.84446670  1  0  -0.340809  -0.179601  0  3.396281  0
N  N52  1  0.82225786  0.88230052  0.15553002  1  0  -0.340808  -0.179717  0  3.396317  0
N  N53  1  0.28692148  0.11012317  0.62047564  1  0  -0.343558  -0.176704  0  3.417559  0
N  N54  1  0.71307360  0.88988881  0.37951906  1  0  -0.343659  -0.17667  0  3.417746  0
N  N55  1  0.47849263  0.13553792  0.79202767  1  0  -0.331999  -0.176353  0  3.369483  0
N  N56  1  0.52150807  0.86446852  0.20796878  1  0  -0.332073  -0.176358  0  3.369406  0
O  O57  1  0.17901520  0.00972301  0.16980269  1  0  -0.591393  -0.712006  0  2.229801  0
O  O58  1  0.82099179  0.99027563  0.83019264  1  0  -0.591373  -0.711975  0  2.229863  0
