# generated using pymatgen
data_MnH19C23N3O7
_symmetry_space_group_name_H-M   'P 1'
_cell_length_a   7.20323459
_cell_length_b   10.02011440
_cell_length_c   15.53570000
_cell_angle_alpha   95.22532820
_cell_angle_beta   92.09649598
_cell_angle_gamma   110.58610673
_symmetry_Int_Tables_number   1
_chemical_formula_structural   MnH19C23N3O7
_chemical_formula_sum   'Mn2 H38 C46 N6 O14'
_cell_volume   1042.52468618
_cell_formula_units_Z   2
loop_
 _symmetry_equiv_pos_site_id
 _symmetry_equiv_pos_as_xyz
  1  'x, y, z'
loop_
 _atom_site_type_symbol
 _atom_site_label
 _atom_site_symmetry_multiplicity
 _atom_site_fract_x
 _atom_site_fract_y
 _atom_site_fract_z
 _atom_site_occupancy
 _atom_site_hle17_bader_charge
 _atom_site_hle17_bader_spin_density
 _atom_site_hle17_ddec_charge
 _atom_site_hle17_ddec_spin_density
 _atom_site_hle17_ddec_sum_bond_order
 _atom_site_hle17_magmom
 _atom_site_hse06_10hf_ddec_charge
 _atom_site_hse06_10hf_ddec_spin_density
 _atom_site_hse06_10hf_ddec_sum_bond_order
 _atom_site_hse06_10hf_magmom
 _atom_site_hse06_ddec_charge
 _atom_site_hse06_ddec_spin_density
 _atom_site_hse06_ddec_sum_bond_order
 _atom_site_hse06_magmom
 _atom_site_pbe_bader_charge
 _atom_site_pbe_bader_spin_density
 _atom_site_pbe_cm5_charge
 _atom_site_pbe_ddec_charge
 _atom_site_pbe_ddec_spin_density
 _atom_site_pbe_ddec_sum_bond_order
 _atom_site_pbe_magmom
Mn  Mn0  1  0.28445004  0.64513583  0.31279449  1  1.444343  1.408129  0.925556  1.46481  2.678006  1.413  0.856704  1.311975  3.206251  1.267  0.908369  1.276942  3.142271  1.228  1.473849  1.238144  0.701489  0.817886  1.276852  3.250446  1.235
Mn  Mn1  1  0.71555311  0.35485587  0.68720462  1  1.444145  1.408157  0.925511  1.46484  2.677867  1.413  0.856418  1.311959  3.206313  1.267  0.908253  1.276977  3.142249  1.228  1.473875  1.239006  0.701633  0.817948  1.277856  3.250383  1.235
H  H2  1  0.65817257  0.56124368  0.07200419  1  0.055175  0.000131  0.083607  1.4e-05  0.947323  0.0  0.089142  -9.6e-05  1.017805  0.0  0.093047  -9.3e-05  1.013654  0.0  0.086707  -6.5e-05  0.114889  0.086264  -0.000103  1.020843  0.0
H  H3  1  0.34182384  0.43875123  0.92799178  1  0.055168  0.000131  0.083626  1.4e-05  0.947288  0.0  0.089155  -9.6e-05  1.017772  0.0  0.093064  -9.3e-05  1.013616  0.0  0.085751  -4e-05  0.114931  0.086297  -8.4e-05  1.020802  0.0
H  H4  1  0.79555066  0.26383987  0.90754698  1  0.066627  9.5e-05  0.09879  -0.000109  0.955194  0.0  0.105422  -0.000277  1.021217  0.0  0.108396  -0.000191  1.019152  0.0  0.101222  -0.000243  0.12015  0.103124  -0.000378  1.023007  0.0
H  H5  1  0.20446731  0.73615933  0.09245733  1  0.066518  9.5e-05  0.098709  -0.000109  0.955287  0.0  0.105365  -0.000277  1.021284  0.0  0.108333  -0.000191  1.019223  0.0  0.101404  -0.000274  0.12017  0.10313  -0.000403  1.023035  0.0
H  H6  1  0.01631796  0.33932521  0.17615264  1  0.082602  0.000151  0.127696  -3.8e-05  0.954083  0.0  0.135418  -0.000153  1.019392  0.0  0.138762  -0.000189  1.017121  0.0  0.131735  -5.2e-05  0.117948  0.132532  -0.000129  1.021487  0.0
H  H7  1  0.98368620  0.66068257  0.82385452  1  0.082656  0.000151  0.127741  -3.7e-05  0.95403  0.0  0.135378  -0.000153  1.019418  0.0  0.13872  -0.000189  1.01715  0.0  0.131761  -6e-06  0.117946  0.132492  -9.1e-05  1.021525  0.0
H  H8  1  0.37783782  0.22248271  0.01748772  1  0.018115  -0.000122  0.114755  -8.1e-05  0.95636  0.0  0.122646  -2.3e-05  1.018937  0.0  0.126184  -2.1e-05  1.017408  0.0  0.064631  -5e-05  0.104144  0.119973  -7e-06  1.02036  0.0
H  H9  1  0.62218394  0.77753258  0.98252339  1  0.017999  -0.000122  0.114772  -8.1e-05  0.956348  0.0  0.122659  -2.3e-05  1.018935  0.0  0.126201  -2.1e-05  1.017401  0.0  0.064916  -5.6e-05  0.104198  0.120053  -1.5e-05  1.020327  0.0
H  H10  1  0.54433433  0.09922864  0.11091752  1  0.0153  9.5e-05  0.08989  4.4e-05  0.970196  0.0  0.096661  -6.8e-05  1.038373  0.0  0.099299  -2.3e-05  1.03739  0.0  0.061245  -0.000138  0.09791  0.094646  -0.000141  1.03935  0.0
H  H11  1  0.45568127  0.90077700  0.88909100  1  0.015545  9.5e-05  0.089809  4.4e-05  0.970224  0.0  0.096634  -6.8e-05  1.038336  0.0  0.09927  -2.2e-05  1.03736  0.0  0.061385  -0.000103  0.097964  0.094659  -0.000114  1.039301  0.0
H  H12  1  0.99519785  0.90963434  0.22908099  1  0.058535  5.8e-05  0.109068  -8.2e-05  0.936664  0.0  0.119558  -0.000116  0.993173  0.0  0.123842  -0.00011  0.990128  0.0  0.107428  -9.8e-05  0.107698  0.115752  -0.000173  0.996458  0.0
H  H13  1  0.00481338  0.09036808  0.77091890  1  0.058508  5.8e-05  0.109011  -8.3e-05  0.936693  0.0  0.119532  -0.000115  0.993177  0.0  0.123818  -0.00011  0.990128  0.0  0.107492  -3.5e-05  0.107687  0.115767  -0.000125  0.996467  0.0
H  H14  1  0.83359892  0.03927503  0.14210592  1  0.073965  -7.7e-05  0.121761  -4.3e-05  0.960677  0.0  0.128995  -1.1e-05  1.025925  0.0  0.133164  -8e-06  1.023044  0.0  0.123748  -7.3e-05  0.104858  0.125889  -1.9e-05  1.028347  0.0
H  H15  1  0.16641337  0.96072953  0.85789604  1  0.073852  -7.7e-05  0.121799  -4.3e-05  0.960527  0.0  0.129024  -1.1e-05  1.025801  0.0  0.133195  -8e-06  1.022918  0.0  0.123847  -3.3e-05  0.104912  0.12595  1.4e-05  1.02821  0.0
H  H16  1  0.27002109  0.91560181  0.40906594  1  0.036742  0.000212  0.082683  0.000136  0.945255  0.0  0.092129  -0.000296  1.006825  0.0  0.094212  -0.000161  1.004638  0.0  0.097266  -0.000713  0.120182  0.09132  -0.000571  1.007756  0.0
H  H17  1  0.72995791  0.08438881  0.59092563  1  0.037831  0.000212  0.082839  0.000136  0.945133  0.0  0.092241  -0.000296  1.006717  0.0  0.094319  -0.000161  1.004536  0.0  0.097338  -0.000678  0.12026  0.091461  -0.000541  1.007651  0.0
H  H18  1  0.27702873  0.00155864  0.56643235  1  0.024274  0.000453  0.103601  0.000405  0.974681  0.0  0.113406  0.000169  1.034966  0.0  0.117163  0.000287  1.03325  0.0  0.112137  -0.000166  0.104506  0.11061  -0.000175  1.036857  0.0
H  H19  1  0.72295994  0.99844592  0.43355505  1  0.024664  0.000453  0.103647  0.000404  0.974628  0.0  0.113391  0.000169  1.03497  0.0  0.117146  0.000287  1.033257  0.0  0.11228  -0.000193  0.104532  0.110661  -0.000195  1.036817  0.0
H  H20  1  0.24968294  0.83034089  0.67702521  1  0.05178  0.001416  0.106026  0.000739  0.941831  0.002  0.116328  -0.000571  0.999629  0.0  0.120445  -0.000442  0.995816  0.0  0.096407  -0.000508  0.106037  0.114063  -0.000535  1.001598  0.0
H  H21  1  0.75032877  0.16967655  0.32296526  1  0.051667  0.001416  0.105936  0.000739  0.941748  0.002  0.11622  -0.000571  0.99958  0.0  0.120322  -0.000443  0.99579  0.0  0.096366  -0.000572  0.10608  0.114067  -0.000585  1.001466  0.0
H  H22  1  0.22839294  0.58008578  0.62612419  1  0.029583  -0.00152  0.112247  -0.001179  0.96873  -0.001  0.119738  -0.000521  1.031379  0.0  0.123996  -0.000582  1.029325  0.0  0.110961  -0.000467  0.108311  0.117137  -0.000421  1.032536  0.0
H  H23  1  0.77161771  0.41992951  0.37387322  1  0.029533  -0.001519  0.112248  -0.001179  0.968609  -0.001  0.11979  -0.000521  1.03122  0.0  0.124046  -0.000582  1.029172  0.0  0.110679  -0.000505  0.108438  0.117257  -0.000452  1.032341  0.0
H  H24  1  0.20953052  0.37360572  0.57097792  1  0.02185  -0.001422  0.11605  -0.001002  0.941687  -0.001  0.124464  -6.6e-05  1.003143  0.0  0.129435  -9.5e-05  0.999871  0.0  0.104329  -0.000226  0.112779  0.121337  -8.9e-05  1.005377  0.0
H  H25  1  0.79044908  0.62639456  0.42902066  1  0.021804  -0.001422  0.116078  -0.001001  0.94169  -0.001  0.124517  -6.7e-05  1.003111  0.0  0.129489  -9.5e-05  0.999836  0.0  0.104325  -0.000255  0.112855  0.121464  -0.000112  1.005297  0.0
H  H26  1  0.22262021  0.14795852  0.49493067  1  0.008355  0.002165  0.089412  0.001128  0.962288  0.002  0.102002  -0.000475  1.021787  0.0  0.105296  -0.000438  1.018466  0.001  0.061786  -0.000733  0.102959  0.099021  -0.000804  1.025465  0.0
H  H27  1  0.77734947  0.85203854  0.50506948  1  0.008419  0.002163  0.089388  0.001127  0.962242  0.002  0.102029  -0.000474  1.02167  0.0  0.105326  -0.000438  1.018347  0.001  0.062061  -0.000734  0.103028  0.09909  -0.000806  1.025321  0.0
H  H28  1  0.27296840  0.13801667  0.33409626  1  0.006963  -0.000492  0.093208  -0.000219  0.980168  0.0  0.102415  -0.000182  1.042608  0.0  0.104869  2.8e-05  1.042554  0.0  0.081684  -0.000524  0.100249  0.101393  -0.000425  1.041805  0.0
H  H29  1  0.72701775  0.86197717  0.66590398  1  0.007193  -0.000492  0.093223  -0.000219  0.980151  0.0  0.102409  -0.000182  1.042616  0.0  0.104865  2.8e-05  1.042561  0.0  0.081955  -0.000473  0.100253  0.101397  -0.000385  1.041823  0.0
H  H30  1  0.31311902  0.35397732  0.25921243  1  0.044229  0.000718  0.085065  0.000231  0.959938  0.001  0.092541  -0.000641  1.025219  0.0  0.095311  -0.000603  1.022526  0.0  0.132329  -0.000612  0.116364  0.09115  -0.000651  1.026685  0.0
H  H31  1  0.68686382  0.64601545  0.74079027  1  0.044205  0.000719  0.084988  0.000231  0.959968  0.001  0.092534  -0.000641  1.025172  0.0  0.095307  -0.000603  1.022477  0.0  0.132622  -0.00056  0.116407  0.091162  -0.000607  1.026645  0.0
H  H32  1  0.59141339  0.84068286  0.29045351  1  0.655074  0.000134  0.404063  -0.000341  0.903042  0.001  0.37507  -0.000334  0.974218  0.0  0.387  -0.000359  0.957865  0.0  0.641822  -3.9e-05  0.289943  0.366547  -0.000375  0.984561  0.0
H  H33  1  0.40859306  0.15930991  0.70954379  1  0.655235  0.000134  0.404034  -0.000341  0.903059  0.001  0.375042  -0.000333  0.974251  0.0  0.386974  -0.000358  0.957894  0.0  0.641795  -2.7e-05  0.289972  0.366533  -0.000355  0.984574  0.0
H  H34  1  0.66196260  0.70858968  0.30896814  1  0.651009  0.001727  0.420226  0.000756  0.882813  0.003  0.393483  0.000808  0.941457  0.003  0.403526  0.000795  0.927367  0.003  0.641594  0.001667  0.30179  0.386192  0.000854  0.951706  0.003
H  H35  1  0.33804054  0.29140201  0.69103226  1  0.651133  0.001726  0.420215  0.000756  0.88292  0.003  0.393465  0.000808  0.941515  0.003  0.403514  0.000795  0.927414  0.003  0.64161  0.001683  0.301781  0.3862  0.000877  0.951732  0.003
H  H36  1  0.33979428  0.56940376  0.12884681  1  0.626505  -0.001175  0.384513  -0.001576  0.922003  -0.002  0.346192  -0.000919  1.010925  -0.001  0.356291  -0.00112  0.996603  -0.001  0.615211  -0.000382  0.285492  0.339252  -0.000646  1.020694  -0.001
H  H37  1  0.66020760  0.43058257  0.87115455  1  0.626434  -0.001176  0.384434  -0.001576  0.921997  -0.002  0.346132  -0.000919  1.010983  -0.001  0.356231  -0.001121  0.996659  -0.001  0.615085  -0.000368  0.285483  0.339227  -0.000625  1.020713  -0.001
H  H38  1  0.50909243  0.57069852  0.19873125  1  0.676845  0.00032  0.400243  0.000307  0.915566  0.001  0.371044  0.000347  0.980674  0.001  0.38157  0.000332  0.965506  0.001  0.665549  0.000318  0.29165  0.36366  0.000313  0.991262  0.001
H  H39  1  0.49090250  0.42928781  0.80126998  1  0.676856  0.00032  0.400169  0.000307  0.915636  0.001  0.370937  0.000347  0.980818  0.001  0.381461  0.000331  0.965653  0.001  0.665506  0.000331  0.291598  0.363576  0.000332  0.99138  0.001
C  C40  1  0.86199596  0.54257965  0.22219750  1  1.573384  -0.012948  0.675385  -0.016428  3.853033  -0.011  0.625836  -0.009847  4.144558  -0.007  0.661745  -0.009964  4.138511  -0.007  1.589498  -0.006962  0.234154  0.601362  -0.008281  4.147688  -0.006
C  C41  1  0.13799476  0.45742063  0.77780320  1  1.57335  -0.012948  0.675176  -0.016428  3.85324  -0.011  0.62567  -0.009848  4.144704  -0.007  0.661582  -0.009961  4.138662  -0.007  1.58985  -0.006924  0.234151  0.601236  -0.008232  4.147807  -0.006
C  C42  1  0.83388062  0.45611515  0.13545259  1  -0.023114  0.001608  -0.097898  0.000988  3.757353  0.002  -0.072231  -0.00013  3.993634  0.001  -0.081237  0.000525  4.015203  0.001  -0.031857  -0.000246  -0.012735  -0.067367  -0.000597  3.980276  0.0
C  C43  1  0.16611427  0.54388513  0.86454946  1  -0.022996  0.001608  -0.097786  0.000987  3.757128  0.002  -0.072191  -0.00013  3.993442  0.001  -0.081192  0.000525  4.015001  0.001  -0.032537  -0.000175  -0.012793  -0.067345  -0.000539  3.980135  0.0
C  C44  1  0.72831201  0.48105023  0.06480023  1  0.535139  -0.004353  0.09144  -0.004714  3.692735  -0.003  0.044736  -0.002123  3.962834  -0.001  0.051956  -0.00216  3.97713  -0.001  0.492032  -0.002382  0.037064  0.039916  -0.002604  3.953557  -0.002
C  C45  1  0.27168843  0.51895005  0.93520257  1  0.535185  -0.004353  0.091441  -0.004715  3.692504  -0.003  0.044758  -0.002124  3.962591  -0.001  0.051974  -0.00216  3.976889  -0.001  0.493776  -0.002352  0.037109  0.03995  -0.002578  3.953309  -0.002
C  C46  1  0.80395874  0.31632529  0.97297768  1  0.59745  -0.006014  0.019691  -0.006492  3.685058  -0.004  -0.018203  -0.0036  3.945951  -0.002  -0.013352  -0.002551  3.960377  -0.002  0.550588  -0.004218  0.039808  -0.021201  -0.004507  3.93606  -0.003
C  C47  1  0.19604726  0.68367498  0.02702649  1  0.597718  -0.006014  0.019694  -0.006492  3.685251  -0.004  -0.018183  -0.003601  3.946111  -0.002  -0.013331  -0.002549  3.960541  -0.002  0.550471  -0.004237  0.039866  -0.021134  -0.004529  3.936142  -0.003
C  C48  1  0.91351219  0.28601917  0.03990821  1  0.447602  0.002517  0.233903  0.002167  3.813706  0.002  0.226814  0.000281  4.07775  0.0  0.233012  0.000545  4.094376  0.001  0.474059  -5.6e-05  0.093091  0.222196  -0.000162  4.06624  0.0
C  C49  1  0.08649177  0.71398540  0.96009747  1  0.447556  0.002517  0.2338  0.002167  3.813958  0.002  0.226755  0.000282  4.077969  0.0  0.232954  0.000546  4.094592  0.001  0.474245  -3.9e-05  0.093093  0.22213  -0.00015  4.06648  0.0
C  C50  1  0.92806564  0.35605086  0.12273764  1  0.087622  -0.005871  -0.140063  -0.006141  3.694957  -0.004  -0.174649  -0.003238  3.940987  -0.002  -0.17335  -0.002452  3.957625  -0.001  0.017205  -0.003004  -0.075774  -0.175221  -0.003156  3.930559  -0.002
C  C51  1  0.07193672  0.64395049  0.87726847  1  0.087491  -0.00587  -0.140047  -0.00614  3.694996  -0.004  -0.174561  -0.003237  3.941042  -0.002  -0.173264  -0.002452  3.957684  -0.001  0.01711  -0.002937  -0.075746  -0.175142  -0.003091  3.930674  -0.002
C  C52  1  0.09959658  0.13838139  0.07504048  1  0.335442  -0.003137  0.27823  -0.003355  3.775337  -0.002  0.265543  -0.002548  4.039983  -0.002  0.278428  -0.000763  4.0542  0.0  0.36279  -0.005589  0.08372  0.255789  -0.005913  4.031177  -0.004
C  C53  1  0.90041730  0.86162640  0.92495977  1  0.335608  -0.003135  0.278276  -0.003353  3.775388  -0.002  0.265646  -0.002546  4.039967  -0.002  0.27851  -0.000763  4.054208  0.0  0.362793  -0.005558  0.083833  0.255961  -0.00589  4.0311  -0.004
C  C54  1  0.29849625  0.15646294  0.06583800  1  0.078641  0.001827  -0.171619  0.001453  3.737898  0.001  -0.194461  0.000413  3.995635  0.001  -0.199867  0.00016  4.013246  0.0  0.009675  0.001199  -0.101883  -0.191085  0.000789  3.985073  0.001
C  C55  1  0.70152200  0.84354806  0.93416894  1  0.078671  0.001825  -0.171739  0.001452  3.737964  0.001  -0.194587  0.000412  3.995699  0.001  -0.199987  0.00016  4.01331  0.0  0.00941  0.001229  -0.101858  -0.191167  0.000809  3.985078  0.001
C  C56  1  0.38941126  0.08709311  0.11734409  1  0.047782  -0.003502  -0.050617  -0.00357  3.750745  -0.002  -0.074567  -0.002665  4.000878  -0.002  -0.071896  -0.000826  4.020864  0.0  -0.009951  -0.005412  -0.08688  -0.076948  -0.00544  3.988613  -0.003
C  C57  1  0.61060209  0.91291361  0.88266123  1  0.047823  -0.0035  -0.050479  -0.003568  3.75073  -0.002  -0.074454  -0.002662  4.000898  -0.002  -0.071783  -0.000825  4.020882  0.0  -0.009846  -0.005348  -0.086853  -0.076778  -0.005382  3.988598  -0.003
C  C58  1  0.28030093  0.99714151  0.17608697  1  0.023353  -0.000328  -0.097933  -0.000864  3.798143  0.0  -0.077901  -0.000786  4.039  0.0  -0.088767  -0.000643  4.061534  0.0  -0.015914  -0.001433  -0.028348  -0.071529  -0.001816  4.026  0.0
C  C59  1  0.71971009  0.00285769  0.82391722  1  0.022972  -0.00033  -0.098203  -0.000866  3.798126  0.0  -0.078196  -0.000786  4.039077  0.0  -0.089064  -0.000645  4.061612  0.0  -0.015913  -0.001366  -0.028466  -0.07181  -0.001766  4.026075  0.0
C  C60  1  0.37219262  0.91244162  0.22530271  1  1.44619  -0.00327  0.616876  -0.004305  3.895584  -0.002  0.567338  -0.005263  4.200031  -0.003  0.606204  -0.000965  4.18916  0.0  1.48935  -0.010815  0.203386  0.538029  -0.012406  4.209844  -0.007
C  C61  1  0.62781596  0.08755544  0.77469810  1  1.446377  -0.003268  0.617006  -0.004303  3.895887  -0.002  0.567467  -0.005262  4.200345  -0.003  0.606333  -0.000965  4.189481  0.0  1.489403  -0.010778  0.203521  0.53821  -0.012361  4.210133  -0.007
C  C62  1  0.08032110  0.98164625  0.18452769  1  0.031693  -0.002382  -0.036076  -0.00249  3.718358  -0.002  -0.06206  -0.001579  3.972782  -0.001  -0.057808  -0.000579  3.988219  0.0  -0.031478  -0.003791  -0.080631  -0.066214  -0.00385  3.965186  -0.002
C  C63  1  0.91968820  0.01835509  0.81547210  1  0.031825  -0.00238  -0.03579  -0.002488  3.71817  -0.002  -0.0618  -0.001578  3.972583  -0.001  -0.05755  -0.000577  3.988022  0.0  -0.031684  -0.003711  -0.08046  -0.065935  -0.003775  3.965  -0.002
C  C64  1  0.98932426  0.05356993  0.13517676  1  0.030039  0.001633  -0.179114  0.001296  3.73045  0.001  -0.201494  0.000168  3.99012  0.0  -0.207359  1.9e-05  4.007155  0.0  -0.039709  0.000688  -0.098397  -0.198238  0.000357  3.980557  0.001
C  C65  1  0.01068419  0.94643249  0.86482179  1  0.03001  0.001631  -0.179247  0.001295  3.730466  0.001  -0.201612  0.000168  3.990149  0.0  -0.207472  1.8e-05  4.00719  0.0  -0.039672  0.000755  -0.098415  -0.198323  0.000415  3.98056  0.001
C  C66  1  0.26268971  0.84549073  0.45935833  1  0.451441  -0.019001  0.114943  -0.0178  3.681677  -0.008  0.084485  -0.013467  3.939924  -0.005  0.093476  -0.017122  3.954274  -0.008  0.449749  -0.008936  0.041817  0.076906  -0.008722  3.930515  -0.002
C  C67  1  0.73728255  0.15450311  0.54063266  1  0.448438  -0.019027  0.114747  -0.017804  3.681676  -0.008  0.084303  -0.013467  3.939928  -0.005  0.093317  -0.017133  3.954248  -0.008  0.449458  -0.008923  0.041876  0.076784  -0.008709  3.930482  -0.002
C  C68  1  0.26386563  0.89138437  0.54637730  1  0.082971  -0.005997  -0.132294  -0.007518  3.759058  -0.002  -0.144671  -0.011778  4.014966  -0.005  -0.149957  -0.004375  4.032837  0.0  -0.078309  -0.011569  -0.089105  -0.140161  -0.012159  4.002848  -0.005
C  C69  1  0.73611610  0.10862020  0.45361127  1  0.08478  -0.005976  -0.132437  -0.007518  3.75883  -0.002  -0.144718  -0.011777  4.014686  -0.005  -0.150009  -0.004368  4.032558  0.0  -0.077696  -0.011577  -0.089041  -0.140112  -0.01216  4.002424  -0.005
C  C70  1  0.24936724  0.79554655  0.60845700  1  -0.022776  -0.047788  -0.018933  -0.048905  3.722115  -0.031  -0.041052  -0.032046  3.97901  -0.018  -0.034796  -0.033929  3.992342  -0.019  -0.070313  -0.022764  -0.079323  -0.044169  -0.022835  3.967719  -0.013
C  C71  1  0.75062739  0.20446445  0.39153666  1  -0.022159  -0.047788  -0.018718  -0.048905  3.721934  -0.031  -0.040783  -0.032042  3.978816  -0.018  -0.034525  -0.033934  3.992155  -0.019  -0.070553  -0.022793  -0.079139  -0.043774  -0.022861  3.967318  -0.013
C  C72  1  0.23983863  0.65788066  0.58032571  1  0.141286  0.012841  -0.125278  0.00956  3.719067  0.012  -0.145626  -0.00028  3.972318  0.003  -0.151377  0.00353  3.98904  0.006  0.039011  -0.000798  -0.078467  -0.141538  -0.00191  3.959616  0.001
C  C73  1  0.76015996  0.34212712  0.41967041  1  0.140776  0.012842  -0.12536  0.009561  3.719014  0.012  -0.145747  -0.000278  3.972303  0.003  -0.151504  0.003533  3.989026  0.006  0.039614  -0.000849  -0.078449  -0.14157  -0.001956  3.959476  0.001
C  C74  1  0.24769403  0.61859598  0.49216621  1  0.367327  -0.04637  0.152139  -0.050124  3.764448  -0.028  0.148084  -0.03527  4.011798  -0.018  0.156859  -0.035466  4.028152  -0.018  0.378505  -0.025375  0.109351  0.142304  -0.026871  3.99925  -0.013
C  C75  1  0.75230470  0.38140645  0.50783411  1  0.36729  -0.046385  0.152094  -0.050138  3.76441  -0.028  0.14803  -0.035275  4.011831  -0.018  0.156803  -0.035478  4.028191  -0.018  0.378588  -0.025333  0.109364  0.142278  -0.02682  3.999269  -0.013
C  C76  1  0.25591834  0.48323211  0.45609764  1  0.417228  -0.061721  0.150204  -0.065744  3.768501  -0.04  0.146107  -0.043049  4.016402  -0.024  0.155268  -0.044879  4.032576  -0.025  0.431566  -0.030808  0.106725  0.140648  -0.032453  4.004524  -0.017
C  C77  1  0.74407760  0.51677031  0.54390263  1  0.417351  -0.061726  0.15013  -0.065751  3.768381  -0.04  0.146071  -0.043053  4.016272  -0.024  0.155211  -0.04489  4.032452  -0.025  0.431889  -0.030758  0.106763  0.140702  -0.032408  4.004337  -0.017
C  C78  1  0.23471438  0.36596697  0.50235053  1  0.087809  0.030004  -0.115644  0.023939  3.699242  0.024  -0.136927  0.004286  3.956005  0.007  -0.142103  0.009732  3.970999  0.011  -0.017699  0.002848  -0.076399  -0.135456  0.001186  3.947016  0.004
C  C79  1  0.76526596  0.63403760  0.49764767  1  0.087824  0.029997  -0.115841  0.023934  3.699218  0.024  -0.137114  0.004286  3.955939  0.007  -0.142295  0.009735  3.97094  0.011  -0.017775  0.002837  -0.076377  -0.135548  0.001173  3.946766  0.004
C  C80  1  0.24037002  0.24005795  0.45966309  1  0.035864  -0.069246  -0.022511  -0.071601  3.746769  -0.046  -0.045396  -0.042501  4.003247  -0.025  -0.038031  -0.046437  4.016143  -0.027  -0.029059  -0.031903  -0.082449  -0.050566  -0.032451  3.995856  -0.019
C  C81  1  0.75962368  0.75994554  0.54033913  1  0.035601  -0.069226  -0.022357  -0.071582  3.746883  -0.046  -0.045253  -0.042492  4.003317  -0.025  -0.037901  -0.046435  4.01622  -0.027  -0.029148  -0.031842  -0.082314  -0.050303  -0.032397  3.995777  -0.019
C  C82  1  0.26811582  0.23440907  0.37075216  1  0.085562  0.008975  -0.129321  0.00593  3.774421  0.009  -0.139977  -0.006225  4.026527  -0.001  -0.145719  0.00187  4.045265  0.005  0.00293  -0.008566  -0.0914  -0.133985  -0.00948  4.011451  -0.003
C  C83  1  0.73187384  0.76558906  0.62924839  1  0.085441  0.008964  -0.129322  0.005921  3.774486  0.009  -0.139974  -0.006228  4.026622  -0.001  -0.145722  0.001867  4.045366  0.005  0.002971  -0.008469  -0.091337  -0.133919  -0.009388  4.01147  -0.003
C  C84  1  0.29061565  0.35403954  0.32812769  1  0.468961  -0.037049  0.114422  -0.037227  3.674901  -0.021  0.082783  -0.02042  3.933734  -0.01  0.093159  -0.026887  3.945029  -0.014  0.378934  -0.015807  0.036987  0.075254  -0.015318  3.924039  -0.007
C  C85  1  0.70936911  0.64595430  0.67187124  1  0.468962  -0.037042  0.11437  -0.037219  3.674848  -0.021  0.082677  -0.020416  3.933712  -0.01  0.093055  -0.026885  3.944984  -0.014  0.378556  -0.015733  0.03697  0.07521  -0.015254  3.923998  -0.007
N  N86  1  0.71473832  0.41242700  0.98488109  1  -1.2431  0.00161  -0.306589  0.001525  3.192589  0.002  -0.246506  0.000357  3.453428  0.001  -0.259004  0.000434  3.468578  0.001  -1.241906  7.2e-05  -0.312399  -0.238192  0.000224  3.443329  0.001
N  N87  1  0.28526299  0.58757221  0.01512101  1  -1.243241  0.00161  -0.306614  0.001525  3.192618  0.002  -0.246513  0.000358  3.453428  0.001  -0.259018  0.000433  3.468586  0.001  -1.241878  4.6e-05  -0.312353  -0.238122  0.000206  3.443247  0.001
N  N88  1  0.28563081  0.47854331  0.36891527  1  -1.163658  -0.057328  -0.313875  -0.059645  3.288177  -0.048  -0.265419  -0.045678  3.578846  -0.036  -0.284176  -0.034559  3.592501  -0.026  -1.168155  -0.040016  -0.356013  -0.250003  -0.042741  3.567098  -0.036
N  N89  1  0.71436175  0.52144946  0.63108502  1  -1.163532  -0.057345  -0.313682  -0.059655  3.288013  -0.048  -0.265246  -0.04568  3.578749  -0.036  -0.283999  -0.034563  3.592385  -0.026  -1.168011  -0.039908  -0.355929  -0.249894  -0.042662  3.567058  -0.036
N  N90  1  0.25476331  0.71118349  0.43104276  1  -1.158458  -0.069321  -0.30265  -0.073756  3.304128  -0.064  -0.254568  -0.051288  3.59566  -0.044  -0.2753  -0.041079  3.610066  -0.034  -1.158963  -0.043454  -0.352408  -0.237571  -0.047297  3.582592  -0.042
N  N91  1  0.74523713  0.28881679  0.56895552  1  -1.158687  -0.069322  -0.302514  -0.07376  3.303998  -0.064  -0.254396  -0.051287  3.595525  -0.044  -0.275162  -0.041078  3.609949  -0.034  -1.159077  -0.043384  -0.352355  -0.237406  -0.047242  3.582495  -0.042
O  O92  1  0.00213722  0.54161635  0.27470411  1  -1.179496  0.022568  -0.586685  0.017545  2.16554  0.015  -0.532624  0.024733  2.443735  0.022  -0.571237  0.01983  2.439125  0.018  -1.166854  0.038967  -0.305445  -0.50502  0.029515  2.446468  0.027
O  O93  1  0.99785403  0.45838499  0.72529344  1  -1.179513  0.022569  -0.586641  0.01755  2.165691  0.015  -0.532539  0.024739  2.443811  0.022  -0.571167  0.019835  2.439212  0.018  -1.166928  0.039114  -0.3054  -0.504909  0.02961  2.44651  0.027
O  O94  1  0.74329379  0.60789679  0.23927791  1  -1.219452  -0.006689  -0.632988  -0.00673  2.024677  -0.005  -0.571593  -0.002909  2.246178  -0.002  -0.598379  -0.003156  2.234444  -0.002  -1.194696  -0.001617  -0.300021  -0.552517  -0.001946  2.2533  -0.001
O  O95  1  0.25669395  0.39210026  0.76072254  1  -1.21936  -0.006689  -0.632859  -0.00673  2.024712  -0.005  -0.571465  -0.002909  2.246183  -0.002  -0.598254  -0.003157  2.234458  -0.002  -1.194834  -0.001498  -0.299974  -0.55238  -0.001876  2.253282  -0.001
O  O96  1  0.01181045  0.19671521  0.01486683  1  -1.124089  9.7e-05  -0.289411  0.000121  2.408133  0.0  -0.216922  -0.000196  2.631432  0.0  -0.237163  3.2e-05  2.637941  0.0  -1.108439  -0.000713  -0.141749  -0.202466  -0.000419  2.626574  0.0
O  O97  1  0.98820886  0.80329794  0.98513575  1  -1.124165  9.7e-05  -0.289335  0.000121  2.408216  0.0  -0.216931  -0.000195  2.631572  0.0  -0.237165  3.2e-05  2.638083  0.0  -1.108482  -0.000719  -0.141706  -0.202407  -0.000429  2.626669  0.0
O  O98  1  0.24849191  0.80572333  0.25823695  1  -1.169392  -0.006922  -0.588691  -0.009065  2.157935  -0.013  -0.546792  0.003006  2.44332  -0.001  -0.579313  0.002151  2.429639  -0.003  -1.161073  0.005854  -0.315921  -0.523536  0.003414  2.452535  0.001
O  O99  1  0.75152427  0.19426944  0.74176503  1  -1.169441  -0.006924  -0.588678  -0.009073  2.15816  -0.013  -0.546819  0.003  2.443571  -0.001  -0.579353  0.002146  2.429895  -0.003  -1.161001  0.005957  -0.315956  -0.523579  0.003473  2.452795  0.001
O  O100  1  0.56038426  0.94563118  0.23133967  1  -1.157547  0.000671  -0.604774  0.000676  1.953446  0.001  -0.553294  -0.000694  2.169811  0.0  -0.576109  0.000789  2.157321  0.001  -1.144115  -0.003808  -0.316558  -0.538897  -0.003536  2.179697  -0.002
O  O101  1  0.43962404  0.05435408  0.76865593  1  -1.157641  0.000672  -0.604732  0.000676  1.953515  0.001  -0.553232  -0.000693  2.169881  0.0  -0.576053  0.000789  2.157393  0.001  -1.143958  -0.003679  -0.316417  -0.538756  -0.003458  2.179711  -0.002
O  O102  1  0.58030133  0.76378476  0.33267869  1  -1.256911  -0.0214  -0.779598  -0.025904  1.972721  -0.03  -0.732334  -0.003314  2.186727  -0.01  -0.773504  -0.003477  2.164126  -0.009  -1.23338  0.002457  -0.55387  -0.702817  -0.002283  2.201434  -0.009
O  O103  1  0.41970287  0.23620908  0.66731992  1  -1.257168  -0.021394  -0.779576  -0.025899  1.972868  -0.03  -0.732308  -0.003313  2.186811  -0.01  -0.773491  -0.003476  2.164199  -0.009  -1.233259  0.00254  -0.553822  -0.702763  -0.002239  2.201468  -0.009
O  O104  1  0.36521842  0.55762329  0.19088451  1  -1.302653  -0.00471  -0.793118  -0.006725  1.993336  -0.009  -0.745818  -0.000902  2.215564  -0.004  -0.770478  -0.001302  2.182791  -0.004  -1.276959  0.001552  -0.560451  -0.726693  5e-05  2.237006  -0.003
O  O105  1  0.63477260  0.44235231  0.80911410  1  -1.302524  -0.004712  -0.792969  -0.006724  1.993372  -0.009  -0.745627  -0.000901  2.215663  -0.004  -0.770338  -0.001301  2.18298  -0.004  -1.276632  0.001663  -0.560346  -0.726535  0.000114  2.237073  -0.003
