# generated using pymatgen
data_ZnH15C20N8O5
_symmetry_space_group_name_H-M   'P 1'
_cell_length_a   8.91846224
_cell_length_b   9.97866481
_cell_length_c   13.80743236
_cell_angle_alpha   90.15821278
_cell_angle_beta   106.73622053
_cell_angle_gamma   116.16799300
_symmetry_Int_Tables_number   1
_chemical_formula_structural   ZnH15C20N8O5
_chemical_formula_sum   'Zn2 H30 C40 N16 O10'
_cell_volume   1044.01882115
_cell_formula_units_Z   2
loop_
 _symmetry_equiv_pos_site_id
 _symmetry_equiv_pos_as_xyz
  1  'x, y, z'
loop_
 _atom_site_type_symbol
 _atom_site_label
 _atom_site_symmetry_multiplicity
 _atom_site_fract_x
 _atom_site_fract_y
 _atom_site_fract_z
 _atom_site_occupancy
 _atom_site_hle17_bader_spin_density
 _atom_site_hle17_ddec_charge
 _atom_site_hle17_ddec_spin_density
 _atom_site_hle17_ddec_sum_bond_order
 _atom_site_hle17_magmom
 _atom_site_hse06_10hf_bader_spin_density
 _atom_site_hse06_10hf_ddec_charge
 _atom_site_hse06_10hf_ddec_spin_density
 _atom_site_hse06_10hf_ddec_sum_bond_order
 _atom_site_hse06_10hf_magmom
 _atom_site_hse06_bader_spin_density
 _atom_site_hse06_ddec_charge
 _atom_site_hse06_ddec_spin_density
 _atom_site_hse06_ddec_sum_bond_order
 _atom_site_hse06_magmom
 _atom_site_pbe_bader_spin_density
 _atom_site_pbe_cm5_charge
 _atom_site_pbe_ddec_charge
 _atom_site_pbe_ddec_spin_density
 _atom_site_pbe_ddec_sum_bond_order
 _atom_site_pbe_magmom
Zn  Zn0  1  0.74552446  0.08990222  0.92311427  1  0  1.047981  0  1.812865  0  0  0.871101  0  2.264766  0  0  0.918639  0  2.210409  0  0  0.690266  0.837274  0  2.302229  0
Zn  Zn1  1  0.25447360  0.91009976  0.07688550  1  0  1.04798  0  1.812898  0  0  0.8711  0  2.264802  0  0  0.918636  0  2.210449  0  0  0.690258  0.837272  0  2.302264  0
H  H2  1  0.80032141  0.68957555  0.74049012  1  0  0.074486  0  0.941404  0  0  0.083937  0  1.003875  0  0  0.086687  0  1.000975  0  0  0.112493  0.081779  0  1.006272  0
H  H3  1  0.19967660  0.31042418  0.25950963  1  0  0.074483  0  0.94141  0  0  0.08393  0  1.003894  0  0  0.08668  0  1.000994  0  0  0.112493  0.081772  0  1.006291  0
H  H4  1  0.48854914  0.63525348  0.66774623  1  0  0.095783  0  0.976831  0  0  0.104666  0  1.042786  0  0  0.107217  0  1.043048  0  0  0.102395  0.102865  0  1.042716  0
H  H5  1  0.51145238  0.36474624  0.33225417  1  0  0.095772  0  0.976824  0  0  0.10466  0  1.042773  0  0  0.107217  0  1.043035  0  0  0.102385  0.10286  0  1.042703  0
H  H6  1  0.36427238  0.17907016  0.56068019  1  0  0.108862  0  0.944  0  0  0.11968  0  1.000571  0  0  0.122925  0  1.000086  0  0  0.107683  0.11704  0  1.001673  0
H  H7  1  0.63572858  0.82093069  0.43932011  1  0  0.108868  0  0.943993  0  0  0.119683  0  1.000566  0  0  0.122929  0  1.000081  0  0  0.107678  0.117044  0  1.001668  0
H  H8  1  0.68614944  0.25478599  0.63700756  1  0  0.058987  0  0.964556  0  0  0.059949  0  1.043379  0  0  0.062955  0  1.04054  0  0  0.102354  0.058073  0  1.044887  0
H  H9  1  0.31385091  0.74521373  0.36299190  1  0  0.059004  0  0.96455  0  0  0.059968  0  1.043369  0  0  0.062972  0  1.040531  0  0  0.10236  0.058092  0  1.044877  0
H  H10  1  0.60738261  0.20008945  0.45343363  1  0  0.106761  0  0.970628  0  0  0.114549  0  1.036678  0  0  0.117737  0  1.035846  0  0  0.105808  0.112347  0  1.037304  0
H  H11  1  0.39261540  0.79991028  0.54656539  1  0  0.106786  0  0.970588  0  0  0.114573  0  1.036638  0  0  0.117759  0  1.035807  0  0  0.105826  0.11237  0  1.037263  0
H  H12  1  0.33856211  0.05060391  0.30176875  1  0  0.078674  0  0.929816  0  0  0.088765  0  0.98892  0  0  0.091429  0  0.986849  0  0  0.115235  0.086868  0  0.990364  0
H  H13  1  0.66143768  0.94939695  0.69822989  1  0  0.078675  0  0.929778  0  0  0.088752  0  0.988899  0  0  0.091416  0  0.986828  0  0  0.115244  0.086856  0  0.990342  0
H  H14  1  0.62833524  0.95842112  0.14983296  1  0  0.103897  0  0.930874  0  0  0.108673  0  0.995884  0  0  0.111683  0  0.993053  0  0  0.124297  0.106432  0  0.99796  0
H  H15  1  0.37166572  0.04157973  0.85016661  1  0  0.103874  0  0.930865  0  0  0.108647  0  0.995892  0  0  0.111657  0  0.99306  0  0  0.124285  0.106405  0  0.997969  0
H  H16  1  0.91012074  0.10514990  0.29500588  1  0  0.115353  0  0.945164  0  0  0.123439  0  1.008741  0  0  0.12701  0  1.006818  0  0  0.112378  0.120835  0  1.010357  0
H  H17  1  0.08987961  0.89484981  0.70499575  1  0  0.115333  0  0.945173  0  0  0.123416  0  1.008754  0  0  0.126987  0  1.006832  0  0  0.112365  0.120813  0  1.010369  0
H  H18  1  0.09709689  0.53418827  0.71704888  1  0  0.120654  0  0.915849  0  0  0.123652  0  0.990708  0  0  0.126043  0  0.987277  0  0  0.142103  0.121648  0  0.994574  0
H  H19  1  0.90290225  0.46580919  0.28295179  1  0  0.120639  0  0.915821  0  0  0.123639  0  0.99066  0  0  0.126029  0  0.987228  0  0  0.14211  0.121637  0  0.994524  0
H  H20  1  0.30300269  0.52636114  0.74830481  1  0  0.098263  0  0.922536  0  0  0.108635  0  0.987779  0  0  0.108967  0  0.987693  0  0  0.136036  0.108295  0  0.989064  0
H  H21  1  0.69699883  0.47363858  0.25169559  1  0  0.098259  0  0.922545  0  0  0.108624  0  0.987781  0  0  0.108953  0  0.987701  0  0  0.136047  0.108285  0  0.989066  0
H  H22  1  0.05879277  0.03617565  0.85346982  1  0  0.113109  0  0.955655  0  0  0.122113  0  1.015062  0  0  0.124611  0  1.0127  0  0  0.137208  0.120231  0  1.016967  0
H  H23  1  0.94120579  0.96382295  0.14652930  1  0  0.113119  0  0.955672  0  0  0.1221  0  1.015107  0  0  0.124598  0  1.012744  0  0  0.137213  0.120225  0  1.017012  0
H  H24  1  0.90893187  0.38505011  0.82038338  1  0  0.124648  0  0.947305  0  0  0.127241  0  1.017297  0  0  0.130982  0  1.012838  0  0  0.147358  0.124652  0  1.021115  0
H  H25  1  0.09106614  0.61494962  0.17961637  1  0  0.124634  0  0.947342  0  0  0.12722  0  1.017348  0  0  0.130958  0  1.012888  0  0  0.147359  0.124632  0  1.021165  0
H  H26  1  0.77218910  0.59513743  0.95230451  1  0  0.09904  0  0.954586  0  0  0.110293  0  1.016002  0  0  0.11393  0  1.013685  0  0  0.104671  0.107466  0  1.01794  0
H  H27  1  0.22781363  0.40486456  0.04769468  1  0  0.099028  0  0.954569  0  0  0.11029  0  1.015965  0  0  0.113917  0  1.013672  0  0  0.104673  0.107462  0  1.017903  0
H  H28  1  0.05060499  0.18733993  0.08797922  1  0  0.421153  0  0.884981  0  0  0.389096  0  0.952368  0  0  0.399848  0  0.936612  0  0  0.286109  0.381474  0  0.963518  0
H  H29  1  0.94939358  0.81265866  0.91202063  1  0  0.421133  0  0.88501  0  0  0.389072  0  0.952404  0  0  0.399825  0  0.936646  0  0  0.286097  0.38145  0  0.963554  0
H  H30  1  0.90172047  0.23884178  0.10067584  1  0  0.415931  0  0.894373  0  0  0.382799  0  0.961864  0  0  0.394922  0  0.94438  0  0  0.281679  0.373958  0  0.974572  0
H  H31  1  0.09827871  0.76115794  0.89932341  1  0  0.415954  0  0.894341  0  0  0.382818  0  0.96184  0  0  0.39494  0  0.944358  0  0  0.281696  0.373976  0  0.974549  0
C  C32  1  0.70123266  0.57712493  0.69992745  1  0  0.141223  0  3.722844  0  0  0.115945  0  3.984139  0  0  0.121637  0  4.000473  0  0  0.048646  0.112317  0  3.973014  0
C  C33  1  0.29876652  0.42287479  0.30007324  1  0  0.141223  0  3.722883  0  0  0.115938  0  3.984185  0  0  0.12163  0  4.000519  0  0  0.048639  0.11231  0  3.973058  0
C  C34  1  0.52479380  0.54591070  0.65971692  1  0  -0.153074  0  3.708484  0  0  -0.173798  0  3.95398  0  0  -0.179984  0  3.975637  0  0  -0.085227  -0.169512  0  3.939024  0
C  C35  1  0.47520533  0.45408677  0.34028230  1  0  -0.152946  0  3.708442  0  0  -0.173674  0  3.953904  0  0  -0.179872  0  3.975574  0  0  -0.085154  -0.16939  0  3.938949  0
C  C36  1  0.39915409  0.40066814  0.60849627  1  0  0.049552  0  3.797639  0  0  0.063407  0  4.034539  0  0  0.064754  0  4.055253  0  0  0.011644  0.062547  0  4.020198  0
C  C37  1  0.60084564  0.59933046  0.39150307  1  0  0.049413  0  3.797695  0  0  0.063289  0  4.034559  0  0  0.064635  0  4.055273  0  0  0.011597  0.062428  0  4.020218  0
C  C38  1  0.45802233  0.29371066  0.59901272  1  0  -0.136098  0  3.702433  0  0  -0.154962  0  3.94196  0  0  -0.161122  0  3.963242  0  0  -0.079561  -0.150951  0  3.928166  0
C  C39  1  0.54197802  0.70628906  0.40098746  1  0  -0.136095  0  3.702483  0  0  -0.154965  0  3.942002  0  0  -0.161125  0  3.963283  0  0  -0.079574  -0.150954  0  3.928209  0
C  C40  1  0.63680407  0.33623761  0.64215184  1  0  0.114162  0  3.763068  0  0  0.089437  0  4.027376  0  0  0.094584  0  4.044707  0  0  0.038458  0.086182  0  4.015332  0
C  C41  1  0.36319628  0.66376212  0.35784835  1  0  0.114136  0  3.76312  0  0  0.089407  0  4.027434  0  0  0.094555  0  4.044765  0  0  0.038441  0.086152  0  4.01539  0
C  C42  1  0.21077819  0.35587497  0.56495330  1  0  0.287007  0  3.725528  0  0  0.249219  0  4.002869  0  0  0.264812  0  4.013419  0  0  0.238337  0.239192  0  3.994943  0
C  C43  1  0.78922038  0.64412363  0.43504655  1  0  0.287047  0  3.725476  0  0  0.249274  0  4.002788  0  0  0.264868  0  4.013335  0  0  0.238354  0.239248  0  3.99486  0
C  C44  1  0.94239552  0.25362376  0.47071073  1  0  0.286662  0  3.800714  0  0  0.269769  0  4.074693  0  0  0.279978  0  4.08867  0  0  0.215141  0.26311  0  4.064634  0
C  C45  1  0.05760539  0.74637483  0.52929027  1  0  0.286664  0  3.800771  0  0  0.2698  0  4.07469  0  0  0.280009  0  4.088665  0  0  0.215161  0.26314  0  4.064631  0
C  C46  1  0.78101764  0.16472760  0.38557052  1  0  0.056281  0  3.779508  0  0  0.072248  0  4.004121  0  0  0.075598  0  4.024854  0  0  0.013805  0.070318  0  3.990028  0
C  C47  1  0.21898332  0.83527324  0.61443123  1  0  0.056278  0  3.779613  0  0  0.07228  0  4.004151  0  0  0.07563  0  4.024882  0  0  0.013821  0.070349  0  3.990058  0
C  C48  1  0.61697722  0.14780004  0.38766011  1  0  -0.165946  0  3.729365  0  0  -0.184727  0  3.973511  0  0  -0.191691  0  3.994163  0  0  -0.089166  -0.180456  0  3.960156  0
C  C49  1  0.38302196  0.85219968  0.61233985  1  0  -0.165983  0  3.729394  0  0  -0.184777  0  3.973515  0  0  -0.191741  0  3.99417  0  0  -0.089192  -0.180504  0  3.96016  0
C  C50  1  0.46802409  0.06447438  0.30402903  1  0  0.115216  0  3.749731  0  0  0.086665  0  4.004528  0  0  0.092621  0  4.023413  0  0  0.041402  0.082925  0  3.991675  0
C  C51  1  0.53197392  0.93552535  0.69597000  1  0  0.115166  0  3.749728  0  0  0.086645  0  4.004525  0  0  0.092601  0  4.023408  0  0  0.041361  0.082904  0  3.991674  0
C  C52  1  0.62981265  0.01292671  0.21892410  1  0  0.159884  0  3.643974  0  0  0.129124  0  3.89903  0  0  0.137409  0  3.914266  0  0  0.061868  0.123757  0  3.888822  0
C  C53  1  0.37018891  0.98707527  0.78107486  1  0  0.1599  0  3.643965  0  0  0.129144  0  3.899038  0  0  0.13743  0  3.914276  0  0  0.061892  0.123778  0  3.888831  0
C  C54  1  0.78559225  0.09437981  0.29938035  1  0  -0.123447  0  3.661574  0  0  -0.14617  0  3.908126  0  0  -0.152575  0  3.926866  0  0  -0.071768  -0.14219  0  3.895532  0
C  C55  1  0.21440754  0.90562104  0.70062045  1  0  -0.12341  0  3.661631  0  0  -0.146142  0  3.90817  0  0  -0.152544  0  3.926905  0  0  -0.071757  -0.142161  0  3.895577  0
C  C56  1  0.15975039  0.46215814  0.71416270  1  0  0.077189  0  3.594697  0  0  -0.011014  0  3.855551  0  0  -0.000353  0  3.860636  0  0  0.071179  -0.027565  0  3.85024  0
C  C57  1  0.84025053  0.53784045  0.28583758  1  0  0.07722  0  3.594549  0  0  -0.010919  0  3.855369  0  0  -0.000255  0  3.86045  0  0  0.071185  -0.027475  0  3.85006  0
C  C58  1  0.04904392  0.13739701  0.83143226  1  0  0.203495  0  3.667925  0  0  0.154615  0  3.951709  0  0  0.164733  0  3.965005  0  0  0.149804  0.147389  0  3.945957  0
C  C59  1  0.95095642  0.86260272  0.16856720  1  0  0.20353  0  3.667937  0  0  0.154671  0  3.951717  0  0  0.164786  0  3.965013  0  0  0.149806  0.147436  0  3.945972  0
C  C60  1  0.97025258  0.31283972  0.81782178  1  0  0.192085  0  3.612895  0  0  0.121945  0  3.887193  0  0  0.137353  0  3.897302  0  0  0.173766  0.102056  0  3.876936  0
C  C61  1  0.02974777  0.68716000  0.18217913  1  0  0.192097  0  3.612914  0  0  0.121996  0  3.887241  0  0  0.137408  0  3.897348  0  0  0.173789  0.102102  0  3.876982  0
C  C62  1  0.64848122  0.79629712  0.93929552  1  0  0.63664  0  3.923958  0  0  0.583648  0  4.221459  0  0  0.617573  0  4.214528  0  0  0.201055  0.560505  0  4.225795  0
C  C63  1  0.35151974  0.20370373  0.06070478  1  0  0.636677  0  3.924057  0  0  0.583674  0  4.221585  0  0  0.617602  0  4.214649  0  0  0.201067  0.56053  0  4.225922  0
C  C64  1  0.30241157  0.67173058  0.98251565  1  0  0.684764  0  3.895025  0  0  0.630642  0  4.1957  0  0  0.665976  0  4.184955  0  0  0.215028  0.606967  0  4.201387  0
C  C65  1  0.69758878  0.32826914  0.01748453  1  0  0.684748  0  3.89504  0  0  0.630602  0  4.195719  0  0  0.665935  0  4.184974  0  0  0.215019  0.60693  0  4.201404  0
C  C66  1  0.41017469  0.58773933  0.99336629  1  0  -0.042412  0  3.699081  0  0  -0.031194  0  3.941566  0  0  -0.03289  0  3.957564  0  0  -0.007207  -0.030727  0  3.931255  0
C  C67  1  0.58982922  0.41226264  0.00663529  1  0  -0.042491  0  3.699157  0  0  -0.031238  0  3.941629  0  0  -0.032931  0  3.957628  0  0  -0.007264  -0.030782  0  3.931339  0
C  C68  1  0.56570781  0.64138794  0.96688897  1  0  -0.069821  0  3.737219  0  0  -0.058357  0  3.980216  0  0  -0.063038  0  3.999317  0  0  -0.016149  -0.055939  0  3.968043  0
C  C69  1  0.43429549  0.35861291  0.03311176  1  0  -0.069739  0  3.737208  0  0  -0.058313  0  3.980234  0  0  -0.062995  0  3.999334  0  0  -0.016074  -0.055893  0  3.968066  0
C  C70  1  0.65194056  0.55220840  0.97295134  1  0  -0.089776  0  3.723191  0  0  -0.126136  0  3.979019  0  0  -0.126237  0  3.997304  0  0  -0.086565  -0.125669  0  3.967331  0
C  C71  1  0.34806335  0.44779358  0.02705096  1  0  -0.089847  0  3.723162  0  0  -0.126196  0  3.979037  0  0  -0.126297  0  3.997318  0  0  -0.086641  -0.125732  0  3.967346  0
N  N72  1  0.75801446  0.47483573  0.69223369  1  0  -0.306155  0  3.065835  0  0  -0.270216  0  3.337276  0  0  -0.280876  0  3.35152  0  0  -0.316943  -0.263063  0  3.327591  0
N  N73  1  0.24198533  0.52516512  0.30776711  1  0  -0.306146  0  3.065859  0  0  -0.270203  0  3.337295  0  0  -0.28086  0  3.351537  0  0  -0.316918  -0.26305  0  3.32761  0
N  N74  1  0.10385544  0.26538577  0.47688316  1  0  -0.432623  0  2.908013  0  0  -0.410114  0  3.175549  0  0  -0.424155  0  3.185359  0  0  -0.322804  -0.400416  0  3.168188  0
N  N75  1  0.89614135  0.73461169  0.52311708  1  0  -0.432611  0  2.907984  0  0  -0.410119  0  3.175493  0  0  -0.424162  0  3.185303  0  0  -0.322794  -0.400422  0  3.168132  0
N  N76  1  0.11537707  0.39812576  0.60919528  1  0  -0.016797  0  3.506309  0  0  0.065419  0  3.741757  0  0  0.051528  0  3.766438  0  0  -0.12614  0.074372  0  3.727295  0
N  N77  1  0.88462150  0.60187283  0.39080457  1  0  -0.016829  0  3.50627  0  0  0.065373  0  3.741703  0  0  0.051482  0  3.76638  0  0  -0.126161  0.074327  0  3.727241  0
N  N78  1  0.94363774  0.33158444  0.55017554  1  0  -0.288621  0  2.835108  0  0  -0.290175  0  3.112224  0  0  -0.29717  0  3.126843  0  0  -0.213201  -0.285428  0  3.102636  0
N  N79  1  0.05636205  0.66841642  0.44982454  1  0  -0.28862  0  2.835185  0  0  -0.290193  0  3.112292  0  0  -0.297186  0  3.126911  0  0  -0.21321  -0.285446  0  3.102705  0
N  N80  1  0.47354221  0.99859657  0.22089998  1  0  -0.323273  0  3.261499  0  0  -0.252674  0  3.529508  0  0  -0.270608  0  3.546722  0  0  -0.318673  -0.240565  0  3.517556  0
N  N81  1  0.52645936  0.00140542  0.77909972  1  0  -0.323205  0  3.261467  0  0  -0.252644  0  3.529502  0  0  -0.270579  0  3.546716  0  0  -0.31866  -0.240535  0  3.517552  0
N  N82  1  0.09257896  0.34045471  0.77197525  1  0  0.023628  0  3.564887  0  0  0.112471  0  3.793303  0  0  0.099287  0  3.819002  0  0  -0.131232  0.149931  0  3.739739  0
N  N83  1  0.90742200  0.65954614  0.22802578  1  0  0.023676  0  3.564692  0  0  0.11239  0  3.793245  0  0  0.099205  0  3.818943  0  0  -0.131278  0.149864  0  3.739671  0
N  N84  1  0.14464221  0.23023160  0.77955153  1  0  -0.26275  0  2.824596  0  0  -0.259745  0  3.096448  0  0  -0.26669  0  3.111564  0  0  -0.22356  -0.2644  0  3.080704  0
N  N85  1  0.85535875  0.76976925  0.22044877  1  0  -0.262795  0  2.824549  0  0  -0.259753  0  3.096419  0  0  -0.266697  0  3.111534  0  0  -0.223548  -0.264412  0  3.080676  0
N  N86  1  0.93941850  0.18409609  0.85628556  1  0  -0.420738  0  3.255895  0  0  -0.345118  0  3.558081  0  0  -0.367529  0  3.568992  0  0  -0.344915  -0.330304  0  3.553763  0
N  N87  1  0.06058185  0.81590363  0.14371390  1  0  -0.420805  0  3.25596  0  0  -0.345181  0  3.558139  0  0  -0.367591  0  3.56905  0  0  -0.344941  -0.330367  0  3.553826  0
O  O88  1  0.60383185  0.89170505  0.96789461  1  0  -0.60458  0  2.047914  0  0  -0.530743  0  2.300786  0  0  -0.560012  0  2.290459  0  0  -0.304069  -0.510265  0  2.307353  0
O  O89  1  0.39616850  0.10829468  0.03210485  1  0  -0.604635  0  2.047911  0  0  -0.530786  0  2.300791  0  0  -0.560056  0  2.290463  0  0  -0.304097  -0.510306  0  2.307356  0
O  O90  1  0.75990272  0.82949818  0.89194440  1  0  -0.65577  0  1.965987  0  0  -0.600301  0  2.202856  0  0  -0.625059  0  2.192323  0  0  -0.326103  -0.582925  0  2.209922  0
O  O91  1  0.24009768  0.17050381  0.10805362  1  0  -0.655767  0  1.966076  0  0  -0.600284  0  2.202934  0  0  -0.625041  0  2.192399  0  0  -0.326107  -0.582909  0  2.210001  0
O  O92  1  0.31468794  0.73825092  0.06587833  1  0  -0.646927  0  2.052648  0  0  -0.579448  0  2.316855  0  0  -0.607596  0  2.302481  0  0  -0.328215  -0.559106  0  2.325518  0
O  O93  1  0.68530889  0.26174880  0.93412121  1  0  -0.646962  0  2.052707  0  0  -0.57944  0  2.316884  0  0  -0.60759  0  2.302512  0  0  -0.328225  -0.559097  0  2.325542  0
O  O94  1  0.20178925  0.66206033  0.89409855  1  0  -0.62803  0  1.953025  0  0  -0.576126  0  2.17668  0  0  -0.601621  0  2.168033  0  0  -0.316146  -0.557083  0  2.181731  0
O  O95  1  0.79821287  0.33794052  0.10590124  1  0  -0.627977  0  1.953037  0  0  -0.576081  0  2.176701  0  0  -0.601578  0  2.168053  0  0  -0.316123  -0.557038  0  2.181748  0
O  O96  1  0.92406809  0.15426527  0.07899318  1  0  -0.844503  0  1.916969  0  0  -0.782107  0  2.121224  0  0  -0.804196  0  2.085612  0  0  -0.580534  -0.766223  0  2.146694  0
O  O97  1  0.07593109  0.84573445  0.92100606  1  0  -0.844485  0  1.916955  0  0  -0.782081  0  2.12121  0  0  -0.804172  0  2.085598  0  0  -0.580532  -0.766195  0  2.146679  0
