# generated using pymatgen
data_CuH26C30S4(N5O2)2
_symmetry_space_group_name_H-M   'P 1'
_cell_length_a   12.68379846
_cell_length_b   16.35461236
_cell_length_c   17.71274076
_cell_angle_alpha   90.00020935
_cell_angle_beta   89.99993522
_cell_angle_gamma   90.00055625
_symmetry_Int_Tables_number   1
_chemical_formula_structural   CuH26C30S4(N5O2)2
_chemical_formula_sum   'Cu4 H104 C120 S16 N40 O16'
_cell_volume   3674.30626984
_cell_formula_units_Z   4
loop_
 _symmetry_equiv_pos_site_id
 _symmetry_equiv_pos_as_xyz
  1  'x, y, z'
loop_
 _atom_site_type_symbol
 _atom_site_label
 _atom_site_symmetry_multiplicity
 _atom_site_fract_x
 _atom_site_fract_y
 _atom_site_fract_z
 _atom_site_occupancy
 _atom_site_pbe_bader_charge
 _atom_site_pbe_bader_spin_density
 _atom_site_pbe_cm5_charge
 _atom_site_pbe_ddec_charge
 _atom_site_pbe_ddec_spin_density
 _atom_site_pbe_ddec_sum_bond_order
 _atom_site_pbe_magmom
Cu  Cu0  1  0.76268365  0.65151804  0.55764574  1  0.999772  0.552126  0.797124  0.62507  0.715164  2.373909  0.551
Cu  Cu1  1  0.23731352  0.34847885  0.05764489  1  0.999692  0.55214  0.797124  0.62497  0.715183  2.37404  0.551
Cu  Cu2  1  0.23731506  0.15151459  0.55764848  1  0.99985  0.552122  0.797115  0.625058  0.715157  2.373884  0.551
Cu  Cu3  1  0.76268763  0.84848842  0.05765006  1  0.999739  0.552098  0.797124  0.625017  0.715126  2.373862  0.551
H  H4  1  0.02366292  0.13822081  0.51856481  1  0.46838  -1e-06  0.304816  0.302685  2.4e-05  0.949786  0.0
H  H5  1  0.97633826  0.86178326  0.01856683  1  0.468415  -1e-06  0.304799  0.302601  2.4e-05  0.94971  0.0
H  H6  1  0.97633963  0.63822161  0.51856586  1  0.468392  -1e-06  0.304735  0.302523  2.4e-05  0.949769  0.0
H  H7  1  0.02366391  0.36177758  0.01855957  1  0.468282  -1e-06  0.304764  0.302625  2.4e-05  0.949861  0.0
H  H8  1  0.04159149  0.17975612  0.60662352  1  0.503012  -4.4e-05  0.28911  0.29189  -9.8e-05  1.01723  0.0
H  H9  1  0.95841191  0.82024646  0.10662372  1  0.503038  -4.4e-05  0.289107  0.291823  -9.8e-05  1.01731  0.0
H  H10  1  0.95841143  0.67975678  0.60662345  1  0.502997  -4.4e-05  0.289128  0.291874  -9.8e-05  1.017293  0.0
H  H11  1  0.04159118  0.32024397  0.10661984  1  0.503087  -4.4e-05  0.289104  0.291882  -9.8e-05  1.017187  0.0
H  H12  1  0.51600973  0.97536965  0.33329829  1  0.051607  3e-06  0.09741  0.098381  -3e-06  1.024793  0.0
H  H13  1  0.48400435  0.02462830  0.83329438  1  0.05145  3e-06  0.097386  0.098323  -3e-06  1.024857  0.0
H  H14  1  0.48399335  0.47537296  0.33329461  1  0.051515  3e-06  0.097389  0.098304  -3e-06  1.024893  0.0
H  H15  1  0.51599550  0.52463599  0.83329467  1  0.05139  3e-06  0.097366  0.09827  -3e-06  1.024928  0.0
H  H16  1  0.47796842  0.14173179  0.59865218  1  0.438976  6.2e-05  0.299522  0.294441  1.7e-05  0.973049  0.0
H  H17  1  0.52202868  0.85826403  0.09864891  1  0.439022  6.3e-05  0.299566  0.294581  1.7e-05  0.972934  0.0
H  H18  1  0.52202931  0.64172791  0.59865416  1  0.439003  6.2e-05  0.299577  0.294534  1.7e-05  0.97301  0.0
H  H19  1  0.47797410  0.35826913  0.09864693  1  0.43914  6.2e-05  0.299549  0.294511  1.7e-05  0.973004  0.0
H  H20  1  0.46279980  0.18354179  0.51020237  1  0.501373  -2.6e-05  0.28704  0.287578  -0.000183  1.031203  0.0
H  H21  1  0.53721243  0.81645736  0.01019838  1  0.501349  -2.6e-05  0.287033  0.287561  -0.000183  1.031293  0.0
H  H22  1  0.53720175  0.68353986  0.51020603  1  0.501451  -2.6e-05  0.287082  0.287653  -0.000183  1.031127  0.0
H  H23  1  0.46279313  0.31646174  0.01019754  1  0.50148  -2.6e-05  0.287047  0.287538  -0.000183  1.031291  0.0
H  H24  1  0.49387924  0.11076161  0.39635141  1  0.070234  8e-06  0.097882  0.114788  1.5e-05  1.026981  0.0
H  H25  1  0.50614341  0.88923842  0.89634653  1  0.069799  8e-06  0.097828  0.114627  1.5e-05  1.027061  0.0
H  H26  1  0.50613025  0.61076250  0.39635284  1  0.070231  8e-06  0.097858  0.114713  1.5e-05  1.027048  0.0
H  H27  1  0.49385692  0.38924364  0.89634397  1  0.069929  8e-06  0.097835  0.114643  1.5e-05  1.027086  0.0
H  H28  1  0.71168438  0.49987793  0.81212221  1  0.095631  0.001398  0.106869  0.112817  0.000744  1.019455  0.001
H  H29  1  0.28831318  0.50012177  0.31212071  1  0.09568  0.001398  0.106886  0.112836  0.000744  1.019457  0.001
H  H30  1  0.28830958  0.99987167  0.81212720  1  0.095546  0.001398  0.106857  0.112783  0.000744  1.019468  0.001
H  H31  1  0.71168955  0.00013660  0.31212589  1  0.095599  0.001398  0.106901  0.112876  0.000744  1.019443  0.001
H  H32  1  0.71376188  0.62430446  0.73114851  1  0.15183  0.002898  0.115956  0.093864  0.001384  1.042638  0.002
H  H33  1  0.28623107  0.37569433  0.23114827  1  0.151755  0.002898  0.115956  0.093766  0.001384  1.042801  0.002
H  H34  1  0.28622833  0.12429893  0.73115121  1  0.151823  0.002898  0.11595  0.093888  0.001384  1.042663  0.002
H  H35  1  0.71376383  0.87570780  0.23115123  1  0.151793  0.002898  0.115907  0.093761  0.001385  1.042654  0.002
H  H36  1  0.78766112  0.61914222  0.38337790  1  0.161729  0.00278  0.113785  0.089232  0.001347  1.045928  0.002
H  H37  1  0.21232371  0.38085654  0.88337600  1  0.16138  0.00278  0.113745  0.089223  0.001347  1.045819  0.002
H  H38  1  0.21234061  0.11913919  0.38338348  1  0.161846  0.00278  0.113797  0.089235  0.001347  1.045991  0.002
H  H39  1  0.78767339  0.88086201  0.88338454  1  0.161637  0.00278  0.113747  0.08922  0.001347  1.045981  0.002
H  H40  1  0.54586346  0.85912163  0.55036273  1  0.094641  3e-06  0.098977  0.103211  2e-06  1.037954  0.0
H  H41  1  0.45411953  0.14087278  0.05035760  1  0.094659  3e-06  0.099023  0.103198  2e-06  1.037902  0.0
H  H42  1  0.45413153  0.35911983  0.55035626  1  0.094642  3e-06  0.099032  0.103224  2e-06  1.038096  0.0
H  H43  1  0.54587985  0.64088009  0.05035730  1  0.094509  3e-06  0.099019  0.103191  2e-06  1.03805  0.0
H  H44  1  0.73594551  0.35827552  0.36452268  1  0.110365  9.4e-05  0.121949  0.131057  3.5e-05  0.961  0.0
H  H45  1  0.26404171  0.64172256  0.86452334  1  0.110412  9.4e-05  0.121943  0.131104  3.5e-05  0.960826  0.0
H  H46  1  0.26405370  0.85827396  0.36452148  1  0.110322  9.4e-05  0.121961  0.131078  3.6e-05  0.960932  0.0
H  H47  1  0.73595166  0.14172595  0.86451946  1  0.110264  9.4e-05  0.121942  0.131126  3.6e-05  0.960867  0.0
H  H48  1  0.72526820  0.27856086  0.62844274  1  0.090026  0.000717  0.115802  0.127201  0.00037  0.97118  0.0
H  H49  1  0.27473123  0.72143386  0.12844145  1  0.089962  0.000717  0.115792  0.127186  0.00037  0.971226  0.0
H  H50  1  0.27472724  0.77855693  0.62844209  1  0.090418  0.000717  0.115809  0.127227  0.00037  0.971195  0.0
H  H51  1  0.72527533  0.22145001  0.12843871  1  0.090291  0.000717  0.115801  0.127196  0.00037  0.971191  0.0
H  H52  1  0.72562970  0.36119283  0.75180606  1  0.129626  0.000132  0.121898  0.130842  5.4e-05  0.95832  0.0
H  H53  1  0.27437031  0.63880542  0.25180223  1  0.129686  0.000132  0.121898  0.130811  5.4e-05  0.958362  0.0
H  H54  1  0.27437209  0.86118524  0.75180655  1  0.130068  0.000133  0.121924  0.130847  5.4e-05  0.958122  0.0
H  H55  1  0.72563108  0.13882096  0.25180570  1  0.13014  0.000132  0.121915  0.130793  5.4e-05  0.958111  0.0
H  H56  1  0.02326600  0.10732961  0.71927904  1  0.102993  1.1e-05  0.09961  0.114772  6e-06  1.027559  0.0
H  H57  1  0.97673959  0.89266974  0.21928511  1  0.102841  1.1e-05  0.099628  0.114771  6e-06  1.027594  0.0
H  H58  1  0.97674846  0.60732979  0.71928234  1  0.102863  1.1e-05  0.099657  0.114816  6e-06  1.027518  0.0
H  H59  1  0.02326738  0.39267017  0.21927560  1  0.103048  1.1e-05  0.099636  0.11486  6e-06  1.027378  0.0
H  H60  1  0.01007604  0.98535301  0.50372612  1  0.018919  -2e-05  0.098264  0.109294  -2.1e-05  1.008983  0.0
H  H61  1  0.98992279  0.01464612  0.00373140  1  0.018928  -2e-05  0.098294  0.109385  -2.1e-05  1.008986  0.0
H  H62  1  0.98992689  0.48535711  0.50372824  1  0.018933  -2e-05  0.098282  0.109312  -2.1e-05  1.008906  0.0
H  H63  1  0.01007194  0.51464813  0.00372363  1  0.018787  -2e-05  0.098249  0.109277  -2.1e-05  1.008908  0.0
H  H64  1  0.98709163  0.85164288  0.56857824  1  0.098831  1.4e-05  0.100653  0.103801  5e-06  1.035355  0.0
H  H65  1  0.01290631  0.14835894  0.06858196  1  0.098891  1.5e-05  0.100665  0.10387  5e-06  1.035212  0.0
H  H66  1  0.01290954  0.35164506  0.56857721  1  0.098889  1.4e-05  0.100655  0.103818  5e-06  1.035353  0.0
H  H67  1  0.98708683  0.64835676  0.06857509  1  0.098816  1.4e-05  0.100636  0.103735  5e-06  1.035371  0.0
H  H68  1  0.00032630  0.97255040  0.78431114  1  0.061915  1.3e-05  0.099801  0.103377  1.1e-05  1.016247  0.0
H  H69  1  0.99967919  0.02745042  0.28431589  1  0.061738  1.3e-05  0.099847  0.1034  1.1e-05  1.016136  0.0
H  H70  1  0.99968707  0.47254907  0.78431212  1  0.061917  1.3e-05  0.099836  0.103386  1.1e-05  1.016132  0.0
H  H71  1  0.00032551  0.52745053  0.28430587  1  0.062033  1.3e-05  0.099844  0.103449  1.1e-05  1.016248  0.0
H  H72  1  0.52195894  0.99326731  0.61358583  1  0.022625  -1.4e-05  0.095469  0.106951  -9e-06  1.00643  0.0
H  H73  1  0.47802395  0.00672980  0.11358134  1  0.022746  -1.4e-05  0.095509  0.106953  -9e-06  1.006487  0.0
H  H74  1  0.47803682  0.49326140  0.61358385  1  0.022648  -1.4e-05  0.095493  0.106948  -9e-06  1.006411  0.0
H  H75  1  0.52197524  0.50673631  0.11358049  1  0.022752  -1.4e-05  0.09552  0.106984  -9e-06  1.006468  0.0
H  H76  1  0.77208700  0.49402806  0.30293446  1  0.107075  0.001323  0.107334  0.112769  0.000717  1.009977  0.001
H  H77  1  0.22789086  0.50597038  0.80293242  1  0.107046  0.001324  0.107307  0.112747  0.000717  1.009926  0.001
H  H78  1  0.22791163  0.99402868  0.30293668  1  0.107164  0.001323  0.107306  0.112669  0.000717  1.010021  0.001
H  H79  1  0.77210092  0.00596977  0.80293473  1  0.107125  0.001323  0.107257  0.11267  0.000717  1.009975  0.001
H  H80  1  0.72030370  0.27796930  0.48846045  1  0.135457  0.000659  0.116167  0.132332  0.000347  0.974478  0.0
H  H81  1  0.27969121  0.72202497  0.98845912  1  0.135615  0.000659  0.116095  0.132227  0.000347  0.974469  0.0
H  H82  1  0.27969195  0.77796480  0.48846037  1  0.135398  0.000659  0.116198  0.132407  0.000347  0.97441  0.0
H  H83  1  0.72031321  0.22203681  0.98845751  1  0.135352  0.000659  0.116202  0.132407  0.000347  0.974513  0.0
H  H84  1  0.03665078  0.81971573  0.33896363  1  0.102934  -0.000117  0.098972  0.155057  -0.000106  1.010493  0.0
H  H85  1  0.96334042  0.18028714  0.83896269  1  0.102883  -0.000117  0.098988  0.155055  -0.000106  1.010468  0.0
H  H86  1  0.96334168  0.31971045  0.33896973  1  0.10299  -0.000116  0.098996  0.155102  -0.000106  1.01058  0.0
H  H87  1  0.03665977  0.68028569  0.83896788  1  0.103015  -0.000117  0.098989  0.15509  -0.000106  1.010595  0.0
H  H88  1  0.07266994  0.82807149  0.43567706  1  0.051375  6.4e-05  0.100396  0.146641  2e-06  1.006616  0.0
H  H89  1  0.92732664  0.17193542  0.93567895  1  0.051275  6.4e-05  0.100404  0.146695  2e-06  1.006581  0.0
H  H90  1  0.92732800  0.32806350  0.43568432  1  0.051156  6.4e-05  0.100473  0.146752  2e-06  1.006678  0.0
H  H91  1  0.07267409  0.67193118  0.93568298  1  0.0512  6.4e-05  0.100451  0.146756  2e-06  1.006667  0.0
H  H92  1  0.01292026  0.91272191  0.38850102  1  0.000753  0.000442  0.090752  0.130695  0.000227  1.009666  0.0
H  H93  1  0.98707718  0.08728176  0.88850200  1  0.000445  0.000442  0.090687  0.130632  0.000227  1.009691  0.0
H  H94  1  0.98708117  0.41271315  0.38850767  1  0.000479  0.000442  0.090663  0.130613  0.000227  1.009539  0.0
H  H95  1  0.01291942  0.58728074  0.88850608  1  0.000689  0.000442  0.090737  0.130707  0.000227  1.00961  0.0
H  H96  1  0.48977413  0.81553232  0.77684316  1  0.112796  -9.6e-05  0.099771  0.154965  -8.5e-05  1.0098  0.0
H  H97  1  0.51021717  0.18445747  0.27684265  1  0.112654  -9.6e-05  0.099759  0.154964  -8.5e-05  1.009781  0.0
H  H98  1  0.51021838  0.31553155  0.77684229  1  0.113249  -9.6e-05  0.099767  0.154983  -8.5e-05  1.00974  0.0
H  H99  1  0.48978397  0.68446191  0.27684634  1  0.113152  -9.6e-05  0.099737  0.154907  -8.5e-05  1.009816  0.0
H  H100  1  0.45440397  0.82836996  0.68024267  1  0.052093  8.5e-05  0.100415  0.145508  2e-05  1.016986  0.0
H  H101  1  0.54559537  0.17161945  0.18024265  1  0.05217  8.5e-05  0.100434  0.145505  2e-05  1.017009  0.0
H  H102  1  0.54558964  0.32837008  0.68024177  1  0.052278  8.5e-05  0.100456  0.145567  2e-05  1.016939  0.0
H  H103  1  0.45440576  0.67162362  0.18024638  1  0.052215  8.5e-05  0.100442  0.14547  2e-05  1.017027  0.0
H  H104  1  0.51476806  0.91048291  0.73072002  1  0.041757  0.00033  0.092809  0.134285  0.000175  1.002839  0.0
H  H105  1  0.48522095  0.08950792  0.23071806  1  0.04172  0.00033  0.092806  0.13428  0.000175  1.002894  0.0
H  H106  1  0.48523280  0.41048378  0.73072086  1  0.041707  0.00033  0.092846  0.134335  0.000175  1.002952  0.0
H  H107  1  0.51477829  0.58951255  0.23072118  1  0.041633  0.00033  0.092815  0.134312  0.000175  1.002947  0.0
C  C108  1  0.74237248  0.48446715  0.51728469  1  0.397421  0.00192  0.118356  0.119051  0.001213  3.996471  0.001
C  C109  1  0.25762081  0.51552897  0.01728270  1  0.397476  0.001919  0.118444  0.119299  0.001213  3.99621  0.001
C  C110  1  0.25762727  0.98446187  0.51728631  1  0.397358  0.001919  0.118291  0.118888  0.001213  3.996361  0.001
C  C111  1  0.74237312  0.01554159  0.01728615  1  0.397055  0.00192  0.118315  0.11912  0.001213  3.996124  0.001
C  C112  1  0.73663481  0.40970649  0.47732632  1  0.078387  0.003614  0.007343  0.050995  0.002632  3.993765  0.003
C  C113  1  0.26335696  0.59028957  0.97732454  1  0.078327  0.003614  0.007333  0.050956  0.002632  3.993855  0.003
C  C114  1  0.26336486  0.90970431  0.47732794  1  0.078249  0.003614  0.007321  0.051051  0.002632  3.993884  0.003
C  C115  1  0.73663795  0.09029664  0.97732461  1  0.078526  0.003614  0.007311  0.051109  0.002632  3.99373  0.003
C  C116  1  0.51696684  0.98005041  0.39468236  1  -0.017041  -2.7e-05  -0.09779  -0.088469  -5.4e-05  4.079321  0.0
C  C117  1  0.48303926  0.01994656  0.89467843  1  -0.016594  -2.7e-05  -0.097746  -0.088436  -5.4e-05  4.079277  0.0
C  C118  1  0.48303384  0.48005127  0.39467869  1  -0.016765  -2.7e-05  -0.097758  -0.088376  -5.4e-05  4.07924  0.0
C  C119  1  0.51695965  0.51995487  0.89467590  1  -0.01684  -2.7e-05  -0.097657  -0.088309  -5.4e-05  4.079247  0.0
C  C120  1  0.50423145  0.05519940  0.42955115  1  0.013225  7.3e-05  -0.111507  -0.199913  6e-05  3.932737  0.0
C  C121  1  0.49577617  0.94479892  0.92954872  1  0.013554  7.3e-05  -0.11157  -0.199874  6e-05  3.932916  0.0
C  C122  1  0.49577100  0.55519838  0.42955258  1  0.013084  7.3e-05  -0.111453  -0.199807  6e-05  3.932736  0.0
C  C123  1  0.50422322  0.44480605  0.92954785  1  0.013529  7.3e-05  -0.111533  -0.19986  6e-05  3.932689  0.0
C  C124  1  0.71811936  0.49310482  0.75115366  1  -0.005475  0.006365  -0.081559  -0.127552  0.004364  3.96388  0.005
C  C125  1  0.28187908  0.50689464  0.25115218  1  -0.005429  0.006365  -0.081628  -0.127622  0.004364  3.963903  0.005
C  C126  1  0.28187618  0.99309668  0.75115696  1  -0.005538  0.006365  -0.081607  -0.127503  0.004363  3.963925  0.005
C  C127  1  0.71812147  0.00691196  0.25115453  1  -0.005732  0.006366  -0.081659  -0.127801  0.004364  3.964219  0.005
C  C128  1  0.72022567  0.56380774  0.70607493  1  0.481612  -0.00139  0.057301  0.112527  -0.001765  3.908201  -0.001
C  C129  1  0.27976968  0.43619034  0.20607321  1  0.481675  -0.00139  0.05734  0.112601  -0.001765  3.908373  -0.001
C  C130  1  0.27976934  0.06379910  0.70607932  1  0.48152  -0.00139  0.057368  0.112419  -0.001764  3.908514  -0.001
C  C131  1  0.72022838  0.93620753  0.20607785  1  0.481827  -0.001391  0.057363  0.112698  -0.001765  3.908523  -0.001
C  C132  1  0.02089660  0.05499491  0.60741766  1  0.401388  -0.000504  0.096873  0.316545  -0.000588  4.048606  0.0
C  C133  1  0.97911626  0.94500645  0.10742109  1  0.401365  -0.000504  0.097076  0.316826  -0.000588  4.048375  0.0
C  C134  1  0.97911266  0.55499756  0.60742040  1  0.401357  -0.000504  0.096929  0.316722  -0.000588  4.048237  0.0
C  C135  1  0.02089390  0.44500686  0.10741215  1  0.401569  -0.000504  0.096916  0.316625  -0.000588  4.0483  0.0
C  C136  1  0.77069894  0.55974673  0.40833329  1  0.465266  -0.001957  0.056973  0.109104  -0.002346  3.91456  -0.002
C  C137  1  0.22928664  0.44024846  0.90833045  1  0.466085  -0.001957  0.056914  0.108996  -0.002345  3.914594  -0.002
C  C138  1  0.22930123  0.05974566  0.40833716  1  0.465548  -0.001957  0.056934  0.109043  -0.002346  3.914736  -0.002
C  C139  1  0.77071036  0.94025564  0.90833675  1  0.465719  -0.001957  0.057001  0.1091  -0.002346  3.914928  -0.002
C  C140  1  0.53336126  0.91415798  0.51681410  1  -0.039908  -5e-06  -0.095719  -0.074439  -1.9e-05  4.03541  0.0
C  C141  1  0.46662966  0.08583997  0.01681102  1  -0.039752  -4e-06  -0.095957  -0.074643  -1.9e-05  4.035327  0.0
C  C142  1  0.46663682  0.41415321  0.51681101  1  -0.039938  -5e-06  -0.095872  -0.074607  -1.9e-05  4.035714  0.0
C  C143  1  0.53336908  0.58584596  0.01681186  1  -0.039749  -5e-06  -0.095919  -0.074588  -1.9e-05  4.035326  0.0
C  C144  1  0.74398916  0.41395165  0.39783665  1  -0.02288  -0.003757  -0.048636  -0.048776  -0.004212  3.885305  -0.002
C  C145  1  0.25599722  0.58604411  0.89783768  1  -0.022767  -0.003758  -0.048576  -0.048881  -0.004213  3.885091  -0.002
C  C146  1  0.25601226  0.91394942  0.39783940  1  -0.0224  -0.003758  -0.048597  -0.048771  -0.004213  3.885074  -0.002
C  C147  1  0.74399540  0.08605062  0.89783775  1  -0.022867  -0.003758  -0.048652  -0.049023  -0.004213  3.885121  -0.002
C  C148  1  0.72755259  0.33576546  0.59684468  1  0.040496  0.001114  -0.072227  -0.108808  0.000771  3.952241  0.001
C  C149  1  0.27244452  0.66423097  0.09684207  1  0.040689  0.001114  -0.07219  -0.108741  0.000771  3.952164  0.001
C  C150  1  0.27244440  0.83576091  0.59684404  1  0.039785  0.001115  -0.072275  -0.108863  0.000771  3.952264  0.001
C  C151  1  0.72755823  0.16424469  0.09684158  1  0.040147  0.001115  -0.072198  -0.108568  0.000771  3.951766  0.001
C  C152  1  0.72466112  0.41677219  0.71780973  1  0.012609  -0.003408  -0.050176  -0.054182  -0.003854  3.889081  -0.002
C  C153  1  0.27533737  0.58322654  0.21780852  1  0.01262  -0.003408  -0.050113  -0.054004  -0.003854  3.888963  -0.002
C  C154  1  0.27533747  0.91676460  0.71781247  1  0.01224  -0.003408  -0.050114  -0.053971  -0.003853  3.888894  -0.002
C  C155  1  0.72466339  0.08324391  0.21781143  1  0.011829  -0.003408  -0.050156  -0.053796  -0.003854  3.888749  -0.002
C  C156  1  0.01621652  0.05087450  0.68696830  1  -0.082636  -6.3e-05  -0.107671  -0.192102  -7.8e-05  3.94069  0.0
C  C157  1  0.98379700  0.94912656  0.18697457  1  -0.082529  -6.2e-05  -0.107758  -0.192205  -7.8e-05  3.940738  0.0
C  C158  1  0.98379728  0.55087596  0.68697103  1  -0.082586  -6.2e-05  -0.107774  -0.19223  -7.7e-05  3.940628  0.0
C  C159  1  0.01621466  0.44912816  0.18696393  1  -0.082761  -6.2e-05  -0.107757  -0.192173  -7.7e-05  3.940531  0.0
C  C160  1  0.50443562  0.06168519  0.50937167  1  0.375279  -0.000166  0.103401  0.32887  -0.000201  4.075599  0.0
C  C161  1  0.49556636  0.93831090  0.00936756  1  0.374399  -0.000167  0.103478  0.32898  -0.000201  4.075666  0.0
C  C162  1  0.49556520  0.56168294  0.50937197  1  0.375331  -0.000167  0.1034  0.32887  -0.000201  4.07545  0.0
C  C163  1  0.50443441  0.43831743  0.00936669  1  0.37443  -0.000167  0.103418  0.328941  -0.000201  4.075246  0.0
C  C164  1  0.99538434  0.90439461  0.68041365  1  -0.136583  -0.000433  -0.046225  -0.144622  -0.000478  4.052898  0.0
C  C165  1  0.00461973  0.09560581  0.18041775  1  -0.136539  -0.000433  -0.046183  -0.144421  -0.000477  4.052634  0.0
C  C166  1  0.00461888  0.40439489  0.68041319  1  -0.13657  -0.000433  -0.046248  -0.144602  -0.000478  4.052686  0.0
C  C167  1  0.99538203  0.59560614  0.18040806  1  -0.143589  -0.000433  -0.046105  -0.144441  -0.000477  4.05267  0.0
C  C168  1  0.00845738  0.98236681  0.56526430  1  0.021842  -0.000212  -0.10866  -0.201282  -0.000237  3.954882  0.0
C  C169  1  0.99155161  0.01763194  0.06526790  1  0.021968  -0.000212  -0.108702  -0.201405  -0.000237  3.954929  0.0
C  C170  1  0.99155015  0.48237031  0.56526530  1  0.021832  -0.000212  -0.108661  -0.201344  -0.000237  3.954646  0.0
C  C171  1  0.00845252  0.51763273  0.06525844  1  0.022027  -0.000212  -0.108594  -0.201231  -0.000237  3.954694  0.0
C  C172  1  0.53102682  0.90892199  0.43784664  1  -0.174763  -0.000189  -0.053668  -0.159614  -0.00022  4.061534  0.0
C  C173  1  0.46897132  0.09107637  0.93784128  1  -0.17486  -0.000189  -0.053569  -0.15937  -0.00022  4.061381  0.0
C  C174  1  0.46897290  0.40892091  0.43784185  1  -0.174823  -0.000189  -0.053701  -0.159589  -0.00022  4.061366  0.0
C  C175  1  0.53102682  0.59108417  0.93783930  1  -0.174535  -0.000189  -0.053643  -0.159477  -0.00022  4.061257  0.0
C  C176  1  0.99628794  0.90756726  0.60140386  1  -0.054165  7e-06  -0.091847  -0.071819  -2.5e-05  4.018681  0.0
C  C177  1  0.00371626  0.09243163  0.10140852  1  -0.054093  7e-06  -0.091961  -0.072107  -2.5e-05  4.018752  0.0
C  C178  1  0.00371545  0.40756938  0.60140340  1  -0.054174  7e-06  -0.091869  -0.071841  -2.5e-05  4.018621  0.0
C  C179  1  0.99628401  0.59243074  0.10139995  1  -0.054259  7e-06  -0.091919  -0.071834  -2.5e-05  4.018646  0.0
C  C180  1  0.00363058  0.97625872  0.72293329  1  -0.025812  -7.6e-05  -0.094192  -0.0857  -9.7e-05  4.062864  0.0
C  C181  1  0.99637894  0.02374186  0.22293973  1  -0.02588  -7.5e-05  -0.094251  -0.085803  -9.7e-05  4.0629  0.0
C  C182  1  0.99637977  0.47625859  0.72293484  1  -0.025837  -7.6e-05  -0.094218  -0.0858  -9.7e-05  4.062765  0.0
C  C183  1  0.00362896  0.52374138  0.22292914  1  -0.018814  -7.6e-05  -0.094276  -0.08595  -9.7e-05  4.063086  0.0
C  C184  1  0.72474556  0.77475262  0.43667881  1  0.988208  0.001855  0.229428  0.307006  0.000896  4.154493  0.003
C  C185  1  0.27525101  0.22524757  0.93667576  1  0.988242  0.001856  0.229431  0.306978  0.000896  4.154649  0.003
C  C186  1  0.27525487  0.27474518  0.43667417  1  0.9881  0.001856  0.229587  0.306974  0.000896  4.154544  0.003
C  C187  1  0.72475038  0.72525501  0.93667870  1  0.988318  0.001854  0.229499  0.30697  0.000896  4.154658  0.003
C  C188  1  0.52034983  0.98938204  0.55206965  1  -0.006352  -0.000186  -0.11327  -0.210715  -0.000212  3.953103  0.0
C  C189  1  0.47964104  0.01061422  0.05206574  1  -0.006384  -0.000186  -0.113191  -0.210653  -0.000213  3.953106  0.0
C  C190  1  0.47964756  0.48937554  0.55206767  1  -0.006313  -0.000186  -0.11326  -0.210664  -0.000212  3.953071  0.0
C  C191  1  0.52035750  0.51062072  0.05206546  1  -0.006331  -0.000186  -0.11325  -0.210756  -0.000212  3.953072  0.0
C  C192  1  0.90927019  0.81368175  0.41803121  1  0.49584  0.003998  0.119264  0.212022  0.00289  4.028801  0.005
C  C193  1  0.09072325  0.18632509  0.91802874  1  0.495693  0.003998  0.11934  0.212151  0.002891  4.02904  0.005
C  C194  1  0.09072680  0.31367291  0.41803350  1  0.495633  0.003999  0.119357  0.212193  0.002891  4.028619  0.005
C  C195  1  0.90927689  0.68632537  0.91803435  1  0.495826  0.003998  0.119349  0.212228  0.002891  4.028616  0.005
C  C196  1  0.76285624  0.48878437  0.36387590  1  -0.014313  0.005979  -0.082507  -0.129771  0.004087  3.966151  0.005
C  C197  1  0.23712389  0.51121065  0.86387726  1  -0.015139  0.00598  -0.082477  -0.129663  0.004087  3.966012  0.005
C  C198  1  0.23714459  0.98878505  0.36388037  1  -0.015059  0.005979  -0.082486  -0.129675  0.004087  3.965996  0.005
C  C199  1  0.76287102  0.01121547  0.86388070  1  -0.014568  0.005979  -0.082417  -0.12963  0.004086  3.966129  0.005
C  C200  1  0.61721313  0.81205228  0.69816245  1  0.478334  0.003517  0.120561  0.214549  0.002572  4.024014  0.004
C  C201  1  0.38278461  0.18794209  0.19815810  1  0.478206  0.003517  0.120663  0.214625  0.002572  4.023747  0.004
C  C202  1  0.38278183  0.31205605  0.69816168  1  0.47825  0.003516  0.120486  0.214478  0.002571  4.023877  0.004
C  C203  1  0.61721748  0.68794688  0.19816169  1  0.47829  0.003517  0.120571  0.214586  0.002572  4.023813  0.004
C  C204  1  0.80146764  0.77307495  0.68037793  1  0.985878  0.001359  0.230797  0.307572  0.000512  4.152769  0.002
C  C205  1  0.19853170  0.22692363  0.18037725  1  0.985942  0.001356  0.230788  0.307557  0.000511  4.152632  0.002
C  C206  1  0.19852765  0.27307549  0.68037675  1  0.985848  0.001359  0.230724  0.307456  0.000512  4.152972  0.002
C  C207  1  0.80147248  0.72692860  0.18037844  1  0.985865  0.001359  0.230724  0.307477  0.000512  4.152903  0.002
C  C208  1  0.72740522  0.33520828  0.51951955  1  -0.08494  0.001135  -0.071758  -0.106913  0.00077  3.943642  0.001
C  C209  1  0.27258965  0.66478724  0.01951863  1  -0.084945  0.001134  -0.071717  -0.106786  0.00077  3.943581  0.001
C  C210  1  0.27259267  0.83520557  0.51951947  1  -0.08479  0.001134  -0.071773  -0.106982  0.00077  3.943604  0.001
C  C211  1  0.72740929  0.16479790  0.01951532  1  -0.085032  0.001134  -0.07177  -0.107104  0.00077  3.94365  0.001
C  C212  1  0.72912432  0.41103606  0.63829125  1  -0.033758  0.003924  0.006711  0.051218  0.00279  3.998259  0.003
C  C213  1  0.27087114  0.58895992  0.13828950  1  -0.033697  0.003924  0.006657  0.051131  0.002789  3.998238  0.003
C  C214  1  0.27087590  0.91103149  0.63829568  1  -0.033536  0.003923  0.006649  0.05092  0.00279  3.998448  0.003
C  C215  1  0.72912666  0.08897121  0.13829353  1  -0.033369  0.003924  0.006722  0.050778  0.00279  3.998417  0.003
C  C216  1  0.73293361  0.48534531  0.59754048  1  0.503899  0.001857  0.11684  0.118564  0.001211  3.997235  0.001
C  C217  1  0.26706113  0.51464990  0.09754018  1  0.503914  0.001856  0.116699  0.118177  0.001211  3.997639  0.001
C  C218  1  0.26706760  0.98534010  0.59754436  1  0.504076  0.001858  0.116791  0.118797  0.00121  3.997067  0.001
C  C219  1  0.73293345  0.01466489  0.09754138  1  0.504133  0.001856  0.116747  0.118721  0.00121  3.997096  0.001
C  C220  1  0.01339604  0.84580502  0.39375193  1  0.003935  0.000697  -0.236015  -0.436574  0.000446  3.961306  0.0
C  C221  1  0.98660060  0.15420050  0.89375201  1  0.004326  0.000697  -0.235975  -0.436592  0.000446  3.961458  0.0
C  C222  1  0.98659982  0.34579564  0.39375688  1  0.00435  0.000697  -0.236024  -0.436664  0.000446  3.961426  0.0
C  C223  1  0.01339918  0.65419949  0.89375666  1  0.004086  0.000697  -0.236072  -0.436786  0.000446  3.961667  0.0
C  C224  1  0.51334221  0.84384114  0.72307907  1  -0.03879  0.00077  -0.236228  -0.437039  0.000494  3.958887  0.0
C  C225  1  0.48665075  0.15614967  0.22307735  1  -0.038571  0.00077  -0.23621  -0.43701  0.000494  3.958865  0.0
C  C226  1  0.48665310  0.34384325  0.72307878  1  -0.039284  0.00077  -0.236246  -0.437118  0.000494  3.959004  0.0
C  C227  1  0.51334933  0.65615306  0.22308046  1  -0.039023  0.00077  -0.236196  -0.436939  0.000494  3.958988  0.0
S  S228  1  0.79112206  0.84510906  0.37788507  1  0.190955  0.014124  0.091974  0.019462  0.008327  2.749  0.009
S  S229  1  0.20887066  0.15489457  0.87788014  1  0.191113  0.014125  0.091883  0.019338  0.008327  2.749122  0.009
S  S230  1  0.20887145  0.34510111  0.37787992  1  0.191079  0.014128  0.091853  0.019333  0.008329  2.748979  0.009
S  S231  1  0.79112915  0.65489701  0.87788359  1  0.190899  0.014128  0.091887  0.019326  0.008328  2.748919  0.009
S  S232  1  0.54005984  0.81362160  0.39115240  1  2.908971  -0.000324  0.532889  1.097859  -0.000504  6.009273  0.0
S  S233  1  0.45993759  0.18637535  0.89114963  1  2.909348  -0.000324  0.53286  1.097681  -0.000505  6.009453  0.0
S  S234  1  0.45993641  0.31361984  0.39114705  1  2.908647  -0.000324  0.532944  1.097797  -0.000504  6.009402  0.0
S  S235  1  0.54006417  0.68638323  0.89114821  1  2.908846  -0.000324  0.532873  1.097686  -0.000505  6.009663  0.0
S  S236  1  0.98602847  0.80978588  0.72819379  1  2.932613  -0.000383  0.533752  1.096576  -0.00063  6.027512  0.0
S  S237  1  0.01397158  0.19022023  0.22819369  1  2.932613  -0.000383  0.533754  1.096634  -0.00063  6.027451  0.0
S  S238  1  0.01396246  0.30978318  0.72818936  1  2.932171  -0.000383  0.533575  1.096446  -0.00063  6.027587  0.0
S  S239  1  0.98603522  0.69021620  0.22818796  1  2.932117  -0.000383  0.533623  1.096515  -0.00063  6.027637  0.0
S  S240  1  0.73464655  0.84134241  0.74051050  1  0.202938  0.013523  0.096575  0.022893  0.007975  2.775886  0.008
S  S241  1  0.26535033  0.15865152  0.24050897  1  0.202987  0.013524  0.09658  0.022894  0.007976  2.775675  0.008
S  S242  1  0.26534634  0.34134651  0.74050757  1  0.203029  0.013522  0.096547  0.022941  0.007974  2.775794  0.008
S  S243  1  0.73465449  0.65865537  0.24050964  1  0.203026  0.013524  0.096515  0.022829  0.007975  2.775684  0.008
N  N244  1  0.73175883  0.73592178  0.63480788  1  -0.741952  0.094767  -0.280987  -0.242629  0.063809  3.612745  0.083
N  N245  1  0.26824373  0.26407418  0.13480783  1  -0.742047  0.094763  -0.280979  -0.242596  0.063805  3.612881  0.083
N  N246  1  0.26823449  0.23592040  0.63480833  1  -0.741973  0.094758  -0.280962  -0.24253  0.063801  3.612451  0.083
N  N247  1  0.73176098  0.76408168  0.13481133  1  -0.741967  0.094765  -0.280988  -0.242538  0.063805  3.612558  0.083
N  N248  1  0.75836502  0.55775228  0.48295754  1  -1.234161  0.087687  -0.341383  -0.250856  0.058153  3.607406  0.076
N  N249  1  0.24162596  0.44224197  0.98295470  1  -1.234207  0.087689  -0.341351  -0.250827  0.058154  3.6072  0.076
N  N250  1  0.24163343  0.05774764  0.48296083  1  -1.234478  0.087694  -0.341281  -0.250666  0.058157  3.607402  0.076
N  N251  1  0.75837016  0.94225334  0.98296044  1  -1.234286  0.087697  -0.341215  -0.250678  0.058159  3.607259  0.076
N  N252  1  0.72953286  0.55994266  0.63124912  1  -1.247649  0.093632  -0.341364  -0.254543  0.062262  3.60485  0.08
N  N253  1  0.27046183  0.44005390  0.13124855  1  -1.247819  0.093619  -0.341296  -0.254322  0.062253  3.604937  0.08
N  N254  1  0.27046696  0.05993641  0.63125239  1  -1.247199  0.093629  -0.341335  -0.25462  0.062261  3.604955  0.08
N  N255  1  0.72953404  0.94006872  0.13125149  1  -1.247111  0.093636  -0.341359  -0.254751  0.062265  3.604802  0.08
N  N256  1  0.89806574  0.75685502  0.46899612  1  -0.753387  0.008037  -0.223934  -0.195823  0.004649  3.312543  0.005
N  N257  1  0.10193314  0.24314956  0.96899384  1  -0.753333  0.008038  -0.223933  -0.195879  0.00465  3.31264  0.005
N  N258  1  0.10193441  0.25684871  0.46899897  1  -0.753002  0.008037  -0.223894  -0.195798  0.004649  3.312219  0.005
N  N259  1  0.89806842  0.74315099  0.96899890  1  -0.753182  0.008039  -0.223947  -0.195902  0.004651  3.312333  0.005
N  N260  1  0.90432632  0.75633083  0.67880442  1  -1.384101  -0.001582  -0.381443  -0.574486  -0.001913  3.359958  -0.001
N  N261  1  0.09567303  0.24367081  0.17880557  1  -1.384147  -0.001582  -0.381422  -0.57444  -0.001913  3.359924  -0.001
N  N262  1  0.09566719  0.25632875  0.67880162  1  -1.384111  -0.001581  -0.381427  -0.574471  -0.001912  3.359845  -0.001
N  N263  1  0.90433057  0.74367411  0.17880498  1  -1.384167  -0.001581  -0.381407  -0.574445  -0.001912  3.359864  -0.001
N  N264  1  0.79554505  0.73480583  0.47942760  1  -0.733594  0.096227  -0.27952  -0.24057  0.064845  3.601605  0.084
N  N265  1  0.20445303  0.26519513  0.97942531  1  -0.733557  0.096227  -0.27959  -0.240555  0.064845  3.601719  0.084
N  N266  1  0.20445639  0.23479968  0.47942528  1  -0.733967  0.096236  -0.279673  -0.24068  0.064853  3.601684  0.084
N  N267  1  0.79554957  0.76520005  0.97942763  1  -0.733952  0.096236  -0.279562  -0.240498  0.064851  3.601589  0.084
N  N268  1  0.62891122  0.75739731  0.64518241  1  -0.737614  0.007905  -0.221942  -0.196224  0.004548  3.297766  0.005
N  N269  1  0.37108818  0.24259747  0.14517995  1  -0.737652  0.007906  -0.222008  -0.196275  0.004549  3.297866  0.005
N  N270  1  0.37108551  0.25739854  0.64518334  1  -0.737462  0.007903  -0.221896  -0.196227  0.004547  3.297408  0.005
N  N271  1  0.62891546  0.74260419  0.14518523  1  -0.737552  0.007907  -0.221911  -0.196253  0.00455  3.297681  0.005
N  N272  1  0.04481578  0.12832654  0.57311140  1  -1.285115  -0.000579  -0.59799  -0.627285  -0.000619  3.456918  0.001
N  N273  1  0.95518767  0.87167469  0.07311516  1  -1.285127  -0.000577  -0.59805  -0.627186  -0.000618  3.456835  0.001
N  N274  1  0.95518971  0.62832779  0.57311359  1  -1.285076  -0.000578  -0.59791  -0.627059  -0.000619  3.456657  0.001
N  N275  1  0.04481532  0.37167344  0.07310676  1  -1.285168  -0.000579  -0.597942  -0.627233  -0.000619  3.456885  0.001
N  N276  1  0.62170220  0.75925813  0.44008654  1  -1.355637  -0.000989  -0.3807  -0.577104  -0.001446  3.335823  0.0
N  N277  1  0.37829358  0.24073839  0.94008403  1  -1.355751  -0.000989  -0.380646  -0.576946  -0.001446  3.336029  0.0
N  N278  1  0.37829724  0.25925575  0.44007956  1  -1.355816  -0.000988  -0.380721  -0.57694  -0.001445  3.336034  0.0
N  N279  1  0.62170799  0.74074567  0.94008310  1  -1.35572  -0.000988  -0.380737  -0.577009  -0.001445  3.33613  0.0
N  N280  1  0.48997115  0.13599818  0.54237121  1  -1.261439  -0.000878  -0.589487  -0.620657  -0.000983  3.409414  0.0
N  N281  1  0.51003630  0.86399987  0.04236571  1  -1.260978  -0.000878  -0.589495  -0.620788  -0.000982  3.409425  0.0
N  N282  1  0.51003370  0.63599360  0.54237376  1  -1.261481  -0.000878  -0.589534  -0.620765  -0.000982  3.409369  0.0
N  N283  1  0.48996350  0.36400507  0.04236542  1  -1.260987  -0.000878  -0.589475  -0.620643  -0.000983  3.409271  0.0
O  O284  1  0.57929115  0.83093843  0.31507836  1  -1.320489  0.000211  -0.335829  -0.578651  0.000107  2.207838  0.0
O  O285  1  0.42070640  0.16906190  0.81507444  1  -1.320542  0.000211  -0.335875  -0.578667  0.000107  2.207728  0.0
O  O286  1  0.42070149  0.33093943  0.31507474  1  -1.319938  0.000211  -0.335871  -0.578649  0.000108  2.207809  0.0
O  O287  1  0.57929843  0.66906824  0.81507524  1  -1.320634  0.000211  -0.335792  -0.578602  0.000107  2.207955  0.0
O  O288  1  0.08638919  0.76701165  0.72387910  1  -1.320954  -0.000137  -0.341471  -0.562984  -0.000119  2.116477  0.0
O  O289  1  0.91361165  0.23299444  0.22387109  1  -1.321088  -0.000138  -0.341477  -0.563085  -0.000119  2.11643  0.0
O  O290  1  0.91359807  0.26701150  0.72386435  1  -1.320939  -0.000137  -0.341339  -0.56284  -0.000119  2.116514  0.0
O  O291  1  0.08639805  0.73298787  0.22386439  1  -1.320929  -0.000137  -0.341415  -0.562932  -0.000119  2.116586  0.0
O  O292  1  0.94560452  0.82800581  0.80368921  1  -1.316405  0.000114  -0.335649  -0.573927  4.7e-05  2.192278  0.0
O  O293  1  0.05438911  0.17200609  0.30369128  1  -1.316274  0.000114  -0.335629  -0.573904  4.7e-05  2.192251  0.0
O  O294  1  0.05437786  0.32799730  0.80368757  1  -1.316098  0.000114  -0.335575  -0.573877  4.7e-05  2.192277  0.0
O  O295  1  0.94561971  0.67200054  0.30368670  1  -1.316124  0.000114  -0.335575  -0.573864  4.7e-05  2.192215  0.0
O  O296  1  0.43959676  0.77077643  0.39562373  1  -1.325956  -1.4e-05  -0.336271  -0.564382  1.1e-05  2.142661  0.0
O  O297  1  0.56040145  0.22921993  0.89562046  1  -1.32613  -1.4e-05  -0.336234  -0.564317  1.1e-05  2.14275  0.0
O  O298  1  0.56040132  0.27077788  0.39561434  1  -1.326086  -1.4e-05  -0.336222  -0.564333  1.1e-05  2.142646  0.0
O  O299  1  0.43960241  0.72922826  0.89561686  1  -1.325846  -1.4e-05  -0.336243  -0.564299  1.1e-05  2.142744  0.0
