# generated using pymatgen
data_HgH14C22N6(OF)2
_symmetry_space_group_name_H-M   'P 1'
_cell_length_a   7.89601194
_cell_length_b   10.34085209
_cell_length_c   12.17280244
_cell_angle_alpha   101.46304845
_cell_angle_beta   89.99990011
_cell_angle_gamma   90.00012722
_symmetry_Int_Tables_number   1
_chemical_formula_structural   HgH14C22N6(OF)2
_chemical_formula_sum   'Hg2 H28 C44 N12 O4 F4'
_cell_volume   974.10168243
_cell_formula_units_Z   2
loop_
 _symmetry_equiv_pos_site_id
 _symmetry_equiv_pos_as_xyz
  1  'x, y, z'
loop_
 _atom_site_type_symbol
 _atom_site_label
 _atom_site_symmetry_multiplicity
 _atom_site_fract_x
 _atom_site_fract_y
 _atom_site_fract_z
 _atom_site_occupancy
 _atom_site_hle17_bader_spin_density
 _atom_site_hle17_ddec_charge
 _atom_site_hle17_ddec_spin_density
 _atom_site_hle17_ddec_sum_bond_order
 _atom_site_hle17_magmom
 _atom_site_hse06_10hf_bader_spin_density
 _atom_site_hse06_10hf_ddec_charge
 _atom_site_hse06_10hf_ddec_spin_density
 _atom_site_hse06_10hf_ddec_sum_bond_order
 _atom_site_hse06_10hf_magmom
 _atom_site_hse06_bader_spin_density
 _atom_site_hse06_ddec_charge
 _atom_site_hse06_ddec_spin_density
 _atom_site_hse06_ddec_sum_bond_order
 _atom_site_hse06_magmom
 _atom_site_pbe_bader_spin_density
 _atom_site_pbe_cm5_charge
 _atom_site_pbe_ddec_charge
 _atom_site_pbe_ddec_spin_density
 _atom_site_pbe_ddec_sum_bond_order
 _atom_site_pbe_magmom
Hg  Hg0  1  0.00000059  0.99999925  0.50000024  1  0  0.835364  0  1.948789  0  0  0.64634  0  2.411947  0  0  0.698708  0  2.380488  0  0  0.689017  0.607442  0  2.435426  0
Hg  Hg1  1  0.49999931  0.49999947  0.50000021  1  0  0.835337  0  1.948832  0  0  0.646304  0  2.412013  0  0  0.698675  0  2.380555  0  0  0.689007  0.607405  0  2.435487  0
H  H2  1  0.04246677  0.86367599  0.18229396  1  0  0.089939  0  0.947249  0  0  0.09495  0  1.0154  0  0  0.097587  0  1.014365  0  0  0.117086  0.093037  0  1.016304  0
H  H3  1  0.54247242  0.63632250  0.81770602  1  0  0.089952  0  0.947275  0  0  0.094951  0  1.015434  0  0  0.097592  0  1.014394  0  0  0.117098  0.093033  0  1.016334  0
H  H4  1  0.95752805  0.13632690  0.81770629  1  0  0.08993  0  0.947328  0  0  0.094955  0  1.015458  0  0  0.09758  0  1.014436  0  0  0.11708  0.093041  0  1.016358  0
H  H5  1  0.45752746  0.36367348  0.18229474  1  0  0.089991  0  0.947311  0  0  0.094995  0  1.015458  0  0  0.097629  0  1.014426  0  0  0.117099  0.093079  0  1.016358  0
H  H6  1  0.11240570  0.64019196  0.06640174  1  0  0.086026  0  0.951551  0  0  0.090424  0  1.017177  0  0  0.09372  0  1.014336  0  0  0.113611  0.088072  0  1.019222  0
H  H7  1  0.61240916  0.85980761  0.93359751  1  0  0.086075  0  0.95159  0  0  0.09047  0  1.0172  0  0  0.093764  0  1.014361  0  0  0.113633  0.088114  0  1.019242  0
H  H8  1  0.88758911  0.35981091  0.93359686  1  0  0.086102  0  0.951562  0  0  0.090513  0  1.01717  0  0  0.093806  0  1.014333  0  0  0.113676  0.088162  0  1.019207  0
H  H9  1  0.38759705  0.14018739  0.06640391  1  0  0.086037  0  0.951574  0  0  0.090423  0  1.017215  0  0  0.093718  0  1.014376  0  0  0.113631  0.088071  0  1.019256  0
H  H10  1  0.18391334  0.49510198  0.35800978  1  0  0.083875  0  0.960591  0  0  0.086862  0  1.033031  0  0  0.090828  0  1.029017  0  0  0.110714  0.08384  0  1.036204  0
H  H11  1  0.68391021  0.00489798  0.64198902  1  0  0.083875  0  0.960587  0  0  0.086867  0  1.033019  0  0  0.090833  0  1.029006  0  0  0.110719  0.083848  0  1.036194  0
H  H12  1  0.81609034  0.50489792  0.64198751  1  0  0.08383  0  0.960639  0  0  0.08682  0  1.033064  0  0  0.090784  0  1.029054  0  0  0.110694  0.0838  0  1.036234  0
H  H13  1  0.31608966  0.99509999  0.35801288  1  0  0.08383  0  0.9606  0  0  0.086819  0  1.033034  0  0  0.090783  0  1.029024  0  0  0.110687  0.0838  0  1.036202  0
H  H14  1  0.94219850  0.70874091  0.71906231  1  0  0.134638  0  0.942977  0  0  0.144636  0  1.004056  0  0  0.147443  0  1.003431  0  0  0.109555  0.142724  0  1.004388  0
H  H15  1  0.44219997  0.79125619  0.28093699  1  0  0.134654  0  0.942977  0  0  0.144646  0  1.004061  0  0  0.147454  0  1.003436  0  0  0.109556  0.142736  0  1.004395  0
H  H16  1  0.05780391  0.29126001  0.28094008  1  0  0.134584  0  0.943006  0  0  0.14457  0  1.004117  0  0  0.14737  0  1.003502  0  0  0.109541  0.142658  0  1.004451  0
H  H17  1  0.55779738  0.20874373  0.71906277  1  0  0.134613  0  0.943111  0  0  0.144669  0  1.004112  0  0  0.147455  0  1.003515  0  0  0.109568  0.142757  0  1.004449  0
H  H18  1  0.18217434  0.93586114  0.01278671  1  0  0.123859  0  0.95771  0  0  0.12771  0  1.030576  0  0  0.131585  0  1.028095  0  0  0.10334  0.12491  0  1.032482  0
H  H19  1  0.68217045  0.56413951  0.98721100  1  0  0.123885  0  0.95766  0  0  0.127697  0  1.030571  0  0  0.131572  0  1.028088  0  0  0.103343  0.124898  0  1.032471  0
H  H20  1  0.81783314  0.06414272  0.98721288  1  0  0.123856  0  0.957743  0  0  0.127717  0  1.030581  0  0  0.131593  0  1.028093  0  0  0.103348  0.124916  0  1.032486  0
H  H21  1  0.31782816  0.43586041  0.01278876  1  0  0.12387  0  0.957661  0  0  0.127678  0  1.030582  0  0  0.131552  0  1.0281  0  0  0.10333  0.124875  0  1.032491  0
H  H22  1  0.33327347  0.06884547  0.89087617  1  0  0.087129  0  0.976003  0  0  0.093609  0  1.041704  0  0  0.096387  0  1.039772  0  0  0.095311  0.091599  0  1.043163  0
H  H23  1  0.83326797  0.43115272  0.10911971  1  0  0.087193  0  0.975922  0  0  0.09363  0  1.041682  0  0  0.096406  0  1.039749  0  0  0.095312  0.091626  0  1.043123  0
H  H24  1  0.66673274  0.93115640  0.10912063  1  0  0.087194  0  0.975938  0  0  0.093675  0  1.041642  0  0  0.096449  0  1.039713  0  0  0.095339  0.091671  0  1.043077  0
H  H25  1  0.16672937  0.56884721  0.89088087  1  0  0.087163  0  0.975921  0  0  0.0936  0  1.041684  0  0  0.096377  0  1.039749  0  0  0.095293  0.091587  0  1.043147  0
H  H26  1  0.28423247  0.02478199  0.68588891  1  0  0.124216  0  0.981324  0  0  0.131578  0  1.048429  0  0  0.135447  0  1.046213  0  0  0.100059  0.128835  0  1.050143  0
H  H27  1  0.78423161  0.47521515  0.31410767  1  0  0.124248  0  0.981277  0  0  0.131591  0  1.048408  0  0  0.135461  0  1.046186  0  0  0.100045  0.128849  0  1.05012  0
H  H28  1  0.71576994  0.97521791  0.31410838  1  0  0.124261  0  0.981292  0  0  0.131603  0  1.04842  0  0  0.135474  0  1.046199  0  0  0.10006  0.128863  0  1.050138  0
H  H29  1  0.21576573  0.52478577  0.68589307  1  0  0.12421  0  0.981318  0  0  0.131561  0  1.048449  0  0  0.135432  0  1.046224  0  0  0.10003  0.128817  0  1.050162  0
C  C30  1  0.07467019  0.78071196  0.22130413  1  0  0.095529  0  3.668234  0  0  0.066029  0  3.929064  0  0  0.06878  0  3.945398  0  0  0.059019  0.064001  0  3.918166  0
C  C31  1  0.57467493  0.71928658  0.77869582  1  0  0.095486  0  3.668426  0  0  0.065999  0  3.929223  0  0  0.068744  0  3.945557  0  0  0.059001  0.063975  0  3.918315  0
C  C32  1  0.92532462  0.21928796  0.77869563  1  0  0.095556  0  3.668313  0  0  0.066062  0  3.92914  0  0  0.068822  0  3.945476  0  0  0.059038  0.064029  0  3.918242  0
C  C33  1  0.42532495  0.28071138  0.22130526  1  0  0.095369  0  3.668408  0  0  0.065881  0  3.92921  0  0  0.068633  0  3.945543  0  0  0.058987  0.063851  0  3.918307  0
C  C34  1  0.11378984  0.65646340  0.15755759  1  0  0.082596  0  3.692139  0  0  0.056467  0  3.959137  0  0  0.059909  0  3.973353  0  0  0.057554  0.054112  0  3.949519  0
C  C35  1  0.61379350  0.84353520  0.84244315  1  0  0.082519  0  3.692326  0  0  0.056413  0  3.959284  0  0  0.059856  0  3.973499  0  0  0.05754  0.05406  0  3.949658  0
C  C36  1  0.88620497  0.34353849  0.84244085  1  0  0.082498  0  3.692274  0  0  0.056328  0  3.959318  0  0  0.059771  0  3.97353  0  0  0.057506  0.053973  0  3.949698  0
C  C37  1  0.38621017  0.15645982  0.15756074  1  0  0.082693  0  3.692255  0  0  0.05656  0  3.959247  0  0  0.060004  0  3.973459  0  0  0.057563  0.054205  0  3.949626  0
C  C38  1  0.15335885  0.57681393  0.31704095  1  0  0.070221  0  3.67734  0  0  0.040793  0  3.936173  0  0  0.043609  0  3.952209  0  0  0.056761  0.039123  0  3.925466  0
C  C39  1  0.65335685  0.92318670  0.68295925  1  0  0.070175  0  3.677386  0  0  0.040764  0  3.936255  0  0  0.043578  0  3.952291  0  0  0.056723  0.039085  0  3.925558  0
C  C40  1  0.84664229  0.42318795  0.68295667  1  0  0.070192  0  3.677399  0  0  0.040772  0  3.936215  0  0  0.043586  0  3.952253  0  0  0.05672  0.039098  0  3.925506  0
C  C41  1  0.34664303  0.07681325  0.31704462  1  0  0.070204  0  3.677353  0  0  0.040763  0  3.936149  0  0  0.043578  0  3.952184  0  0  0.056728  0.039089  0  3.925445  0
C  C42  1  0.11595272  0.70115136  0.38242457  1  0  0.077703  0  3.723373  0  0  0.083647  0  3.963452  0  0  0.081921  0  3.983045  0  0  0.119501  0.084214  0  3.950463  0
C  C43  1  0.61595306  0.79884723  0.61757452  1  0  0.077783  0  3.723275  0  0  0.083645  0  3.963475  0  0  0.081921  0  3.983068  0  0  0.119529  0.084211  0  3.950488  0
C  C44  1  0.88404842  0.29884757  0.61757420  1  0  0.077747  0  3.723482  0  0  0.083704  0  3.963534  0  0  0.081979  0  3.983128  0  0  0.119536  0.084272  0  3.950545  0
C  C45  1  0.38404429  0.20115171  0.38242673  1  0  0.077713  0  3.723585  0  0  0.083728  0  3.963546  0  0  0.082003  0  3.983137  0  0  0.119527  0.084294  0  3.95056  0
C  C46  1  0.12705059  0.71970511  0.50826160  1  0  0.496641  0  3.888798  0  0  0.449431  0  4.171324  0  0  0.480428  0  4.172335  0  0  0.22029  0.428403  0  4.169821  0
C  C47  1  0.62704868  0.78029251  0.49173732  1  0  0.496602  0  3.888783  0  0  0.449414  0  4.171333  0  0  0.480412  0  4.172343  0  0  0.220278  0.428392  0  4.169831  0
C  C48  1  0.87295056  0.28029481  0.49173734  1  0  0.496621  0  3.888862  0  0  0.449404  0  4.171401  0  0  0.480404  0  4.172412  0  0  0.220274  0.42838  0  4.169896  0
C  C49  1  0.37294740  0.21970643  0.50826310  1  0  0.496729  0  3.888708  0  0  0.449509  0  4.171213  0  0  0.480511  0  4.172221  0  0  0.220356  0.428481  0  4.169712  0
C  C50  1  0.11284718  0.86309501  0.68819515  1  0  0.261037  0  3.810959  0  0  0.261103  0  4.055342  0  0  0.270628  0  4.078071  0  0  0.082291  0.254662  0  4.039759  0
C  C51  1  0.61284787  0.63690357  0.31180312  1  0  0.260971  0  3.810884  0  0  0.26106  0  4.055238  0  0  0.270582  0  4.077969  0  0  0.08227  0.254627  0  4.039653  0
C  C52  1  0.88715649  0.13690490  0.31180296  1  0  0.260941  0  3.810932  0  0  0.261039  0  4.055282  0  0  0.270564  0  4.078011  0  0  0.082245  0.254601  0  4.039703  0
C  C53  1  0.38714821  0.36309734  0.68819681  1  0  0.26118  0  3.810726  0  0  0.261173  0  4.055245  0  0  0.270701  0  4.07797  0  0  0.082292  0.254737  0  4.039656  0
C  C54  1  0.02815613  0.78791475  0.75526790  1  0  -0.260774  0  3.709437  0  0  -0.292209  0  3.962839  0  0  -0.299062  0  3.982286  0  0  -0.10512  -0.287559  0  3.949704  0
C  C55  1  0.52815468  0.71208470  0.24473143  1  0  -0.260724  0  3.709374  0  0  -0.292153  0  3.962764  0  0  -0.299005  0  3.98221  0  0  -0.105091  -0.287511  0  3.94964  0
C  C56  1  0.97184755  0.21208616  0.24473202  1  0  -0.260653  0  3.709308  0  0  -0.29208  0  3.962689  0  0  -0.298927  0  3.982139  0  0  -0.105079  -0.287433  0  3.949561  0
C  C57  1  0.47184140  0.28791622  0.75526932  1  0  -0.260827  0  3.709426  0  0  -0.292308  0  3.962854  0  0  -0.299143  0  3.982309  0  0  -0.105149  -0.287658  0  3.949722  0
C  C58  1  0.05410836  0.81877384  0.87024524  1  0  0.309153  0  3.802243  0  0  0.29922  0  4.08038  0  0  0.309156  0  4.093417  0  0  0.088644  0.292117  0  4.071862  0
C  C59  1  0.55410840  0.68122566  0.12975489  1  0  0.309109  0  3.802307  0  0  0.29916  0  4.08047  0  0  0.309096  0  4.093506  0  0  0.088626  0.292053  0  4.071961  0
C  C60  1  0.94589658  0.18122905  0.12975583  1  0  0.309258  0  3.802111  0  0  0.299301  0  4.080282  0  0  0.309236  0  4.093316  0  0  0.088699  0.292197  0  4.071769  0
C  C61  1  0.44589021  0.31877526  0.87024586  1  0  0.309118  0  3.802358  0  0  0.29923  0  4.080441  0  0  0.309167  0  4.093471  0  0  0.088658  0.292121  0  4.071928  0
C  C62  1  0.16294312  0.91756024  0.92243213  1  0  -0.205209  0  3.768762  0  0  -0.233441  0  4.028372  0  0  -0.239466  0  4.048991  0  0  -0.11053  -0.229248  0  4.01451  0
C  C63  1  0.66294048  0.58243940  0.07756626  1  0  -0.205221  0  3.768779  0  0  -0.233401  0  4.028423  0  0  -0.239422  0  4.049042  0  0  -0.110536  -0.229207  0  4.014564  0
C  C64  1  0.83706309  0.08244165  0.07756713  1  0  -0.205235  0  3.768779  0  0  -0.233463  0  4.028417  0  0  -0.239487  0  4.049046  0  0  -0.11058  -0.229268  0  4.01455  0
C  C65  1  0.33705687  0.41756053  0.92243432  1  0  -0.205201  0  3.768798  0  0  -0.233396  0  4.028419  0  0  -0.239419  0  4.049043  0  0  -0.110536  -0.229198  0  4.01456  0
C  C66  1  0.24583454  0.99095714  0.85398304  1  0  -0.034993  0  3.798815  0  0  -0.046383  0  4.05424  0  0  -0.046225  0  4.076185  0  0  -0.095111  -0.046452  0  4.03935  0
C  C67  1  0.74583149  0.50904065  0.14601495  1  0  -0.035099  0  3.798961  0  0  -0.046472  0  4.054401  0  0  -0.046316  0  4.076349  0  0  -0.095119  -0.046543  0  4.039519  0
C  C68  1  0.75417294  0.00904376  0.14601441  1  0  -0.035118  0  3.798913  0  0  -0.046513  0  4.054358  0  0  -0.046359  0  4.076306  0  0  -0.095132  -0.046578  0  4.039472  0
C  C69  1  0.25416585  0.49095928  0.85398564  1  0  -0.035081  0  3.798925  0  0  -0.046452  0  4.054365  0  0  -0.046296  0  4.076314  0  0  -0.095122  -0.046522  0  4.039471  0
C  C70  1  0.22086509  0.96547256  0.73826467  1  0  -0.180151  0  3.711156  0  0  -0.206143  0  3.964167  0  0  -0.212335  0  3.98513  0  0  -0.10901  -0.202134  0  3.950176  0
C  C71  1  0.72086307  0.53452518  0.26173170  1  0  -0.180171  0  3.711293  0  0  -0.206121  0  3.964237  0  0  -0.212313  0  3.985206  0  0  -0.108984  -0.202111  0  3.950242  0
C  C72  1  0.77913859  0.03452636  0.26173328  1  0  -0.180146  0  3.7112  0  0  -0.206099  0  3.96414  0  0  -0.212292  0  3.985109  0  0  -0.108961  -0.202093  0  3.950155  0
C  C73  1  0.27913301  0.46547573  0.73826822  1  0  -0.180115  0  3.711278  0  0  -0.20604  0  3.964224  0  0  -0.212232  0  3.985191  0  0  -0.108912  -0.202029  0  3.950227  0
N  N74  1  0.07753988  0.80256860  0.33323125  1  0  -0.29215  0  3.188616  0  0  -0.238105  0  3.448917  0  0  -0.249991  0  3.466732  0  0  -0.29354  -0.229405  0  3.436928  0
N  N75  1  0.57754231  0.69742896  0.66676853  1  0  -0.292143  0  3.188653  0  0  -0.23808  0  3.448985  0  0  -0.249966  0  3.466804  0  0  -0.293565  -0.22938  0  3.436989  0
N  N76  1  0.92245747  0.19743231  0.66676867  1  0  -0.292201  0  3.188775  0  0  -0.238172  0  3.449095  0  0  -0.250055  0  3.466904  0  0  -0.293586  -0.229471  0  3.437105  0
N  N77  1  0.42245376  0.30256802  0.33323239  1  0  -0.29211  0  3.188853  0  0  -0.238093  0  3.44913  0  0  -0.24998  0  3.466945  0  0  -0.293543  -0.229391  0  3.437136  0
N  N78  1  0.15454185  0.55430688  0.20498159  1  0  -0.259932  0  3.058575  0  0  -0.230691  0  3.336433  0  0  -0.238149  0  3.350846  0  0  -0.302884  -0.225458  0  3.326566  0
N  N79  1  0.65454087  0.94569275  0.79501681  1  0  -0.259877  0  3.058616  0  0  -0.23065  0  3.336478  0  0  -0.238107  0  3.35089  0  0  -0.302855  -0.225418  0  3.326612  0
N  N80  1  0.84545803  0.44569402  0.79501669  1  0  -0.259868  0  3.058606  0  0  -0.230621  0  3.336472  0  0  -0.238075  0  3.350881  0  0  -0.302855  -0.225388  0  3.326601  0
N  N81  1  0.34546027  0.05430422  0.20498329  1  0  -0.259943  0  3.058536  0  0  -0.230695  0  3.336383  0  0  -0.238151  0  3.350789  0  0  -0.302857  -0.225464  0  3.32652  0
N  N82  1  0.08829821  0.83940521  0.56997907  1  0  -0.498868  0  3.232654  0  0  -0.408476  0  3.508382  0  0  -0.442992  0  3.525744  0  0  -0.355326  -0.384227  0  3.495809  0
N  N83  1  0.58829864  0.66059236  0.43002070  1  0  -0.498876  0  3.232677  0  0  -0.408504  0  3.508419  0  0  -0.443013  0  3.525769  0  0  -0.355359  -0.38426  0  3.495847  0
N  N84  1  0.91170421  0.16059274  0.43002036  1  0  -0.498889  0  3.232662  0  0  -0.408516  0  3.508401  0  0  -0.44303  0  3.525757  0  0  -0.35536  -0.384272  0  3.495837  0
N  N85  1  0.41169744  0.33940757  0.56998071  1  0  -0.498975  0  3.232556  0  0  -0.40858  0  3.508337  0  0  -0.443104  0  3.525705  0  0  -0.355395  -0.384329  0  3.495761  0
O  O86  1  0.17719343  0.62343163  0.54819467  1  0  -0.571678  0  1.983535  0  0  -0.522179  0  2.224178  0  0  -0.546072  0  2.217433  0  0  -0.307271  -0.504537  0  2.228186  0
O  O87  1  0.67719191  0.87656803  0.45180371  1  0  -0.571657  0  1.983456  0  0  -0.522169  0  2.224103  0  0  -0.546062  0  2.217358  0  0  -0.307261  -0.504528  0  2.228114  0
O  O88  1  0.82280772  0.37656631  0.45180395  1  0  -0.571624  0  1.983532  0  0  -0.522141  0  2.224204  0  0  -0.546033  0  2.217458  0  0  -0.307231  -0.504503  0  2.228218  0
O  O89  1  0.32280671  0.12343190  0.54819770  1  0  -0.571687  0  1.98344  0  0  -0.522215  0  2.22412  0  0  -0.546108  0  2.217375  0  0  -0.307285  -0.504563  0  2.22811  0
F  F90  1  0.96592923  0.74817734  0.93613359  1  0  -0.236483  0  1.210396  0  0  -0.171975  0  1.367944  0  0  -0.182461  0  1.360015  0  0  -0.099445  -0.164321  0  1.373284  0
F  F91  1  0.46593243  0.75182572  0.06386749  1  0  -0.236447  0  1.210368  0  0  -0.171958  0  1.367942  0  0  -0.182445  0  1.360012  0  0  -0.099442  -0.164304  0  1.373283  0
F  F92  1  0.03407192  0.25183048  0.06386911  1  0  -0.236521  0  1.210373  0  0  -0.172025  0  1.367944  0  0  -0.182511  0  1.360015  0  0  -0.099475  -0.164371  0  1.373282  0
F  F93  1  0.53406744  0.24817618  0.93613260  1  0  -0.236433  0  1.210421  0  0  -0.171948  0  1.367969  0  0  -0.182436  0  1.360037  0  0  -0.099427  -0.164293  0  1.373311  0
