# generated using pymatgen
data_Hf3H14(C13O8)2
_symmetry_space_group_name_H-M   'P 1'
_cell_length_a   16.65180075
_cell_length_b   17.37640638
_cell_length_c   17.39912105
_cell_angle_alpha   110.22183616
_cell_angle_beta   89.86375887
_cell_angle_gamma   89.93271561
_symmetry_Int_Tables_number   1
_chemical_formula_structural   Hf3H14(C13O8)2
_chemical_formula_sum   'Hf6 H28 C52 O32'
_cell_volume   4724.07065116
_cell_formula_units_Z   2
loop_
 _symmetry_equiv_pos_site_id
 _symmetry_equiv_pos_as_xyz
  1  'x, y, z'
loop_
 _atom_site_type_symbol
 _atom_site_label
 _atom_site_symmetry_multiplicity
 _atom_site_fract_x
 _atom_site_fract_y
 _atom_site_fract_z
 _atom_site_occupancy
 _atom_site_pbe_bader_charge
 _atom_site_pbe_bader_spin_density
 _atom_site_pbe_cm5_charge
 _atom_site_pbe_ddec_charge
 _atom_site_pbe_ddec_spin_density
 _atom_site_pbe_ddec_sum_bond_order
 _atom_site_pbe_magmom
Hf  Hf0  1  0.89790990  0.10522745  0.11040232  1  2.60058  0  1.425624  2.124969  0  3.409639  0
Hf  Hf1  1  0.11140280  0.09130451  0.09915377  1  2.601341  0  1.426786  2.127006  0  3.430832  0
Hf  Hf2  1  0.88580592  0.92575514  0.93565094  1  2.61012  0  1.448375  2.133243  0  3.355181  0
Hf  Hf3  1  0.09534158  0.91593630  0.92370849  1  2.597988  0  1.441278  2.119604  0  3.39502  0
Hf  Hf4  1  0.99780579  0.09641221  0.92983564  1  2.618876  0  1.483416  2.11335  0  3.362941  0
Hf  Hf5  1  0.99835201  0.92305329  0.10515636  1  2.619522  0  1.489049  2.117877  0  3.359241  0
H  H6  1  0.99991352  0.09354471  0.22714474  1  0.62532  0  0.337495  0.43112  0  0.840122  0
H  H7  1  0.17316291  0.06772690  0.94473940  1  0.612767  0  0.335057  0.419686  0  0.859199  0
H  H8  1  0.99451701  0.79848192  0.94239395  1  0.590056  0  0.34362  0.432659  0  0.829021  0
H  H9  1  0.82802638  0.08132217  0.95325345  1  0.605557  0  0.342535  0.430349  0  0.831214  0
H  H10  1  0.26426511  0.12647942  0.07231463  1  0.583732  0  0.291212  0.391091  0  0.909707  0
H  H11  1  0.24545430  0.85688073  0.92171514  1  0.656779  0  0.338176  0.425899  0  0.865888  0
H  H12  1  0.09065357  0.80940707  0.77189024  1  0.587614  0  0.29941  0.387988  0  0.914881  0
H  H13  1  0.97645054  0.80882825  0.81654891  1  0.621026  0  0.288364  0.402734  0  0.937643  0
H  H14  1  0.73210641  0.90785485  0.96167389  1  0.570703  0  0.302308  0.390984  0  0.909631  0
H  H15  1  0.75782872  0.02736827  0.03688066  1  0.644495  0  0.287554  0.399968  0  0.941479  0
H  H16  1  0.88671787  0.25149711  0.22133159  1  0.604052  0  0.297671  0.400461  0  0.897482  0
H  H17  1  0.15400898  0.19207553  0.24994228  1  0.642207  0  0.343184  0.423167  0  0.85585  0
H  H18  1  0.89370550  0.82875854  0.77657956  1  0.604161  0  0.328948  0.411943  0  0.873164  0
H  H19  1  0.74770204  0.06692411  0.13603094  1  0.621941  0  0.32647  0.411003  0  0.881289  0
H  H20  1  0.13714578  0.24726383  0.19555340  1  0.64903  0  0.336188  0.420638  0  0.868954  0
H  H21  1  0.24701679  0.89669142  0.85123193  1  0.635923  0  0.343575  0.423721  0  0.854431  0
H  H22  1  0.62797942  0.99893989  0.39196026  1  0.074842  0  0.114656  0.123664  0  0.979359  0
H  H23  1  0.63208983  0.00655847  0.64267611  1  0.086477  0  0.114325  0.1238  0  0.980535  0
H  H24  1  0.85451878  0.99997741  0.51241908  1  0.07311  0  0.11718  0.127847  0  0.97538  0
H  H25  1  0.14208566  0.00258105  0.51034932  1  0.084993  0  0.118192  0.129198  0  0.974444  0
H  H26  1  0.36301727  0.00291723  0.64003961  1  0.079669  0  0.112179  0.121071  0  0.983191  0
H  H27  1  0.37008891  0.00429101  0.39241034  1  0.110946  0  0.116238  0.126385  0  0.976843  0
H  H28  1  0.85543025  0.51745147  0.02140416  1  0.058702  0  0.117859  0.127879  0  0.975431  0
H  H29  1  0.63633986  0.38404831  0.01920909  1  0.112314  0  0.115959  0.125842  0  0.977326  0
H  H30  1  0.62588297  0.63346505  0.02221562  1  0.103636  0  0.113504  0.121814  0  0.981815  0
H  H31  1  0.14334565  0.51487997  0.01872154  1  0.110682  0  0.118127  0.129038  0  0.974253  0
H  H32  1  0.36381946  0.38274986  0.01587585  1  0.103932  0  0.114045  0.123674  0  0.98066  0
H  H33  1  0.37180829  0.63398356  0.02453894  1  0.084883  0  0.1139  0.122961  0  0.979921  0
C  C34  1  0.87531171  0.24016668  0.01910770  1  1.672168  0  0.24708  0.702394  0  4.175129  0
C  C35  1  0.13563631  0.00219985  0.23675028  1  1.669064  0  0.247308  0.700748  0  4.179423  0
C  C36  1  0.12593366  0.23625740  0.01260767  1  1.667671  0  0.243203  0.701302  0  4.182425  0
C  C37  1  0.86282520  0.99849802  0.23735983  1  1.696347  0  0.244695  0.701037  0  4.182444  0
C  C38  1  0.85829072  0.79265600  0.02525462  1  1.688345  0  0.245522  0.703311  0  4.173675  0
C  C39  1  0.12224069  0.00229131  0.78445602  1  1.681606  0  0.241796  0.702419  0  4.177634  0
C  C40  1  0.13392428  0.78793697  0.02265932  1  1.640347  0  0.248982  0.711844  0  4.161966  0
C  C41  1  0.86803404  0.00821478  0.79138219  1  1.667828  0  0.245391  0.705278  0  4.173532  0
C  C42  1  0.74588118  0.99863707  0.44378421  1  0.167128  0  0.007107  0.137919  0  4.138832  0
C  C43  1  0.66149657  0.00007648  0.44599782  1  -0.02921  0  -0.064242  -0.154661  0  3.838786  0
C  C44  1  0.62008508  0.00281700  0.51749739  1  0.147255  0  0.003194  0.144056  0  4.145641  0
C  C45  1  0.66377086  0.00447683  0.58716978  1  0.024491  0  -0.06632  -0.159279  0  3.844307  0
C  C46  1  0.74820816  0.00366973  0.58552677  1  0.090789  0  0.005755  0.134307  0  4.141008  0
C  C47  1  0.78916989  0.00062789  0.51377448  1  -0.020182  0  -0.062907  -0.155719  0  3.839068  0
C  C48  1  0.25163716  0.00288422  0.44316358  1  0.026546  0  0.005828  0.13664  0  4.14542  0
C  C49  1  0.20741205  0.00287398  0.51206386  1  0.007596  0  -0.063984  -0.156639  0  3.842393  0
C  C50  1  0.24758530  0.00309807  0.58307703  1  0.08295  0  0.003692  0.132365  0  4.146665  0
C  C51  1  0.33195899  0.00307724  0.58508777  1  0.018569  0  -0.067379  -0.16145  0  3.848608  0
C  C52  1  0.37660216  0.00361323  0.51649570  1  0.169809  0  0.004332  0.148853  0  4.142494  0
C  C53  1  0.33598496  0.00373941  0.44569319  1  0.046057  0  -0.064856  -0.157227  0  3.836694  0
C  C54  1  0.74502220  0.58379807  0.02241079  1  0.034035  0  0.005891  0.133749  0  4.145503  0
C  C55  1  0.79011879  0.51492129  0.02120748  1  0.058502  0  -0.06292  -0.154751  0  3.838978  0
C  C56  1  0.75097411  0.44279288  0.01974205  1  0.09474  0  0.006427  0.13581  0  4.141076  0
C  C57  1  0.66658878  0.43979055  0.01985575  1  -0.033894  0  -0.064804  -0.157713  0  3.839377  0
C  C58  1  0.62118112  0.50838547  0.02064489  1  0.103677  0  0.003599  0.146365  0  4.145861  0
C  C59  1  0.66075818  0.58024002  0.02169552  1  0.032919  0  -0.065344  -0.156735  0  3.845235  0
C  C60  1  0.25312858  0.58272056  0.02227023  1  0.142176  0  0.004796  0.132129  0  4.147043  0
C  C61  1  0.20866650  0.51298724  0.01924576  1  -0.023884  0  -0.06342  -0.155706  0  3.840829  0
C  C62  1  0.24850463  0.44080065  0.01673791  1  0.084916  0  0.005571  0.137041  0  4.140246  0
C  C63  1  0.33291424  0.43858682  0.01757121  1  0.007786  0  -0.0661  -0.16114  0  3.842378  0
C  C64  1  0.37777507  0.50804637  0.02026030  1  0.102561  0  0.004114  0.14991  0  4.140136  0
C  C65  1  0.33744790  0.58004138  0.02251364  1  -0.06078  0  -0.065459  -0.158063  0  3.841733  0
C  C66  1  0.53610260  0.50603080  0.02046296  1  -0.256059  0  -0.039045  -0.099047  0  4.109173  0
C  C67  1  0.46287174  0.50609915  0.02042919  1  -0.046445  0  -0.041665  -0.104908  0  4.108252  0
C  C68  1  0.46170690  0.00378530  0.51826715  1  -0.211727  0  -0.042047  -0.106114  0  4.109337  0
C  C69  1  0.53494574  0.00363463  0.51871110  1  -0.227433  0  -0.039228  -0.097538  0  4.1074  0
C  C70  1  0.16462915  0.00244050  0.71210121  1  -0.211932  0  -0.046349  -0.20451  0  3.96327  0
C  C71  1  0.20296874  0.00275307  0.65252851  1  -0.110879  0  -0.018767  -0.02174  0  4.080881  0
C  C72  1  0.21133885  0.00217111  0.37122369  1  -0.396172  0  -0.021591  -0.032409  0  4.082729  0
C  C73  1  0.17690365  0.00132097  0.30933025  1  0.149316  0  -0.03684  -0.18586  0  3.950515  0
C  C74  1  0.82773044  0.00662583  0.71741429  1  0.169578  0  -0.042678  -0.199191  0  3.95227  0
C  C75  1  0.79151656  0.00543190  0.65629391  1  -0.437706  0  -0.0181  -0.020979  0  4.073692  0
C  C76  1  0.78670655  0.99619213  0.37127961  1  -0.57276  0  -0.023743  -0.034737  0  4.07902  0
C  C77  1  0.82077462  0.99507234  0.30889691  1  0.269443  0  -0.037584  -0.186007  0  3.945737  0
C  C78  1  0.17816092  0.71731976  0.02491650  1  -0.202697  0  -0.040242  -0.196725  0  3.95073  0
C  C79  1  0.21291537  0.65535577  0.02409423  1  -0.068095  0  -0.017769  -0.02199  0  4.075609  0
C  C80  1  0.16595842  0.30995968  0.01247315  1  -0.051294  0  -0.042478  -0.196925  0  3.953469  0
C  C81  1  0.20379049  0.37042215  0.01407527  1  -0.226388  0  -0.020614  -0.027191  0  4.078333  0
C  C82  1  0.78402377  0.65685669  0.02405422  1  -0.539344  0  -0.018046  -0.022277  0  4.074439  0
C  C83  1  0.81687199  0.71986039  0.02541416  1  0.258132  0  -0.040434  -0.194791  0  3.951662  0
C  C84  1  0.83380160  0.31298552  0.01849656  1  0.247431  0  -0.036848  -0.185615  0  3.944439  0
C  C85  1  0.79610053  0.37315619  0.01880929  1  -0.522372  0  -0.019432  -0.028084  0  4.075184  0
O  O86  1  0.85923293  0.21550805  0.07814164  1  -1.157308  0  -0.319303  -0.574467  0  2.272291  0
O  O87  1  0.92351975  0.20669073  0.95951516  1  -1.158062  0  -0.339224  -0.573488  0  2.265961  0
O  O88  1  0.15371577  0.06000457  0.21070021  1  -1.158529  0  -0.318926  -0.569349  0  2.274443  0
O  O89  1  0.08442820  0.94557352  0.20598048  1  -1.157161  0  -0.331646  -0.563889  0  2.275135  0
O  O90  1  0.14020954  0.21360471  0.07349134  1  -1.175748  0  -0.316546  -0.599648  0  2.283324  0
O  O91  1  0.08201042  0.19905735  0.95108912  1  -1.159647  0  -0.333078  -0.56236  0  2.263904  0
O  O92  1  0.83813144  0.04983485  0.20590498  1  -1.166047  0  -0.303875  -0.569521  0  2.26022  0
O  O93  1  0.92293061  0.94984156  0.21323010  1  -1.160234  0  -0.346064  -0.579911  0  2.271441  0
O  O94  1  0.90149783  0.19635899  0.21758545  1  -1.22391  0  -0.696305  -0.926006  0  1.844619  0
O  O95  1  0.76508626  0.08021495  0.08837813  1  -1.247941  0  -0.593946  -0.779506  0  2.048953  0
O  O96  1  0.11366285  0.20667551  0.21654399  1  -1.233894  0  -0.562557  -0.738774  0  2.063462  0
O  O97  1  0.23096210  0.09383691  0.09479017  1  -1.218081  0  -0.699899  -0.938078  0  1.865959  0
O  O98  1  0.00335378  0.12135910  0.05272616  1  -1.221634  0  -0.74911  -1.072625  0  2.170542  0
O  O99  1  0.00182175  0.06617103  0.16807868  1  -1.264975  0  -0.639624  -0.962866  0  2.260872  0
O  O100  1  0.83687188  0.82270800  0.97101764  1  -1.170098  0  -0.333524  -0.591271  0  2.265998  0
O  O101  1  0.91330721  0.81947037  0.07857724  1  -1.154647  0  -0.327334  -0.561749  0  2.266829  0
O  O102  1  0.13874465  0.94295355  0.80977721  1  -1.181533  0  -0.335381  -0.62084  0  2.284455  0
O  O103  1  0.07380339  0.06090129  0.81733267  1  -1.152103  0  -0.319523  -0.547011  0  2.263189  0
O  O104  1  0.15475625  0.81771041  0.96781162  1  -1.175039  0  -0.327692  -0.607537  0  2.268271  0
O  O105  1  0.07683605  0.81308771  0.07388320  1  -1.146294  0  -0.321698  -0.552956  0  2.258889  0
O  O106  1  0.85139738  0.95026035  0.81801240  1  -1.170499  0  -0.32564  -0.597873  0  2.264264  0
O  O107  1  0.91571458  0.06794290  0.82391206  1  -1.159578  0  -0.330286  -0.563559  0  2.259748  0
O  O108  1  0.91381655  0.81513973  0.82296418  1  -1.215114  0  -0.59387  -0.780311  0  2.04156  0
O  O109  1  0.76392637  0.95316935  0.95766120  1  -1.211434  0  -0.646523  -0.89956  0  1.93462  0
O  O110  1  0.06747270  0.81061445  0.82359984  1  -1.22621  0  -0.648115  -0.905509  0  1.944024  0
O  O111  1  0.23371059  0.90629700  0.90843914  1  -1.234895  0  -0.563305  -0.744053  0  2.062534  0
O  O112  1  0.99400205  0.85803158  0.96382509  1  -1.217609  0  -0.648331  -0.952286  0  2.301119  0
O  O113  1  0.99431332  0.97273827  0.90705053  1  -1.213803  0  -0.766015  -1.078852  0  2.238657  0
O  O114  1  0.91261173  0.97547090  0.05671819  1  -1.2163  0  -0.763459  -1.082814  0  2.239235  0
O  O115  1  0.12370500  0.05031509  0.96326749  1  -1.256879  0  -0.64283  -0.972871  0  2.303743  0
O  O116  1  0.87646395  0.06216924  0.97198506  1  -1.234827  0  -0.64655  -0.952588  0  2.294875  0
O  O117  1  0.08857698  0.96830277  0.05129294  1  -1.218474  0  -0.755329  -1.062262  0  2.167812  0
