# generated using pymatgen
data_Pr2CuH20C32(NO7)4
_symmetry_space_group_name_H-M   'P 1'
_cell_length_a   10.55670869
_cell_length_b   10.68980647
_cell_length_c   11.39789382
_cell_angle_alpha   83.87542033
_cell_angle_beta   74.61490342
_cell_angle_gamma   69.44352392
_symmetry_Int_Tables_number   1
_chemical_formula_structural   Pr2CuH20C32(NO7)4
_chemical_formula_sum   'Pr2 Cu1 H20 C32 N4 O28'
_cell_volume   1161.05454885
_cell_formula_units_Z   1
loop_
 _symmetry_equiv_pos_site_id
 _symmetry_equiv_pos_as_xyz
  1  'x, y, z'
loop_
 _atom_site_type_symbol
 _atom_site_label
 _atom_site_symmetry_multiplicity
 _atom_site_fract_x
 _atom_site_fract_y
 _atom_site_fract_z
 _atom_site_occupancy
 _atom_site_hle17_ddec_charge
 _atom_site_hle17_ddec_spin_density
 _atom_site_hle17_ddec_sum_bond_order
 _atom_site_hle17_magmom
 _atom_site_hse06_10hf_ddec_charge
 _atom_site_hse06_10hf_ddec_spin_density
 _atom_site_hse06_10hf_ddec_sum_bond_order
 _atom_site_hse06_10hf_magmom
 _atom_site_hse06_ddec_charge
 _atom_site_hse06_ddec_spin_density
 _atom_site_hse06_ddec_sum_bond_order
 _atom_site_hse06_magmom
 _atom_site_pbe_cm5_charge
 _atom_site_pbe_ddec_charge
 _atom_site_pbe_ddec_spin_density
 _atom_site_pbe_ddec_sum_bond_order
 _atom_site_pbe_magmom
Pr  Pr0  1  0.59334853  0.60389456  0.62628412  1  2.354138  -0.000141  1.60771  0.0  2.240759  -0.000264  1.995097  0.0  2.277955  -0.000184  1.948524  0.0  1.5042  2.173752  -0.000333  2.101622  0.0
Pr  Pr1  1  0.40665089  0.39610996  0.37371866  1  2.354174  -0.000186  1.607654  0.0  2.240807  -0.000297  1.995024  0.0  2.277997  -0.000143  1.948456  0.0  1.504207  2.173837  -0.000333  2.101474  0.0
Cu  Cu2  1  0.00000084  0.50000068  0.49999930  1  0.976  -0.693266  1.680943  -0.516  0.971501  -0.783301  2.062844  -0.633  1.064687  -0.845355  1.989532  -0.716  0.74746  0.904954  -0.73995  2.124656  -0.58
H  H3  1  0.35211710  0.98748299  0.47160951  1  0.133859  3.3e-05  0.908794  0.0  0.142522  6e-06  0.966842  0.0  0.146929  4e-06  0.962727  0.0  0.127873  0.139  5e-06  0.970464  0.0
H  H4  1  0.64787943  0.01251852  0.52839168  1  0.133891  3.2e-05  0.908785  0.0  0.142511  6e-06  0.966882  0.0  0.146918  4e-06  0.962768  0.0  0.127862  0.138991  5e-06  0.970503  0.0
H  H5  1  0.96778374  0.17398555  0.36015238  1  0.126652  -0.000286  0.945219  0.0  0.132735  -0.000229  1.011492  0.0  0.136929  -0.000155  1.007153  0.0  0.11938  0.129535  -0.000279  1.014981  0.0
H  H6  1  0.03221671  0.82601588  0.63984083  1  0.126615  -0.000285  0.945266  0.0  0.132704  -0.000229  1.011536  0.0  0.136898  -0.000155  1.007199  0.0  0.11938  0.129503  -0.000279  1.015023  0.0
H  H7  1  0.18345715  0.75005767  0.31588668  1  0.133199  -1.8e-05  0.952578  0.0  0.136737  -5e-06  1.021868  0.0  0.140911  -6e-06  1.017872  0.0  0.12146  0.133776  5e-06  1.024484  0.0
H  H8  1  0.81654267  0.24994282  0.68411205  1  0.13326  -1.8e-05  0.952508  0.0  0.136797  -5e-06  1.021794  0.0  0.140973  -6e-06  1.017794  0.0  0.121481  0.133838  5e-06  1.02441  0.0
H  H9  1  0.68730797  0.45915031  0.94448863  1  0.133737  2e-06  0.923431  0.0  0.140948  3e-06  0.986466  0.0  0.145508  1e-06  0.981953  0.0  0.124374  0.137431  1e-06  0.990083  0.0
H  H10  1  0.31269017  0.54085218  0.05551031  1  0.133787  1e-06  0.923409  0.0  0.140996  3e-06  0.986442  0.0  0.145557  1e-06  0.981927  0.0  0.12439  0.137478  1e-06  0.990058  0.0
H  H11  1  0.93088211  0.30753099  0.21002665  1  0.13108  0.0  0.945185  0.0  0.134391  1.7e-05  1.016083  0.0  0.138982  1.8e-05  1.010964  0.0  0.120553  0.130902  1.5e-05  1.020167  0.0
H  H12  1  0.06911515  0.69248250  0.78997392  1  0.131089  -1e-06  0.945161  0.0  0.134338  1.7e-05  1.016142  0.0  0.138927  1.7e-05  1.011026  0.0  0.120523  0.130851  1.5e-05  1.020219  0.0
H  H13  1  0.13666339  0.34182323  0.83310737  1  0.133837  -0.000282  0.925266  0.0  0.141377  -0.00027  0.984931  0.0  0.146055  -0.000191  0.979996  0.0  0.125736  0.137833  -0.000338  0.988837  0.0
H  H14  1  0.86333640  0.65816324  0.16689028  1  0.133965  -0.000281  0.925095  0.0  0.141392  -0.00027  0.984874  0.0  0.146068  -0.000191  0.979942  0.0  0.125779  0.13785  -0.000338  0.988779  0.0
H  H15  1  0.64459613  0.77948295  0.80617408  1  0.432903  -1e-05  0.857876  0.0  0.398271  -7e-06  0.926622  0.0  0.409269  -9e-06  0.910341  0.0  0.301936  0.39022  -5e-06  0.938465  0.0
H  H16  1  0.35541423  0.22051560  0.19383013  1  0.432992  -1e-05  0.857781  0.0  0.398365  -7e-06  0.926542  0.0  0.409372  -8e-06  0.910244  0.0  0.301956  0.390304  -5e-06  0.938399  0.0
H  H17  1  0.51815936  0.72899070  0.86323866  1  0.441191  1e-06  0.825416  0.0  0.419784  3e-06  0.877456  0.0  0.428958  3e-06  0.863956  0.0  0.320136  0.413332  3e-06  0.886853  0.0
H  H18  1  0.48185576  0.27099985  0.13676611  1  0.441138  2e-06  0.825566  0.0  0.419762  3e-06  0.877491  0.0  0.428933  3e-06  0.863997  0.0  0.320145  0.413312  3e-06  0.886886  0.0
H  H19  1  0.81338828  0.54691748  0.37353989  1  0.44504  0.000304  0.847963  0.0  0.416719  0.000195  0.906592  0.0  0.426978  0.00023  0.891325  0.0  0.306012  0.409372  0.000151  0.917435  0.0
H  H20  1  0.18660397  0.45308508  0.62646665  1  0.445033  0.000303  0.847948  0.0  0.416726  0.000196  0.906552  0.0  0.426984  0.00023  0.891287  0.0  0.306054  0.40938  0.00015  0.917394  0.0
H  H21  1  0.71938624  0.45741229  0.37512778  1  0.451616  -2.1e-05  0.843949  0.0  0.423327  -1e-05  0.902062  0.0  0.4344  -1e-05  0.885966  0.0  0.304419  0.415436  -8e-06  0.913385  0.0
H  H22  1  0.28060994  0.54259026  0.62487777  1  0.451571  -2.2e-05  0.844  0.0  0.423291  -1e-05  0.902095  0.0  0.434363  -1e-05  0.886003  0.0  0.304421  0.4154  -8e-06  0.913419  0.0
C  C23  1  0.27819562  0.85607531  0.39778319  1  -0.05745  -0.00078  3.688727  -0.001  -0.029295  -0.000319  3.919513  0.0  -0.041267  -0.000231  3.943751  0.0  -0.001791  -0.02215  -0.000528  3.904406  -0.001
C  C24  1  0.72180420  0.14392519  0.60221729  1  -0.057412  -0.0008  3.688725  -0.001  -0.029277  -0.000306  3.919533  0.0  -0.041242  -0.000245  3.943759  0.0  -0.001789  -0.022133  -0.000528  3.904432  -0.001
C  C25  1  0.27154278  0.98111892  0.43174276  1  -0.017859  -7.2e-05  3.604771  -0.001  -0.062882  -0.000542  3.854446  -0.001  -0.057283  -0.000207  3.871595  0.0  -0.049794  -0.066357  -0.000844  3.84385  -0.001
C  C26  1  0.72845634  0.01888356  0.56825593  1  -0.017876  -4.3e-05  3.604922  -0.001  -0.062868  -0.000554  3.854592  -0.001  -0.057272  -0.000186  3.871742  0.0  -0.04977  -0.066344  -0.000844  3.843997  -0.001
C  C27  1  0.16095199  0.09589043  0.41698782  1  -0.059473  -0.007935  3.728843  -0.009  -0.033556  -0.004562  3.967247  -0.005  -0.045498  -0.003292  3.990325  -0.004  -0.010119  -0.026142  -0.0056  3.952217  -0.006
C  C28  1  0.83904621  0.90410902  0.58300792  1  -0.059572  -0.007944  3.728904  -0.009  -0.033627  -0.004556  3.967302  -0.005  -0.045571  -0.003304  3.990383  -0.004  -0.010125  -0.026209  -0.005599  3.952262  -0.006
C  C29  1  0.05689095  0.08626463  0.36771258  1  -0.073829  0.001024  3.700781  0.001  -0.118073  1.4e-05  3.96608  0.0  -0.112435  0.000184  3.982331  0.0  -0.066304  -0.121444  -3.7e-05  3.955206  0.0
C  C30  1  0.94310886  0.91373582  0.63228265  1  -0.073702  0.001038  3.700751  0.001  -0.117953  6e-06  3.966044  0.0  -0.112316  0.000204  3.982298  0.0  -0.066284  -0.121317  -3.7e-05  3.955154  0.0
C  C31  1  0.06887196  0.96284249  0.32914038  1  0.057444  -0.000216  3.7254  0.0  0.045197  -5.8e-05  3.981502  0.0  0.038793  -7.1e-05  4.005449  0.0  0.072338  0.049162  1e-05  3.965279  0.0
C  C32  1  0.93112856  0.03715599  0.67085752  1  0.057363  -0.000235  3.725461  0.0  0.04515  -4.5e-05  3.981585  0.0  0.038749  -8.2e-05  4.005531  0.0  0.072335  0.049117  1e-05  3.965359  0.0
C  C33  1  0.17753711  0.84648261  0.34385219  1  -0.059448  0.000725  3.63886  0.0  -0.099209  5.8e-05  3.891641  0.0  -0.093621  0.000201  3.907579  0.0  -0.056083  -0.102531  -6.3e-05  3.881001  0.0
C  C34  1  0.82246537  0.15351587  0.65614610  1  -0.059567  0.000755  3.638922  0.001  -0.099313  4e-05  3.89169  0.0  -0.093726  0.000227  3.907627  0.0  -0.056126  -0.102636  -6.3e-05  3.881053  0.0
C  C35  1  0.39032849  0.73193944  0.42553032  1  0.739433  -0.000109  3.847559  0.0  0.694693  -7.3e-05  4.132954  0.0  0.730346  -4.8e-05  4.122444  0.0  0.246597  0.670326  -0.000124  4.136954  0.0
C  C36  1  0.60967064  0.26806310  0.57447362  1  0.739576  -0.000105  3.847499  0.0  0.694838  -7.5e-05  4.13288  0.0  0.730489  -4.8e-05  4.12237  0.0  0.246693  0.670466  -0.000124  4.136899  0.0
C  C37  1  0.15086826  0.23204280  0.44913294  1  0.687345  0.007541  3.864536  0.007  0.640583  0.002035  4.166099  0.003  0.679518  0.002428  4.157366  0.003  0.22558  0.614318  0.001615  4.168954  0.003
C  C38  1  0.84913485  0.76795665  0.55086245  1  0.687436  0.007547  3.864481  0.007  0.640635  0.002035  4.166104  0.003  0.679572  0.002429  4.157365  0.003  0.225605  0.614369  0.001616  4.168959  0.003
C  C39  1  0.91056888  0.40852211  0.87527989  1  -0.066795  -0.007226  3.728407  -0.008  -0.041887  -0.004674  3.96917  -0.005  -0.054637  -0.00347  3.992883  -0.004  -0.010458  -0.033929  -0.005556  3.953929  -0.006
C  C40  1  0.08942742  0.59147437  0.12471840  1  -0.066606  -0.007254  3.728287  -0.008  -0.041706  -0.004667  3.969007  -0.005  -0.054453  -0.003486  3.992716  -0.004  -0.010372  -0.033752  -0.005556  3.953761  -0.006
C  C41  1  0.78863570  0.42116293  0.96662758  1  -0.012665  0.001012  3.595057  0.0  -0.058548  2e-06  3.844788  0.0  -0.052629  0.000241  3.861821  0.0  -0.048889  -0.062012  -0.000192  3.833724  -0.001
C  C42  1  0.21136405  0.57884053  0.03336996  1  -0.012781  0.001054  3.594969  0.0  -0.058664  -7e-06  3.844707  0.0  -0.052744  0.000271  3.861736  0.0  -0.048912  -0.062122  -0.000192  3.833631  -0.001
C  C43  1  0.79519416  0.38494585  0.08728065  1  -0.045404  -0.000969  3.702032  -0.001  -0.018203  -0.000386  3.93822  0.0  -0.030152  -0.000326  3.962518  0.0  -0.003335  -0.010954  -0.000484  3.922467  -0.001
C  C44  1  0.20480519  0.61506166  0.91272093  1  -0.045381  -0.000997  3.702093  -0.001  -0.018162  -0.000381  3.938259  0.0  -0.030111  -0.000342  3.962556  0.0  -0.003276  -0.010915  -0.000484  3.922507  -0.001
C  C45  1  0.92433308  0.33530262  0.11681974  1  -0.057836  0.001765  3.641779  0.001  -0.10099  0.000613  3.903341  0.0  -0.094919  0.000671  3.919086  0.0  -0.056806  -0.104808  0.000585  3.8935  0.0
C  C46  1  0.07566396  0.66470587  0.88318057  1  -0.057822  0.001818  3.641751  0.001  -0.100938  0.000601  3.903328  0.0  -0.094865  0.000702  3.919072  0.0  -0.05681  -0.104757  0.000585  3.893478  0.0
C  C47  1  0.04484357  0.32100636  0.02368769  1  0.052564  -0.000419  3.701504  -0.001  0.047159  -6.4e-05  3.966979  0.0  0.040026  -0.000106  3.99111  0.0  0.077212  0.051514  -2.5e-05  3.950823  0.0
C  C48  1  0.95515590  0.67899512  0.97631102  1  0.052559  -0.000443  3.701638  -0.001  0.047161  -6.3e-05  3.967066  0.0  0.040028  -0.000117  3.991195  0.0  0.077235  0.051522  -2.5e-05  3.950899  0.0
C  C49  1  0.04054673  0.35621866  0.90335849  1  -0.055022  0.001696  3.666956  0.001  -0.098772  0.000287  3.928354  0.0  -0.091873  0.000437  3.942677  0.0  -0.056346  -0.10297  0.000165  3.918927  0.0
C  C50  1  0.95945287  0.64377683  0.09664085  1  -0.055224  0.001739  3.667031  0.001  -0.098879  0.000275  3.928441  0.0  -0.091981  0.000467  3.942764  0.0  -0.056423  -0.103079  0.000165  3.919017  0.0
C  C51  1  0.90180248  0.44981868  0.74721427  1  0.703258  0.006537  3.857813  0.006  0.650249  0.002133  4.162837  0.003  0.688863  0.002593  4.153055  0.003  0.230492  0.624039  0.001579  4.167176  0.003
C  C52  1  0.09819325  0.55017380  0.25278373  1  0.70325  0.006559  3.857937  0.006  0.650264  0.00213  4.162897  0.003  0.688879  0.002595  4.153111  0.003  0.230483  0.624056  0.00158  4.167228  0.003
C  C53  1  0.66296299  0.39686781  0.18302950  1  0.659463  -9.8e-05  3.916375  0.0  0.611425  -6.6e-05  4.207746  0.0  0.645499  -4.2e-05  4.201206  0.0  0.211258  0.589082  -0.000109  4.207341  0.0
C  C54  1  0.33703370  0.60314168  0.81697078  1  0.659384  -8.8e-05  3.916479  0.0  0.611322  -6.7e-05  4.207891  0.0  0.645394  -4.1e-05  4.201354  0.0  0.211124  0.588982  -0.000109  4.207484  0.0
N  N55  1  0.96093838  0.95712843  0.27253553  1  0.460894  1.3e-05  3.968302  0.0  0.523596  2.8e-05  4.215217  0.0  0.544354  2.2e-05  4.224872  0.0  0.056066  0.509628  2.1e-05  4.208793  0.0
N  N56  1  0.03906150  0.04286905  0.72746264  1  0.461169  1.4e-05  3.968078  0.0  0.52374  2.5e-05  4.215158  0.0  0.544498  2.5e-05  4.224815  0.0  0.056128  0.509771  2.1e-05  4.208732  0.0
N  N57  1  0.18149615  0.27005946  0.05258545  1  0.504241  3.4e-05  3.889196  0.0  0.530197  9e-06  4.187634  0.0  0.551148  1.7e-05  4.198297  0.0  0.061791  0.516241  -1e-06  4.180376  0.0
N  N58  1  0.81850500  0.72994001  0.94741131  1  0.504291  2.4e-05  3.889249  0.0  0.530246  1.7e-05  4.187699  0.0  0.551193  1.5e-05  4.198367  0.0  0.06181  0.516302  -0.0  4.180427  0.0
O  O59  1  0.40242970  0.62046535  0.38591305  1  -0.754782  -0.000476  2.013253  -0.001  -0.709412  -0.000159  2.267716  0.0  -0.733923  -8.2e-05  2.253407  0.0  -0.404624  -0.685659  -0.000241  2.277559  0.0
O  O60  1  0.59757209  0.37953520  0.61409132  1  -0.754829  -0.000478  2.0132  -0.001  -0.709459  -0.000159  2.267669  0.0  -0.733973  -8.2e-05  2.253365  0.0  -0.404677  -0.685692  -0.00024  2.277514  0.0
O  O61  1  0.46432473  0.74720119  0.49061630  1  -0.726155  -8e-05  2.001893  0.0  -0.682159  -3.3e-05  2.244209  0.0  -0.70559  -2.8e-05  2.229308  0.0  -0.402484  -0.659951  -9.5e-05  2.254869  0.0
O  O62  1  0.53567237  0.25280433  0.50938607  1  -0.72628  -8.1e-05  2.001957  0.0  -0.682278  -3.1e-05  2.244266  0.0  -0.705709  -2.9e-05  2.229364  0.0  -0.402537  -0.660072  -9.5e-05  2.254931  0.0
O  O63  1  0.25916963  0.25521308  0.45250215  1  -0.715539  0.001351  2.009762  -0.001  -0.673351  0.001267  2.261627  0.0  -0.698467  0.001921  2.247703  0.001  -0.383908  -0.650089  0.000676  2.271054  -0.001
O  O64  1  0.74083552  0.74478339  0.54749481  1  -0.71552  0.001351  2.00983  -0.001  -0.673294  0.001268  2.261673  0.0  -0.69841  0.00192  2.247746  0.001  -0.383892  -0.650027  0.000677  2.271104  -0.001
O  O65  1  0.02738913  0.31803639  0.46768319  1  -0.584075  -0.084864  2.089593  -0.117  -0.561818  -0.053054  2.382206  -0.08  -0.604638  -0.040309  2.372744  -0.065  -0.312478  -0.53159  -0.061489  2.387703  -0.088
O  O66  1  0.97261827  0.68196205  0.53231124  1  -0.584182  -0.084871  2.089669  -0.117  -0.561931  -0.053057  2.382309  -0.08  -0.604752  -0.040312  2.372844  -0.065  -0.312494  -0.531698  -0.061493  2.387803  -0.088
O  O67  1  0.87666630  0.06429094  0.24689880  1  -0.338349  5.3e-05  1.744565  0.0  -0.338127  7.4e-05  1.928335  0.0  -0.349599  5.8e-05  1.924803  0.0  -0.12755  -0.330765  6.8e-05  1.931271  0.0
O  O68  1  0.12332846  0.93570161  0.75310645  1  -0.338473  6.8e-05  1.74444  0.0  -0.338221  7.1e-05  1.928294  0.0  -0.349696  5.7e-05  1.924761  0.0  -0.127593  -0.33086  6.8e-05  1.931227  0.0
O  O69  1  0.96015838  0.84515976  0.25364085  1  -0.344423  2.8e-05  1.794562  0.0  -0.337976  3.5e-05  1.9878  0.0  -0.35152  3.9e-05  1.98545  0.0  -0.12715  -0.329138  6e-05  1.989781  0.0
O  O70  1  0.03984746  0.15483471  0.74635616  1  -0.344495  2e-05  1.794531  0.0  -0.337995  3.6e-05  1.98782  0.0  -0.35154  3.5e-05  1.985469  0.0  -0.127155  -0.32916  6e-05  1.989802  0.0
O  O71  1  0.01524376  0.44868037  0.67017293  1  -0.607001  -0.073874  2.125291  -0.102  -0.560698  -0.052787  2.392066  -0.079  -0.602364  -0.04081  2.382783  -0.066  -0.300505  -0.53218  -0.060349  2.398459  -0.085
O  O72  1  0.98475120  0.55131711  0.32982559  1  -0.607019  -0.07388  2.125371  -0.102  -0.560665  -0.052785  2.39207  -0.079  -0.602331  -0.040811  2.382786  -0.066  -0.300527  -0.532152  -0.060348  2.398454  -0.085
O  O73  1  0.78530883  0.48373837  0.72106563  1  -0.747142  0.001902  2.071912  0.0  -0.713266  0.001607  2.352557  0.0  -0.736733  0.002183  2.334887  0.0  -0.389546  -0.690394  0.001053  2.364708  -0.001
O  O74  1  0.21469019  0.51625313  0.27893429  1  -0.747202  0.001892  2.071867  0.0  -0.713333  0.001607  2.352478  0.0  -0.73681  0.002182  2.334826  0.0  -0.389539  -0.690472  0.001053  2.364621  -0.001
O  O75  1  0.54930926  0.42694032  0.15106020  1  -0.67925  -3.8e-05  1.940791  0.0  -0.635437  -9e-06  2.165765  0.0  -0.658687  -1.3e-05  2.154285  0.0  -0.35258  -0.615915  -3e-05  2.173312  0.0
O  O76  1  0.45068638  0.57307218  0.84894089  1  -0.679284  -4.3e-05  1.940796  0.0  -0.635453  -1e-05  2.165777  0.0  -0.658705  -1.4e-05  2.154303  0.0  -0.352582  -0.615929  -2.9e-05  2.173325  0.0
O  O77  1  0.66799044  0.37308542  0.29479707  1  -0.707895  -0.000195  2.023681  0.0  -0.653059  -9.9e-05  2.252046  0.0  -0.678411  -6.3e-05  2.241197  0.0  -0.357026  -0.631384  -0.000149  2.258249  0.0
O  O78  1  0.33200799  0.62691909  0.70520420  1  -0.707833  -0.000198  2.023786  0.0  -0.652987  -9.7e-05  2.25215  0.0  -0.678336  -6.3e-05  2.241301  0.0  -0.356965  -0.631301  -0.000149  2.25834  0.0
O  O79  1  0.18328256  0.24279947  0.16198851  1  -0.386659  -1.1e-05  1.80575  0.0  -0.35072  3.1e-05  2.00868  0.0  -0.367922  1.1e-05  2.007512  0.0  -0.116014  -0.339265  3.8e-05  2.009772  0.0
O  O80  1  0.81671517  0.75720706  0.83801447  1  -0.386453  4e-06  1.805842  0.0  -0.350511  3.1e-05  2.008757  0.0  -0.367703  1e-05  2.007586  0.0  -0.115903  -0.339114  3.8e-05  2.009896  0.0
O  O81  1  0.28750505  0.25848960  0.96968762  1  -0.329366  -2.7e-05  1.704175  0.0  -0.313308  1.2e-05  1.887736  0.0  -0.323445  2.5e-05  1.884805  0.0  -0.112793  -0.306496  2.7e-05  1.890006  0.0
O  O82  1  0.71249404  0.74149892  0.03031348  1  -0.329558  -4.2e-05  1.704074  0.0  -0.313492  1.3e-05  1.887637  0.0  -0.323633  2.2e-05  1.884707  0.0  -0.11291  -0.306671  2.7e-05  1.889897  0.0
O  O83  1  0.56300947  0.76707962  0.78892001  1  -0.892765  1.9e-05  1.815626  0.0  -0.849747  2.6e-05  1.976346  0.0  -0.866134  1.3e-05  1.944702  0.0  -0.626174  -0.832988  3.6e-05  2.001201  0.0
O  O84  1  0.43700600  0.23290993  0.21108391  1  -0.892804  1.6e-05  1.81571  0.0  -0.849831  2.7e-05  1.976273  0.0  -0.866218  1.2e-05  1.944616  0.0  -0.626218  -0.83308  3.6e-05  2.001137  0.0
O  O85  1  0.73849882  0.51685653  0.42494567  1  -0.950709  0.00072  1.863881  0.0  -0.91596  0.000895  2.066758  0.0  -0.932049  0.000979  2.029252  0.0  -0.658409  -0.898303  0.00074  2.094524  0.0
O  O86  1  0.26149574  0.48314502  0.57505952  1  -0.950679  0.000721  1.863886  0.0  -0.915925  0.000894  2.066745  0.0  -0.932011  0.000979  2.029238  0.0  -0.658441  -0.898279  0.00074  2.094506  0.0
