# generated using pymatgen
data_Na2CaH26C20O17
_symmetry_space_group_name_H-M   'P 1'
_cell_length_a   9.43157509
_cell_length_b   10.51386898
_cell_length_c   14.16394474
_cell_angle_alpha   102.50936105
_cell_angle_beta   104.80703116
_cell_angle_gamma   91.63705282
_symmetry_Int_Tables_number   1
_chemical_formula_structural   Na2CaH26C20O17
_chemical_formula_sum   'Na4 Ca2 H52 C40 O34'
_cell_volume   1320.40216785
_cell_formula_units_Z   2
loop_
 _symmetry_equiv_pos_site_id
 _symmetry_equiv_pos_as_xyz
  1  'x, y, z'
loop_
 _atom_site_type_symbol
 _atom_site_label
 _atom_site_symmetry_multiplicity
 _atom_site_fract_x
 _atom_site_fract_y
 _atom_site_fract_z
 _atom_site_occupancy
 _atom_site_hle17_bader_spin_density
 _atom_site_hle17_ddec_charge
 _atom_site_hle17_ddec_spin_density
 _atom_site_hle17_ddec_sum_bond_order
 _atom_site_hle17_magmom
 _atom_site_hse06_10hf_bader_spin_density
 _atom_site_hse06_10hf_ddec_charge
 _atom_site_hse06_10hf_ddec_spin_density
 _atom_site_hse06_10hf_ddec_sum_bond_order
 _atom_site_hse06_10hf_magmom
 _atom_site_hse06_bader_spin_density
 _atom_site_hse06_ddec_charge
 _atom_site_hse06_ddec_spin_density
 _atom_site_hse06_ddec_sum_bond_order
 _atom_site_hse06_magmom
 _atom_site_pbe_bader_spin_density
 _atom_site_pbe_cm5_charge
 _atom_site_pbe_ddec_charge
 _atom_site_pbe_ddec_spin_density
 _atom_site_pbe_ddec_sum_bond_order
 _atom_site_pbe_magmom
Na  Na0  1  0.86928485  0.44238483  0.62330650  1  0  0.906328  0  0.356021  0  0  0.866211  0  0.499326  0  0  0.875952  0  0.478101  0  0  0.641575  0.858864  0  0.514796  0
Na  Na1  1  0.13071979  0.55761614  0.37669345  1  0  0.906337  0  0.355985  0  0  0.866194  0  0.499332  0  0  0.875938  0  0.478107  0  0  0.641559  0.858844  0  0.514806  0
Na  Na2  1  0.91753813  0.82797815  0.89666671  1  0  0.903511  0  0.356097  0  0  0.865364  0  0.495032  0  0  0.875881  0  0.472982  0  0  0.648482  0.857391  0  0.511016  0
Na  Na3  1  0.08245783  0.17202381  0.10333330  1  0  0.903507  0  0.356097  0  0  0.865373  0  0.495006  0  0  0.875881  0  0.472967  0  0  0.648494  0.857396  0  0.510992  0
Ca  Ca4  1  0.36644152  0.14301819  0.76411399  1  0  1.462131  0  1.246023  0  0  1.293544  0  1.633304  0  0  1.340651  0  1.587581  0  0  0.885627  1.258428  0  1.665303  0
Ca  Ca5  1  0.63356132  0.85698669  0.23588555  1  0  1.462232  0  1.245897  0  0  1.293568  0  1.63335  0  0  1.340731  0  1.587518  0  0  0.885651  1.258436  0  1.665358  0
H  H6  1  0.74706624  0.16489816  0.10143456  1  0  0.101971  0  1.002065  0  0  0.107492  0  1.075171  0  0  0.111332  0  1.072304  0  0  0.1065  0.10466  0  1.077412  0
H  H7  1  0.25292635  0.83509208  0.89856657  1  0  0.101955  0  1.001997  0  0  0.107477  0  1.075116  0  0  0.111314  0  1.072256  0  0  0.106474  0.10464  0  1.077359  0
H  H8  1  0.76182979  0.34040426  0.25090657  1  0  0.086729  0  0.968095  0  0  0.098116  0  1.029406  0  0  0.1011  0  1.027921  0  0  0.101168  0.095886  0  1.030733  0
H  H9  1  0.23816938  0.65958599  0.74909570  1  0  0.086669  0  0.968084  0  0  0.098069  0  1.029406  0  0  0.101052  0  1.027922  0  0  0.101155  0.095841  0  1.030719  0
H  H10  1  0.56402965  0.49559751  0.24977432  1  0  0.08824  0  0.967837  0  0  0.099991  0  1.027438  0  0  0.102553  0  1.026483  0  0  0.102054  0.097966  0  1.02855  0
H  H11  1  0.43597797  0.50440057  0.75023063  1  0  0.088265  0  0.967845  0  0  0.100016  0  1.02744  0  0  0.102575  0  1.026486  0  0  0.102061  0.09799  0  1.028555  0
H  H12  1  0.36422450  0.48141486  0.09831643  1  0  0.120216  0  0.95027  0  0  0.129025  0  1.013912  0  0  0.133287  0  1.010094  0  0  0.111508  0.126118  0  1.016378  0
H  H13  1  0.63578600  0.51859006  0.90168867  1  0  0.120258  0  0.950299  0  0  0.129057  0  1.013928  0  0  0.133315  0  1.010111  0  0  0.111512  0.126152  0  1.016398  0
H  H14  1  0.28742525  0.49371606  0.93859051  1  0  0.086164  0  0.957771  0  0  0.09438  0  1.02842  0  0  0.094488  0  1.030391  0  0  0.112456  0.094313  0  1.027172  0
H  H15  1  0.71257567  0.50629181  0.06141552  1  0  0.086207  0  0.95765  0  0  0.094444  0  1.028334  0  0  0.09456  0  1.030297  0  0  0.112487  0.094385  0  1.02709  0
H  H16  1  0.15407039  0.38148534  0.95539208  1  0  0.096638  0  0.951064  0  0  0.104667  0  1.019221  0  0  0.107333  0  1.015935  0  0  0.112846  0.10279  0  1.021476  0
H  H17  1  0.84593354  0.61851957  0.04461118  1  0  0.096616  0  0.951085  0  0  0.104653  0  1.019288  0  0  0.107319  0  1.016003  0  0  0.11285  0.102788  0  1.021552  0
H  H18  1  0.74494115  0.07678869  0.93965781  1  0  0.075703  0  0.946163  0  0  0.08938  0  1.011468  0  0  0.091358  0  1.008651  0  0  0.114058  0.087892  0  1.013662  0
H  H19  1  0.25505392  0.92321519  0.06033883  1  0  0.075684  0  0.946257  0  0  0.089338  0  1.011585  0  0  0.091317  0  1.008766  0  0  0.114058  0.087852  0  1.013785  0
H  H20  1  0.63422935  0.97876621  0.98625845  1  0  0.096423  0  0.93483  0  0  0.105775  0  1.000747  0  0  0.108141  0  0.998522  0  0  0.117071  0.104054  0  1.002436  0
H  H21  1  0.36576981  0.02123477  0.01374055  1  0  0.096403  0  0.934942  0  0  0.105754  0  1.000852  0  0  0.108119  0  0.998628  0  0  0.117062  0.104023  0  1.002538  0
H  H22  1  0.04452588  0.81095854  0.44912643  1  0  0.100235  0  0.995218  0  0  0.107284  0  1.0673  0  0  0.111273  0  1.06379  0  0  0.108636  0.104578  0  1.069617  0
H  H23  1  0.95547079  0.18903952  0.55087451  1  0  0.100273  0  0.995193  0  0  0.107327  0  1.067277  0  0  0.111314  0  1.063765  0  0  0.108675  0.104627  0  1.069593  0
H  H24  1  0.07719353  0.79879609  0.28026150  1  0  0.089035  0  0.97245  0  0  0.099644  0  1.034573  0  0  0.103087  0  1.032514  0  0  0.104057  0.097027  0  1.036403  0
H  H25  1  0.92279916  0.20119513  0.71973840  1  0  0.088829  0  0.972553  0  0  0.099466  0  1.034682  0  0  0.10291  0  1.032621  0  0  0.104017  0.096853  0  1.036508  0
H  H26  1  0.25820972  0.95901280  0.25570123  1  0  0.082684  0  0.989097  0  0  0.093125  0  1.053274  0  0  0.095723  0  1.052106  0  0  0.104327  0.091127  0  1.054406  0
H  H27  1  0.74178280  0.04097642  0.74429267  1  0  0.082689  0  0.989149  0  0  0.093131  0  1.053328  0  0  0.095728  0  1.052164  0  0  0.104351  0.091135  0  1.054456  0
H  H28  1  0.40742583  0.12449993  0.39765823  1  0  0.11465  0  0.96268  0  0  0.122286  0  1.029599  0  0  0.126933  0  1.025209  0  0  0.108397  0.119001  0  1.032761  0
H  H29  1  0.59256798  0.87549124  0.60233620  1  0  0.114709  0  0.96257  0  0  0.122306  0  1.029537  0  0  0.126948  0  1.025154  0  0  0.108425  0.119034  0  1.032682  0
H  H30  1  0.44748281  0.31662222  0.54419139  1  0  0.080776  0  0.919893  0  0  0.095339  0  0.978723  0  0  0.097641  0  0.975315  0  0  0.110611  0.093509  0  0.981526  0
H  H31  1  0.55251487  0.68337482  0.45580463  1  0  0.080698  0  0.919973  0  0  0.095295  0  0.978754  0  0  0.09759  0  0.975368  0  0  0.110588  0.093463  0  0.981552  0
H  H32  1  0.57248869  0.19122674  0.54492032  1  0  0.085635  0  0.953543  0  0  0.096016  0  1.021047  0  0  0.096071  0  1.022791  0  0  0.111996  0.095782  0  1.020274  0
H  H33  1  0.42750363  0.80877122  0.45506856  1  0  0.085729  0  0.953483  0  0  0.096062  0  1.021082  0  0  0.096115  0  1.022825  0  0  0.112002  0.095839  0  1.020313  0
H  H34  1  0.99107308  0.88720631  0.58804848  1  0  0.083294  0  0.962563  0  0  0.090546  0  1.034269  0  0  0.090847  0  1.035859  0  0  0.110433  0.090119  0  1.033636  0
H  H35  1  0.00892635  0.11279764  0.41195597  1  0  0.083295  0  0.96252  0  0  0.090542  0  1.034232  0  0  0.090835  0  1.035825  0  0  0.11044  0.090121  0  1.033592  0
H  H36  1  0.14735920  0.79390082  0.61294155  1  0  0.10767  0  0.949912  0  0  0.118421  0  1.012088  0  0  0.120913  0  1.009555  0  0  0.117754  0.116497  0  1.014142  0
H  H37  1  0.85264113  0.20610116  0.38706205  1  0  0.107659  0  0.949865  0  0  0.118395  0  1.012054  0  0  0.120892  0  1.009515  0  0  0.117733  0.116467  0  1.014116  0
H  H38  1  0.91813294  0.72981717  0.67407335  1  0  0.421611  0  0.88916  0  0  0.390678  0  0.952778  0  0  0.40212  0  0.936309  0  0  0.289659  0.382621  0  0.964375  0
H  H39  1  0.08187070  0.27018478  0.32592657  1  0  0.421635  0  0.889131  0  0  0.390681  0  0.952788  0  0  0.402123  0  0.936318  0  0  0.289651  0.382624  0  0.964385  0
H  H40  1  0.75008367  0.68955368  0.62728370  1  0  0.422345  0  0.832429  0  0  0.40286  0  0.894262  0  0  0.411123  0  0.882858  0  0  0.320398  0.396974  0  0.901678  0
H  H41  1  0.24991998  0.31044826  0.37271411  1  0  0.422288  0  0.832554  0  0  0.402868  0  0.894295  0  0  0.411132  0  0.882865  0  0  0.320405  0.39698  0  0.901715  0
H  H42  1  0.65347139  0.35471339  0.39502059  1  0  0.422734  0  0.832135  0  0  0.407563  0  0.884841  0  0  0.415391  0  0.873232  0  0  0.316899  0.401976  0  0.893202  0
H  H43  1  0.34652436  0.64528663  0.60498121  1  0  0.422758  0  0.832151  0  0  0.407574  0  0.884839  0  0  0.415403  0  0.873227  0  0  0.316881  0.401985  0  0.893203  0
H  H44  1  0.79325735  0.45619733  0.42475414  1  0  0.414282  0  0.893057  0  0  0.384894  0  0.95513  0  0  0.39561  0  0.939328  0  0  0.283978  0.377309  0  0.966328  0
H  H45  1  0.20674042  0.54380071  0.57524487  1  0  0.414235  0  0.893114  0  0  0.384878  0  0.955126  0  0  0.395589  0  0.939334  0  0  0.283991  0.377294  0  0.966323  0
H  H46  1  0.05612423  0.85244382  0.11067263  1  0  0.414696  0  0.841772  0  0  0.403185  0  0.890273  0  0  0.409688  0  0.883189  0  0  0.317717  0.398492  0  0.89556  0
H  H47  1  0.94387164  0.14755715  0.88932651  1  0  0.414611  0  0.841865  0  0  0.403106  0  0.89036  0  0  0.409609  0  0.883277  0  0  0.317704  0.398415  0  0.895644  0
H  H48  1  0.92081023  0.93253716  0.11396131  1  0  0.424981  0  0.882786  0  0  0.391527  0  0.951026  0  0  0.403263  0  0.933843  0  0  0.291581  0.383314  0  0.963011  0
H  H49  1  0.07918922  0.06746676  0.88603961  1  0  0.424957  0  0.882832  0  0  0.391486  0  0.951102  0  0  0.403223  0  0.933917  0  0  0.291588  0.383274  0  0.963085  0
H  H50  1  0.08511610  0.63030864  0.98627631  1  0  0.405077  0  0.852066  0  0  0.390564  0  0.907908  0  0  0.397778  0  0.89932  0  0  0.309138  0.385304  0  0.914244  0
H  H51  1  0.91488325  0.36969430  0.01372515  1  0  0.405069  0  0.852053  0  0  0.390555  0  0.907897  0  0  0.397772  0  0.899306  0  0  0.309123  0.385299  0  0.914231  0
H  H52  1  0.00784995  0.55847583  0.87574567  1  0  0.427301  0  0.876468  0  0  0.397578  0  0.938096  0  0  0.409089  0  0.921263  0  0  0.286577  0.389537  0  0.949769  0
H  H53  1  0.99215378  0.44152711  0.12425513  1  0  0.427265  0  0.87651  0  0  0.39754  0  0.938142  0  0  0.409049  0  0.92131  0  0  0.286573  0.389499  0  0.949813  0
H  H54  1  0.12197167  0.35683617  0.50698448  1  0  0.421162  0  0.875646  0  0  0.394273  0  0.932864  0  0  0.403842  0  0.918841  0  0  0.292942  0.387492  0  0.942805  0
H  H55  1  0.87803058  0.64316286  0.49301545  1  0  0.421185  0  0.875615  0  0  0.394292  0  0.93284  0  0  0.403861  0  0.918816  0  0  0.292961  0.387509  0  0.942783  0
H  H56  1  0.14625317  0.35610321  0.62485075  1  0  0.417975  0  0.888944  0  0  0.38322  0  0.95964  0  0  0.394872  0  0.942557  0  0  0.290029  0.375032  0  0.971597  0
H  H57  1  0.85375018  0.64389581  0.37514937  1  0  0.417872  0  0.889073  0  0  0.383164  0  0.959682  0  0  0.394811  0  0.942608  0  0  0.290006  0.374975  0  0.971641  0
C  C58  1  0.44243606  0.31581162  0.01082374  1  0  0.166173  0  3.780977  0  0  0.154266  0  4.04181  0  0  0.16148  0  4.058229  0  0  0.080356  0.149099  0  4.031353  0
C  C59  1  0.55756768  0.68419133  0.98917777  1  0  0.166234  0  3.781009  0  0  0.154228  0  4.04187  0  0  0.161469  0  4.058295  0  0  0.080299  0.149062  0  4.031405  0
C  C60  1  0.54950766  0.22437686  0.01310344  1  0  0.161168  0  3.800164  0  0  0.149075  0  4.059358  0  0  0.156048  0  4.076576  0  0  0.07562  0.144213  0  4.048195  0
C  C61  1  0.45048818  0.77562417  0.98690206  1  0  0.160906  0  3.80062  0  0  0.148911  0  4.059676  0  0  0.155881  0  4.076888  0  0  0.075621  0.144049  0  4.048514  0
C  C62  1  0.66392204  0.23426996  0.09919934  1  0  -0.188927  0  3.804212  0  0  -0.212131  0  4.065613  0  0  -0.2154  0  4.08508  0  0  -0.110083  -0.210103  0  4.052567  0
C  C63  1  0.33607762  0.76572519  0.90080448  1  0  -0.188789  0  3.804232  0  0  -0.21202  0  4.065569  0  0  -0.21529  0  4.08504  0  0  -0.110037  -0.209996  0  4.052523  0
C  C64  1  0.67027583  0.33288472  0.18459898  1  0  -0.070048  0  3.80562  0  0  -0.088215  0  4.063688  0  0  -0.089275  0  4.084057  0  0  -0.103208  -0.087658  0  4.050116  0
C  C65  1  0.32972812  0.66710944  0.81540402  1  0  -0.070015  0  3.805622  0  0  -0.088199  0  4.063705  0  0  -0.089256  0  4.08407  0  0  -0.103248  -0.087648  0  4.050134  0
C  C66  1  0.56155874  0.41926025  0.18375168  1  0  -0.0596  0  3.785086  0  0  -0.077584  0  4.042304  0  0  -0.077907  0  4.06171  0  0  -0.096631  -0.077544  0  4.029781  0
C  C67  1  0.43844441  0.58073684  0.81625093  1  0  -0.059681  0  3.785323  0  0  -0.077681  0  4.042534  0  0  -0.078003  0  4.06194  0  0  -0.09667  -0.07765  0  4.030018  0
C  C68  1  0.44723360  0.41174730  0.09663213  1  0  -0.160143  0  3.740736  0  0  -0.183388  0  3.997101  0  0  -0.185755  0  4.014864  0  0  -0.096513  -0.182084  0  3.985281  0
C  C69  1  0.55277540  0.58825373  0.90337423  1  0  -0.160169  0  3.741028  0  0  -0.18336  0  3.997369  0  0  -0.185719  0  4.015118  0  0  -0.096461  -0.182063  0  3.98556  0
C  C70  1  0.23158628  0.39393088  0.91087644  1  0  -0.0874  0  3.629411  0  0  -0.142929  0  3.884498  0  0  -0.140062  0  3.886325  0  0  -0.061757  -0.144792  0  3.882937  0
C  C71  1  0.76842361  0.60607894  0.08913003  1  0  -0.087345  0  3.629154  0  0  -0.143075  0  3.88447  0  0  -0.140187  0  3.8863  0  0  -0.06183  -0.144996  0  3.882995  0
C  C72  1  0.63344252  0.02968761  0.92600045  1  0  -0.074703  0  3.597553  0  0  -0.133314  0  3.8592  0  0  -0.128856  0  3.858243  0  0  -0.06005  -0.13635  0  3.859812  0
C  C73  1  0.36655245  0.97031530  0.07399673  1  0  -0.074693  0  3.597764  0  0  -0.133297  0  3.859357  0  0  -0.128856  0  3.858422  0  0  -0.060031  -0.136332  0  3.85997  0
C  C74  1  0.15040894  0.37948977  0.80068413  1  0  0.686162  0  3.879544  0  0  0.632941  0  4.189363  0  0  0.665157  0  4.182616  0  0  0.220966  0.610906  0  4.193404  0
C  C75  1  0.84959886  0.62052100  0.19932001  1  0  0.68596  0  3.880159  0  0  0.632876  0  4.189823  0  0  0.665097  0  4.183068  0  0  0.220945  0.610854  0  4.193854  0
C  C76  1  0.59405537  0.93080336  0.82381281  1  0  0.679207  0  3.946241  0  0  0.63202  0  4.257189  0  0  0.663882  0  4.250287  0  0  0.200824  0.610321  0  4.261183  0
C  C77  1  0.40593631  0.06919955  0.17618380  1  0  0.67931  0  3.946284  0  0  0.632151  0  4.25719  0  0  0.664015  0  4.250285  0  0  0.20089  0.610454  0  4.261179  0
C  C78  1  0.30936853  0.06557451  0.50645527  1  0  0.161646  0  3.801843  0  0  0.15022  0  4.062583  0  0  0.157664  0  4.079079  0  0  0.076787  0.145104  0  4.051533  0
C  C79  1  0.69062797  0.93442155  0.49353968  1  0  0.161774  0  3.801877  0  0  0.15024  0  4.062644  0  0  0.157684  0  4.079141  0  0  0.076832  0.145133  0  4.051597  0
C  C80  1  0.20657674  0.97544835  0.52021593  1  0  0.169096  0  3.785141  0  0  0.157065  0  4.043921  0  0  0.164664  0  4.059685  0  0  0.078184  0.151926  0  4.033116  0
C  C81  1  0.79341754  0.02454773  0.47978146  1  0  0.169189  0  3.78516  0  0  0.157134  0  4.044006  0  0  0.164727  0  4.059781  0  0  0.078279  0.152005  0  4.033198  0
C  C82  1  0.12366177  0.88026973  0.43877303  1  0  -0.188128  0  3.795983  0  0  -0.21108  0  4.056156  0  0  -0.213464  0  4.073806  0  0  -0.107088  -0.210126  0  4.045151  0
C  C83  1  0.87633170  0.11972931  0.56122822  1  0  -0.188244  0  3.796038  0  0  -0.211204  0  4.056236  0  0  -0.213584  0  4.073887  0  0  -0.107137  -0.210237  0  4.045228  0
C  C84  1  0.14172490  0.87453090  0.34298719  1  0  -0.079036  0  3.8131  0  0  -0.097693  0  4.07319  0  0  -0.098526  0  4.092364  0  0  -0.100126  -0.097402  0  4.06107  0
C  C85  1  0.85826919  0.12546323  0.65701058  1  0  -0.078821  0  3.813298  0  0  -0.097502  0  4.073374  0  0  -0.098336  0  4.092552  0  0  -0.100063  -0.097212  0  4.061262  0
C  C86  1  0.24233681  0.96310214  0.32945708  1  0  -0.054771  0  3.793417  0  0  -0.074065  0  4.051932  0  0  -0.074389  0  4.072078  0  0  -0.094488  -0.074171  0  4.039146  0
C  C87  1  0.75765938  0.03689100  0.67053948  1  0  -0.054715  0  3.793646  0  0  -0.074012  0  4.052171  0  0  -0.07434  0  4.072327  0  0  -0.094522  -0.074112  0  4.039378  0
C  C88  1  0.32689122  0.05892781  0.41082269  1  0  -0.183659  0  3.771685  0  0  -0.207567  0  4.033985  0  0  -0.210443  0  4.051965  0  0  -0.105522  -0.206106  0  4.022857  0
C  C89  1  0.67310617  0.94106628  0.58917141  1  0  -0.183826  0  3.771727  0  0  -0.207727  0  4.034148  0  0  -0.210589  0  4.052111  0  0  -0.105601  -0.206269  0  4.02301  0
C  C90  1  0.49869887  0.24453266  0.58524110  1  0  -0.071062  0  3.603719  0  0  -0.129992  0  3.864129  0  0  -0.125453  0  3.864535  0  0  -0.062296  -0.1332  0  3.863976  0
C  C91  1  0.50129644  0.75546239  0.41474996  1  0  -0.071122  0  3.603932  0  0  -0.130118  0  3.864266  0  0  -0.125581  0  3.864671  0  0  -0.062276  -0.133321  0  3.864121  0
C  C92  1  0.10523130  0.88985710  0.63385124  1  0  -0.086199  0  3.618354  0  0  -0.140099  0  3.866683  0  0  -0.137657  0  3.869236  0  0  -0.063147  -0.141682  0  3.864878  0
C  C93  1  0.89477023  0.11014586  0.36615201  1  0  -0.086169  0  3.618299  0  0  -0.140035  0  3.866559  0  0  -0.137597  0  3.869133  0  0  -0.063127  -0.14162  0  3.864765  0
C  C94  1  0.59112826  0.31564524  0.69069136  1  0  0.681433  0  3.950568  0  0  0.637315  0  4.257214  0  0  0.66912  0  4.249751  0  0  0.200766  0.615604  0  4.261471  0
C  C95  1  0.40887504  0.68434201  0.30930197  1  0  0.681806  0  3.950412  0  0  0.637641  0  4.257109  0  0  0.669448  0  4.249643  0  0  0.200825  0.615926  0  4.26137  0
C  C96  1  0.10230905  0.91859394  0.74262338  1  0  0.700624  0  3.857863  0  0  0.647855  0  4.161467  0  0  0.68041  0  4.154343  0  0  0.226598  0.625598  0  4.165679  0
C  C97  1  0.89769587  0.08141001  0.25738202  1  0  0.700454  0  3.858203  0  0  0.647701  0  4.161786  0  0  0.680258  0  4.154659  0  0  0.226465  0.625429  0  4.166027  0
O  O98  1  0.33846816  0.29987421  0.91964373  1  0  -0.296265  0  2.428622  0  0  -0.21336  0  2.660196  0  0  -0.231707  0  2.66401  0  0  -0.197867  -0.200328  0  2.657138  0
O  O99  1  0.66153645  0.70013753  0.08035860  1  0  -0.296151  0  2.4282  0  0  -0.213158  0  2.659815  0  0  -0.231588  0  2.663681  0  0  -0.197789  -0.200117  0  2.656777  0
O  O100  1  0.52957080  0.12745741  0.92648053  1  0  -0.311548  0  2.446095  0  0  -0.226892  0  2.681438  0  0  -0.246096  0  2.68519  0  0  -0.212553  -0.213139  0  2.678416  0
O  O101  1  0.47042087  0.87254552  0.07351819  1  0  -0.311522  0  2.446321  0  0  -0.226819  0  2.681561  0  0  -0.24601  0  2.685293  0  0  -0.212603  -0.21307  0  2.678541  0
O  O102  1  0.19703822  0.30350731  0.73399614  1  0  -0.685403  0  2.003655  0  0  -0.621434  0  2.249291  0  0  -0.648957  0  2.239332  0  0  -0.355049  -0.601799  0  2.255516  0
O  O103  1  0.80297396  0.69650347  0.26600876  1  0  -0.685388  0  2.004079  0  0  -0.621416  0  2.249593  0  0  -0.648946  0  2.239631  0  0  -0.355034  -0.601765  0  2.255798  0
O  O104  1  0.48386846  0.94828522  0.75606344  1  0  -0.685402  0  1.934716  0  0  -0.630664  0  2.178692  0  0  -0.657269  0  2.169815  0  0  -0.385711  -0.611617  0  2.183983  0
O  O105  1  0.51612382  0.05171282  0.24393533  1  0  -0.685456  0  1.934727  0  0  -0.630766  0  2.178757  0  0  -0.657379  0  2.169876  0  0  -0.385767  -0.611719  0  2.184052  0
O  O106  1  0.04154606  0.44614628  0.78238450  1  0  -0.665177  0  1.959657  0  0  -0.612249  0  2.187368  0  0  -0.636919  0  2.176502  0  0  -0.355962  -0.594937  0  2.194432  0
O  O107  1  0.95845916  0.55386057  0.21761717  1  0  -0.665114  0  1.959784  0  0  -0.612205  0  2.187421  0  0  -0.636872  0  2.176553  0  0  -0.355943  -0.594885  0  2.194469  0
O  O108  1  0.68048541  0.84242917  0.81620352  1  0  -0.704458  0  1.886767  0  0  -0.663582  0  2.119119  0  0  -0.686985  0  2.108823  0  0  -0.421714  -0.646805  0  2.125683  0
O  O109  1  0.31951156  0.15757180  0.18379511  1  0  -0.704483  0  1.886811  0  0  -0.663611  0  2.119144  0  0  -0.687003  0  2.108845  0  0  -0.421715  -0.646835  0  2.12571  0
O  O110  1  0.38600174  0.15418919  0.59234761  1  0  -0.303611  0  2.439177  0  0  -0.219933  0  2.671785  0  0  -0.239326  0  2.676158  0  0  -0.202294  -0.205652  0  2.667901  0
O  O111  1  0.61399813  0.84580786  0.40764949  1  0  -0.303764  0  2.439254  0  0  -0.21982  0  2.671706  0  0  -0.239214  0  2.676078  0  0  -0.202335  -0.205556  0  2.667836  0
O  O112  1  0.19568727  0.98993140  0.61691222  1  0  -0.29235  0  2.441944  0  0  -0.209488  0  2.673233  0  0  -0.228692  0  2.678409  0  0  -0.199962  -0.195269  0  2.668597  0
O  O113  1  0.80431318  0.01007153  0.38308731  1  0  -0.292398  0  2.442002  0  0  -0.209527  0  2.673304  0  0  -0.228732  0  2.678476  0  0  -0.199993  -0.195302  0  2.668662  0
O  O114  1  0.56507169  0.28113749  0.76585706  1  0  -0.697085  0  1.927229  0  0  -0.645675  0  2.172982  0  0  -0.671859  0  2.16232  0  0  -0.394056  -0.626803  0  2.179754  0
O  O115  1  0.43494426  0.71885563  0.23413866  1  0  -0.697254  0  1.926983  0  0  -0.645902  0  2.17292  0  0  -0.672097  0  2.162256  0  0  -0.394164  -0.627018  0  2.179689  0
O  O116  1  0.17364667  0.02134934  0.80338562  1  0  -0.673148  0  2.002302  0  0  -0.610832  0  2.242831  0  0  -0.637538  0  2.232348  0  0  -0.339099  -0.591744  0  2.249387  0
O  O117  1  0.82635207  0.97865849  0.19661650  1  0  -0.673089  0  2.002489  0  0  -0.610803  0  2.243015  0  0  -0.637518  0  2.232529  0  0  -0.33903  -0.591709  0  2.249584  0
O  O118  1  0.68574075  0.40273340  0.69201031  1  0  -0.702113  0  1.89595  0  0  -0.663758  0  2.125399  0  0  -0.685979  0  2.113454  0  0  -0.419181  -0.647708  0  2.132966  0
O  O119  1  0.31426115  0.59726163  0.30797906  1  0  -0.70221  0  1.896022  0  0  -0.663838  0  2.12551  0  0  -0.686057  0  2.113563  0  0  -0.41911  -0.647784  0  2.133079  0
O  O120  1  0.02536992  0.83571296  0.76597330  1  0  -0.679164  0  1.980241  0  0  -0.625012  0  2.211814  0  0  -0.650351  0  2.20085  0  0  -0.369327  -0.607199  0  2.218973  0
O  O121  1  0.97463051  0.16429001  0.23403117  1  0  -0.679052  0  1.980269  0  0  -0.624892  0  2.211829  0  0  -0.650232  0  2.200872  0  0  -0.369264  -0.607084  0  2.219001  0
O  O122  1  0.84524931  0.66495248  0.61792594  1  0  -0.872338  0  1.788017  0  0  -0.822748  0  1.954251  0  0  -0.840348  0  1.924245  0  0  -0.626243  -0.810324  0  1.974632  0
O  O123  1  0.15475434  0.33504947  0.38207257  1  0  -0.87233  0  1.788122  0  0  -0.822802  0  1.954266  0  0  -0.840407  0  1.924241  0  0  -0.626267  -0.810391  0  1.974657  0
O  O124  1  0.74762320  0.38280815  0.44461808  1  0  -0.865792  0  1.76451  0  0  -0.827164  0  1.923914  0  0  -0.842852  0  1.89447  0  0  -0.633909  -0.815894  0  1.944774  0
O  O125  1  0.25237466  0.61719087  0.55538181  1  0  -0.865767  0  1.764585  0  0  -0.827152  0  1.923945  0  0  -0.842835  0  1.894509  0  0  -0.633918  -0.815891  0  1.944808  0
O  O126  1  0.99247898  0.90564783  0.07289370  1  0  -0.889347  0  1.743947  0  0  -0.851055  0  1.916382  0  0  -0.866542  0  1.888278  0  0  -0.65259  -0.840166  0  1.936184  0
O  O127  1  0.00751588  0.09435414  0.92710754  1  0  -0.889227  0  1.744051  0  0  -0.850947  0  1.916517  0  0  -0.866436  0  1.888413  0  0  -0.652571  -0.840044  0  1.936312  0
O  O128  1  0.99653491  0.62961665  0.93286739  1  0  -0.871963  0  1.741146  0  0  -0.831865  0  1.899566  0  0  -0.847634  0  1.871724  0  0  -0.649781  -0.820324  0  1.918479  0
O  O129  1  0.00346544  0.37038531  0.06713268  1  0  -0.871933  0  1.741165  0  0  -0.831836  0  1.899588  0  0  -0.847604  0  1.871745  0  0  -0.649749  -0.820279  0  1.918492  0
O  O130  1  0.10189239  0.40182704  0.57067679  1  0  -0.866866  0  1.810326  0  0  -0.809877  0  1.970252  0  0  -0.829455  0  1.938676  0  0  -0.612376  -0.795851  0  1.992283  0
O  O131  1  0.89810628  0.59816905  0.42932207  1  0  -0.866794  0  1.810426  0  0  -0.809829  0  1.970356  0  0  -0.829403  0  1.938778  0  0  -0.612369  -0.795798  0  1.992389  0
