# generated using pymatgen
data_CoH14(C3N2)6
_symmetry_space_group_name_H-M   'P 1'
_cell_length_a   7.88959098
_cell_length_b   9.02638859
_cell_length_c   12.70644217
_cell_angle_alpha   101.21495653
_cell_angle_beta   89.99960970
_cell_angle_gamma   90.00206734
_symmetry_Int_Tables_number   1
_chemical_formula_structural   CoH14(C3N2)6
_chemical_formula_sum   'Co2 H28 C36 N24'
_cell_volume   887.60383365
_cell_formula_units_Z   2
loop_
 _symmetry_equiv_pos_site_id
 _symmetry_equiv_pos_as_xyz
  1  'x, y, z'
loop_
 _atom_site_type_symbol
 _atom_site_label
 _atom_site_symmetry_multiplicity
 _atom_site_fract_x
 _atom_site_fract_y
 _atom_site_fract_z
 _atom_site_occupancy
 _atom_site_hle17_ddec_charge
 _atom_site_hle17_ddec_spin_density
 _atom_site_hle17_ddec_sum_bond_order
 _atom_site_hle17_magmom
 _atom_site_hse06_10hf_ddec_charge
 _atom_site_hse06_10hf_ddec_spin_density
 _atom_site_hse06_10hf_ddec_sum_bond_order
 _atom_site_hse06_10hf_magmom
 _atom_site_hse06_ddec_charge
 _atom_site_hse06_ddec_spin_density
 _atom_site_hse06_ddec_sum_bond_order
 _atom_site_hse06_magmom
 _atom_site_pbe_cm5_charge
 _atom_site_pbe_ddec_charge
 _atom_site_pbe_ddec_spin_density
 _atom_site_pbe_ddec_sum_bond_order
 _atom_site_pbe_magmom
Co  Co0  1  0.99999883  0.00000380  0.99999916  1  0.798515  -1.156107  2.633777  -0.988  0.801669  -1.039885  3.06514  -0.927  0.85933  -1.049572  2.993824  -0.948  0.734607  0.766649  -1.014171  3.110571  -0.895
Co  Co1  1  0.50000081  0.49999785  0.49999652  1  0.798633  1.156108  2.633614  0.988  0.801777  1.039881  3.064965  0.927  0.859403  1.049567  2.993643  0.948  0.734615  0.766706  1.014163  3.110414  0.895
H  H2  1  0.00108211  0.60919887  0.81675148  1  0.098788  0.000132  0.974016  0.0  0.107211  8.1e-05  1.038729  0.0  0.10886  6.4e-05  1.038861  0.0  0.097237  0.106484  7.5e-05  1.038054  0.0
H  H3  1  0.50108277  0.89080365  0.68324893  1  0.098677  -0.000132  0.973911  0.0  0.10713  -8.1e-05  1.038615  0.0  0.108773  -6.4e-05  1.038751  0.0  0.097214  0.106406  -7.5e-05  1.037936  0.0
H  H4  1  0.99891696  0.39080464  0.18324978  1  0.098694  0.000133  0.973974  0.0  0.107149  8.1e-05  1.038674  0.0  0.108794  6.4e-05  1.03881  0.0  0.097217  0.106423  7.5e-05  1.037999  0.0
H  H5  1  0.49892391  0.10919983  0.31675468  1  0.098688  -0.000132  0.973807  0.0  0.107132  -8.1e-05  1.038535  0.0  0.108754  -6.4e-05  1.038694  0.0  0.097145  0.106403  -7.5e-05  1.037864  0.0
H  H6  1  0.69368269  0.56948315  0.77102854  1  0.07394  -9.5e-05  0.998017  0.0  0.082719  -8.3e-05  1.065933  0.0  0.083784  -6.9e-05  1.066858  0.0  0.089217  0.081732  -9.4e-05  1.065826  0.0
H  H7  1  0.19368847  0.93050728  0.72897783  1  0.073976  9.5e-05  0.998162  0.0  0.082763  8.3e-05  1.066024  0.0  0.083828  6.9e-05  1.066952  0.0  0.089259  0.081794  9.4e-05  1.065882  0.0
H  H8  1  0.30631638  0.43051809  0.22897318  1  0.073964  -9.6e-05  0.997973  0.0  0.082758  -8.3e-05  1.065875  0.0  0.083826  -7e-05  1.066794  0.0  0.08926  0.081771  -9.4e-05  1.065763  0.0
H  H9  1  0.80631948  0.06949613  0.27103129  1  0.074005  9.4e-05  0.998144  0.0  0.082779  8.3e-05  1.066033  0.0  0.083846  6.9e-05  1.066957  0.0  0.089243  0.081803  9.4e-05  1.065906  0.0
H  H10  1  0.54301609  0.34376557  0.80613072  1  0.084741  -1.1e-05  0.971478  0.0  0.095747  -5e-06  1.034423  0.0  0.098127  -6e-06  1.034164  0.0  0.090955  0.094067  -5e-06  1.034572  0.0
H  H11  1  0.04301221  0.15621581  0.69387766  1  0.084673  1.1e-05  0.971321  0.0  0.095673  5e-06  1.034291  0.0  0.098057  6e-06  1.034025  0.0  0.090885  0.093995  5e-06  1.034441  0.0
H  H12  1  0.45698299  0.65623569  0.19387021  1  0.084781  -1e-05  0.971404  0.0  0.095786  -5e-06  1.034358  0.0  0.098166  -6e-06  1.034099  0.0  0.090975  0.094107  -5e-06  1.034506  0.0
H  H13  1  0.95698686  0.84378312  0.30612765  1  0.084707  1.2e-05  0.971397  0.0  0.09571  5e-06  1.034349  0.0  0.098094  6e-06  1.034085  0.0  0.090915  0.094031  5e-06  1.0345  0.0
H  H14  1  0.69127924  0.15035952  0.88553621  1  0.10807  0.000169  0.973326  0.0  0.116987  0.000111  1.035227  0.0  0.119276  9.9e-05  1.034521  0.0  0.100578  0.115567  0.000122  1.035528  0.0
H  H15  1  0.19127774  0.34962211  0.61446518  1  0.108196  -0.000169  0.973356  0.0  0.117149  -0.000111  1.035188  0.0  0.119437  -9.9e-05  1.034483  0.0  0.100654  0.115729  -0.000122  1.035491  0.0
H  H16  1  0.30871856  0.84964061  0.11446455  1  0.108066  0.000168  0.973362  0.0  0.116984  0.000111  1.035258  0.0  0.119272  9.9e-05  1.034553  0.0  0.100582  0.115565  0.000122  1.035559  0.0
H  H17  1  0.80871753  0.65037465  0.38553353  1  0.108187  -0.00017  0.973349  0.0  0.117138  -0.000111  1.035186  0.0  0.119428  -9.9e-05  1.034479  0.0  0.100634  0.115714  -0.000122  1.035496  0.0
H  H18  1  0.27456690  0.46336211  0.90111667  1  0.310989  3.4e-05  0.893682  0.0  0.291104  2.9e-05  0.957209  0.0  0.29799  2.8e-05  0.95245  0.0  0.319758  0.286555  -3.6e-05  0.960275  0.0
H  H19  1  0.77456525  0.03665276  0.59888047  1  0.310979  -3.4e-05  0.893738  0.0  0.290957  -2.8e-05  0.957373  0.0  0.297877  -2.8e-05  0.952584  0.0  0.319734  0.286406  3.6e-05  0.960438  0.0
H  H20  1  0.72543217  0.53663917  0.09888191  1  0.311002  3.4e-05  0.8937  0.0  0.29107  2.9e-05  0.95727  0.0  0.29799  2.8e-05  0.952469  0.0  0.319747  0.286519  -3.6e-05  0.960337  0.0
H  H21  1  0.22543762  0.96334742  0.40111637  1  0.31096  -3.4e-05  0.893768  0.0  0.290907  -2.8e-05  0.957429  0.0  0.297825  -2.8e-05  0.952643  0.0  0.319739  0.286355  3.6e-05  0.960495  0.0
H  H22  1  0.34402642  0.11072098  0.00508569  1  0.347387  0.000136  0.900339  0.0  0.329117  2.4e-05  0.963904  0.0  0.335592  6e-05  0.958297  0.0  0.308993  0.324649  -1e-05  0.967587  0.0
H  H23  1  0.84402780  0.38929120  0.49490649  1  0.34733  -0.000136  0.900406  0.0  0.329058  -2.4e-05  0.963992  0.0  0.335537  -6.1e-05  0.958375  0.0  0.308959  0.324591  1e-05  0.967676  0.0
H  H24  1  0.65597266  0.88928256  0.99491321  1  0.347341  0.000136  0.900342  0.0  0.32907  2.4e-05  0.963916  0.0  0.335545  6.1e-05  0.958309  0.0  0.308972  0.324602  -1e-05  0.967596  0.0
H  H25  1  0.15596747  0.61070899  0.50508956  1  0.347356  -0.000136  0.900386  0.0  0.329078  -2.3e-05  0.963983  0.0  0.335557  -6.1e-05  0.958365  0.0  0.308994  0.324612  1e-05  0.967664  0.0
H  H26  1  0.42802050  0.29340415  0.02200752  1  0.329848  -2.9e-05  0.897103  0.0  0.313397  -3.9e-05  0.962036  0.0  0.319209  -2.8e-05  0.958116  0.0  0.308858  0.309056  -5.1e-05  0.965226  0.0
H  H27  1  0.92801454  0.20660943  0.47799389  1  0.329954  2.9e-05  0.896956  0.0  0.3135  3.9e-05  0.961904  0.0  0.319312  2.8e-05  0.957985  0.0  0.308946  0.30916  5.1e-05  0.965099  0.0
H  H28  1  0.57197731  0.70659598  0.97799325  1  0.329885  -2.9e-05  0.897054  0.0  0.31344  -3.9e-05  0.961971  0.0  0.319251  -2.8e-05  0.958051  0.0  0.3089  0.309099  -5.1e-05  0.965163  0.0
H  H29  1  0.07198200  0.79338957  0.52200592  1  0.329958  2.9e-05  0.896946  0.0  0.31351  3.9e-05  0.961879  0.0  0.319322  2.8e-05  0.957959  0.0  0.308951  0.309172  5.1e-05  0.965073  0.0
C  C30  1  0.19530365  0.26084144  0.95095750  1  0.631915  0.002543  3.794021  0.004  0.580036  0.001219  4.081861  0.002  0.608428  0.000944  4.088214  0.001  0.346032  0.56117  0.001323  4.076717  0.002
C  C31  1  0.69530699  0.23916868  0.54903855  1  0.631832  -0.002542  3.794229  -0.004  0.579946  -0.001219  4.082056  -0.002  0.608343  -0.000944  4.088409  -0.001  0.345985  0.561082  -0.001322  4.076906  -0.002
C  C32  1  0.80469289  0.73915982  0.04904264  1  0.631985  0.002539  3.793926  0.004  0.580103  0.001219  4.081766  0.002  0.608497  0.000945  4.088117  0.001  0.34603  0.56124  0.001322  4.076616  0.002
C  C33  1  0.30469082  0.76083149  0.45095907  1  0.631858  -0.002544  3.79411  -0.004  0.580015  -0.001218  4.081888  -0.002  0.608411  -0.000944  4.088238  -0.001  0.345993  0.561145  -0.001322  4.076739  -0.002
C  C34  1  0.01452058  0.40144284  0.87758479  1  0.162368  0.000756  3.819962  0.001  0.152897  0.00036  4.066867  0.0  0.15736  0.000281  4.088112  0.0  0.090152  0.150318  0.000345  4.052473  0.0
C  C35  1  0.51451237  0.09857043  0.62242520  1  0.16246  -0.000752  3.819939  -0.001  0.152961  -0.000364  4.066844  0.0  0.15743  -0.000282  4.088084  0.0  0.090248  0.150383  -0.000345  4.052451  0.0
C  C36  1  0.98548356  0.59856516  0.12241947  1  0.162438  0.000768  3.819983  0.001  0.152956  0.000359  4.066915  0.0  0.157419  0.000281  4.088165  0.0  0.090215  0.150376  0.000345  4.052524  0.0
C  C37  1  0.48548924  0.90143191  0.37757904  1  0.16246  -0.000739  3.819982  -0.001  0.152943  -0.000361  4.066889  0.0  0.157411  -0.000282  4.088124  0.0  0.090253  0.150368  -0.000345  4.052493  0.0
C  C38  1  0.93366321  0.51020157  0.83172581  1  -0.157039  0.000249  3.760013  0.0  -0.17672  9.6e-05  4.016647  0.0  -0.179584  8e-05  4.037367  0.0  -0.107405  -0.174828  7.7e-05  4.002131  0.0
C  C39  1  0.43366186  0.98979994  0.66827389  1  -0.156834  -0.000253  3.760019  0.0  -0.17656  -9.6e-05  4.016697  0.0  -0.179415  -8e-05  4.037412  0.0  -0.107391  -0.17467  -7.7e-05  4.002179  0.0
C  C40  1  0.06633714  0.48980532  0.16827672  1  -0.156944  0.000232  3.759943  0.0  -0.17666  9.8e-05  4.016617  0.0  -0.179521  8.1e-05  4.037338  0.0  -0.1074  -0.17477  7.7e-05  4.002101  0.0
C  C41  1  0.56634355  0.01020238  0.33173192  1  -0.156869  -0.000271  3.759951  0.0  -0.17659  -9.6e-05  4.016633  0.0  -0.17943  -8e-05  4.037363  0.0  -0.107363  -0.174697  -7.7e-05  4.002115  0.0
C  C42  1  0.76167550  0.48803856  0.80789094  1  -0.078983  -0.00024  3.81549  0.0  -0.099495  -2.4e-05  4.081308  0.0  -0.101357  -4e-05  4.104701  0.0  -0.11457  -0.098819  3.8e-05  4.066243  0.0
C  C43  1  0.26167966  0.01195317  0.69211393  1  -0.0792  0.000244  3.815647  0.0  -0.099731  2.7e-05  4.0815  0.0  -0.101596  4.2e-05  4.104895  0.0  -0.114665  -0.099055  -3.8e-05  4.066447  0.0
C  C44  1  0.23832485  0.51196609  0.19210970  1  -0.078916  -0.000223  3.815371  0.0  -0.099431  -2.6e-05  4.081174  0.0  -0.101293  -4e-05  4.104565  0.0  -0.114537  -0.098751  3.8e-05  4.066104  0.0
C  C45  1  0.73832575  0.98804688  0.30789233  1  -0.079184  0.000263  3.815719  0.0  -0.099682  2.5e-05  4.081523  0.0  -0.101545  4.1e-05  4.10491  0.0  -0.114595  -0.099009  -3.8e-05  4.066464  0.0
C  C46  1  0.67624503  0.36030284  0.82812671  1  -0.09751  0.000241  3.81164  0.0  -0.117186  5.4e-05  4.078416  0.0  -0.118398  3.2e-05  4.099177  0.0  -0.119382  -0.116332  6.5e-05  4.064928  0.0
C  C47  1  0.17625083  0.13969073  0.67187727  1  -0.097324  -0.000244  3.811422  0.0  -0.116989  -5.4e-05  4.078202  0.0  -0.1182  -3.2e-05  4.098963  0.0  -0.119326  -0.116137  -6.5e-05  4.064715  0.0
C  C48  1  0.32375278  0.63970409  0.17187268  1  -0.097603  0.000223  3.811437  0.0  -0.117286  5.5e-05  4.078244  0.0  -0.118497  3.1e-05  4.099001  0.0  -0.119463  -0.116432  6.5e-05  4.064756  0.0
C  C49  1  0.82375459  0.86031158  0.32812932  1  -0.097351  -0.000263  3.811607  0.0  -0.117029  -5.4e-05  4.078402  0.0  -0.118241  -3.1e-05  4.099162  0.0  -0.119329  -0.116174  -6.5e-05  4.064914  0.0
C  C50  1  0.75902504  0.24973099  0.87225690  1  -0.156735  -0.000349  3.766717  -0.001  -0.178348  -1e-05  4.021837  0.0  -0.180985  -6e-06  4.041579  0.0  -0.109003  -0.177155  6.1e-05  4.008807  0.0
C  C51  1  0.25903073  0.25026184  0.62774420  1  -0.157036  0.000353  3.767164  0.001  -0.178694  6e-06  4.022242  0.0  -0.181335  5e-06  4.041986  0.0  -0.109101  -0.177497  -6.1e-05  4.009211  0.0
C  C52  1  0.24097277  0.75027481  0.12774311  1  -0.156814  -0.00033  3.766767  -0.001  -0.178423  -9e-06  4.021897  0.0  -0.181059  -6e-06  4.041637  0.0  -0.109035  -0.17723  6.1e-05  4.008869  0.0
C  C53  1  0.74097088  0.74973828  0.37225656  1  -0.157004  0.000372  3.767171  0.001  -0.178665  8e-06  4.022253  0.0  -0.181304  5e-06  4.041995  0.0  -0.109106  -0.177466  -6.1e-05  4.009221  0.0
C  C54  1  0.93037898  0.27146016  0.89870806  1  0.140693  0.00144  3.803448  0.002  0.143411  0.000682  4.049693  0.001  0.14897  0.000568  4.07294  0.001  0.082896  0.139625  0.000734  4.034282  0.001
C  C55  1  0.43037516  0.22853704  0.60128732  1  0.140811  -0.001443  3.804045  -0.002  0.143564  -0.000679  4.050232  -0.001  0.149127  -0.000568  4.073468  -0.001  0.082954  0.139772  -0.000733  4.034822  -0.001
C  C56  1  0.06962263  0.72854226  0.10129068  1  0.14077  0.001426  3.803709  0.002  0.143464  0.000681  4.049977  0.001  0.149022  0.000568  4.073222  0.001  0.08296  0.139673  0.000733  4.034564  0.001
C  C57  1  0.56962771  0.77146869  0.39871740  1  0.140713  -0.001457  3.804107  -0.002  0.143481  -0.000679  4.05031  -0.001  0.149044  -0.000568  4.073543  -0.001  0.08294  0.139684  -0.000733  4.034902  -0.001
C  C58  1  0.70169922  0.21238225  0.11935696  1  0.469485  -0.009751  3.943631  -0.013  0.439874  -0.01109  4.232249  -0.016  0.463937  -0.009382  4.241096  -0.013  0.299988  0.423195  -0.012754  4.22683  -0.018
C  C59  1  0.20169892  0.28761065  0.38064021  1  0.469653  0.009747  3.944117  0.013  0.440039  0.011086  4.232715  0.016  0.4641  0.009379  4.241552  0.013  0.300095  0.423363  0.012749  4.227294  0.018
C  C60  1  0.29830493  0.78761680  0.88063972  1  0.469534  -0.009754  3.943805  -0.013  0.439922  -0.01109  4.232424  -0.016  0.463985  -0.009381  4.241266  -0.013  0.299963  0.42324  -0.012752  4.227009  -0.018
C  C61  1  0.79831156  0.71237817  0.61935970  1  0.46958  0.009754  3.943706  0.013  0.439996  0.011099  4.232292  0.016  0.464064  0.00939  4.241132  0.014  0.300063  0.423317  0.012763  4.22687  0.018
C  C62  1  0.62115013  0.37616193  0.27344376  1  0.48547  -0.011492  3.920428  -0.014  0.45863  -0.005171  4.202574  -0.006  0.487111  -0.004193  4.208713  -0.005  0.313968  0.438707  -0.005753  4.197624  -0.006
C  C63  1  0.12115094  0.12384199  0.22655462  1  0.485679  0.011492  3.920008  0.014  0.458819  0.005171  4.202188  0.006  0.487301  0.004193  4.208331  0.005  0.314017  0.438893  0.005752  4.19724  0.006
C  C64  1  0.37884768  0.62384153  0.72656143  1  0.485686  -0.011499  3.920093  -0.014  0.458862  -0.005171  4.202218  -0.006  0.487347  -0.004192  4.208358  -0.005  0.314027  0.438934  -0.005753  4.19727  -0.006
C  C65  1  0.87884433  0.87614579  0.77343885  1  0.485527  0.011492  3.920195  0.014  0.458688  0.005171  4.202388  0.006  0.487171  0.004193  4.208529  0.005  0.314049  0.438762  0.005754  4.197445  0.006
N  N66  1  0.18015869  0.39026687  0.91099074  1  -0.442862  0.000381  3.357738  0.0  -0.38316  0.000194  3.591117  0.0  -0.402911  0.000157  3.601893  0.0  -0.389372  -0.370119  0.000202  3.58353  0.0
N  N67  1  0.68015380  0.10974386  0.58900862  1  -0.442822  -0.000381  3.357707  0.0  -0.382942  -0.000194  3.591188  0.0  -0.402737  -0.000157  3.601911  0.0  -0.389273  -0.369892  -0.000202  3.583596  0.0
N  N68  1  0.81984165  0.60973553  0.08900956  1  -0.442968  0.000382  3.357787  0.0  -0.383206  0.000194  3.591199  0.0  -0.402994  0.000157  3.601933  0.0  -0.389371  -0.370165  0.000202  3.583616  0.0
N  N69  1  0.31984781  0.89025963  0.41099421  1  -0.442822  -0.000381  3.3577  0.0  -0.382926  -0.000194  3.591213  0.0  -0.402718  -0.000156  3.601935  0.0  -0.389296  -0.369877  -0.000202  3.583623  0.0
N  N70  1  0.04635780  0.18663572  0.94611866  1  -0.469471  0.011248  3.184969  0.016  -0.440683  0.005085  3.482408  0.008  -0.476772  0.004891  3.498023  0.008  -0.352403  -0.416895  0.004456  3.47137  0.007
N  N71  1  0.54635273  0.31335944  0.55388225  1  -0.469502  -0.011251  3.185272  -0.016  -0.440687  -0.005084  3.48265  -0.008  -0.476783  -0.00489  3.498288  -0.008  -0.352405  -0.416889  -0.004456  3.471611  -0.007
N  N72  1  0.95364508  0.81336104  0.05388004  1  -0.469522  0.011254  3.184908  0.016  -0.440713  0.005086  3.482335  0.008  -0.476804  0.00489  3.497956  0.008  -0.352443  -0.416924  0.004457  3.471302  0.007
N  N73  1  0.45364635  0.68664069  0.44611851  1  -0.469485  -0.011251  3.185127  -0.016  -0.440688  -0.005086  3.482469  -0.008  -0.476806  -0.004891  3.498155  -0.008  -0.352445  -0.416895  -0.004457  3.471453  -0.007
N  N74  1  0.34354470  0.21515732  0.98609959  1  -0.703051  0.000209  3.099256  0.0  -0.670557  8.4e-05  3.337077  0.0  -0.690305  8.7e-05  3.333297  0.0  -0.579202  -0.656351  3e-05  3.339166  0.0
N  N75  1  0.84353885  0.28485862  0.51389579  1  -0.70309  -0.00021  3.099338  0.0  -0.670621  -8.4e-05  3.33715  0.0  -0.69037  -8.7e-05  3.333371  0.0  -0.579295  -0.656417  -3.1e-05  3.339242  0.0
N  N76  1  0.65645311  0.78484509  0.01389915  1  -0.703088  0.00021  3.099192  0.0  -0.670605  8.4e-05  3.337015  0.0  -0.690353  8.7e-05  3.333231  0.0  -0.579246  -0.656401  3.1e-05  3.339103  0.0
N  N77  1  0.15645896  0.71514269  0.48610043  1  -0.703107  -0.00021  3.099378  0.0  -0.670652  -8.4e-05  3.337171  0.0  -0.690399  -8.6e-05  3.333391  0.0  -0.579292  -0.65645  -3e-05  3.339264  0.0
N  N78  1  0.74621406  0.09942423  0.06292840  1  -0.542489  -0.018529  2.839317  -0.025  -0.521106  -0.017389  3.111503  -0.021  -0.538824  -0.013574  3.114125  -0.016  -0.348506  -0.509341  -0.021329  3.110061  -0.026
N  N79  1  0.24620518  0.40055877  0.43706869  1  -0.542603  0.018523  2.839976  0.025  -0.521227  0.017389  3.112142  0.021  -0.538935  0.013572  3.114756  0.016  -0.348641  -0.509461  0.021327  3.110701  0.026
N  N80  1  0.25379516  0.90057596  0.93706765  1  -0.54246  -0.01852  2.839358  -0.025  -0.521064  -0.017386  3.111518  -0.021  -0.538778  -0.013572  3.114138  -0.016  -0.34843  -0.509302  -0.021326  3.110081  -0.026
N  N81  1  0.75378756  0.59941209  0.56292076  1  -0.542728  0.018531  2.839268  0.025  -0.521365  0.017383  3.111492  0.021  -0.539082  0.013566  3.114109  0.016  -0.348623  -0.509591  0.021326  3.110048  0.026
N  N82  1  0.65258887  0.34455256  0.17077540  1  -0.477769  -0.005349  3.272962  -0.007  -0.425532  -0.004269  3.535212  -0.005  -0.44667  -0.003206  3.534075  -0.004  -0.312309  -0.410654  -0.005542  3.536061  -0.007
N  N83  1  0.15258872  0.15542865  0.32921875  1  -0.477914  0.005348  3.272792  0.007  -0.425636  0.004268  3.534993  0.005  -0.44677  0.003211  3.533848  0.004  -0.312288  -0.41076  0.005539  3.535845  0.007
N  N84  1  0.34741147  0.65544878  0.82921925  1  -0.47794  -0.005347  3.27334  -0.007  -0.425721  -0.004269  3.535619  -0.005  -0.446853  -0.003209  3.53446  -0.004  -0.312388  -0.410842  -0.005539  3.536473  -0.007
N  N85  1  0.84741162  0.84454671  0.67077214  1  -0.477722  0.005351  3.273292  0.007  -0.425531  0.004271  3.535577  0.005  -0.446664  0.003213  3.53443  0.004  -0.312347  -0.410658  0.005543  3.536431  0.007
N  N86  1  0.58956592  0.41918037  0.36458214  1  -0.517004  0.00042  3.160159  0.002  -0.499136  -0.002218  3.472928  -0.004  -0.522449  -0.001791  3.47234  -0.004  -0.3838  -0.483909  -0.002532  3.471715  -0.004
N  N87  1  0.08956331  0.08082489  0.13541029  1  -0.517207  -0.000423  3.159904  -0.002  -0.499329  0.002216  3.472691  0.004  -0.522658  0.001786  3.472113  0.004  -0.383897  -0.484107  0.00253  3.471479  0.004
N  N88  1  0.41043443  0.58082099  0.63541093  1  -0.517192  0.000426  3.159601  0.002  -0.499334  -0.002218  3.472375  -0.004  -0.522656  -0.00179  3.471796  -0.004  -0.383829  -0.484101  -0.002533  3.471157  -0.004
N  N89  1  0.91043196  0.91917648  0.86458200  1  -0.517047  -0.000418  3.159797  -0.002  -0.499166  0.002221  3.472579  0.004  -0.52249  0.001791  3.471999  0.004  -0.3838  -0.483948  0.002535  3.471371  0.004
