# generated using pymatgen
data_CuH8C16S2N2(ClF2)2
_symmetry_space_group_name_H-M   'P 1'
_cell_length_a   7.62128547
_cell_length_b   8.25512304
_cell_length_c   10.55872628
_cell_angle_alpha   87.47466125
_cell_angle_beta   117.34301535
_cell_angle_gamma   104.82242047
_symmetry_Int_Tables_number   1
_chemical_formula_structural   CuH8C16S2N2(ClF2)2
_chemical_formula_sum   'Cu1 H8 C16 S2 N2 Cl2 F4'
_cell_volume   568.35224389
_cell_formula_units_Z   1
loop_
 _symmetry_equiv_pos_site_id
 _symmetry_equiv_pos_as_xyz
  1  'x, y, z'
loop_
 _atom_site_type_symbol
 _atom_site_label
 _atom_site_symmetry_multiplicity
 _atom_site_fract_x
 _atom_site_fract_y
 _atom_site_fract_z
 _atom_site_occupancy
 _atom_site_hle17_ddec_charge
 _atom_site_hle17_ddec_spin_density
 _atom_site_hle17_ddec_sum_bond_order
 _atom_site_hle17_magmom
 _atom_site_hse06_10hf_ddec_charge
 _atom_site_hse06_10hf_ddec_spin_density
 _atom_site_hse06_10hf_ddec_sum_bond_order
 _atom_site_hse06_10hf_magmom
 _atom_site_hse06_ddec_charge
 _atom_site_hse06_ddec_spin_density
 _atom_site_hse06_ddec_sum_bond_order
 _atom_site_hse06_magmom
 _atom_site_pbe_cm5_charge
 _atom_site_pbe_ddec_charge
 _atom_site_pbe_ddec_spin_density
 _atom_site_pbe_ddec_sum_bond_order
 _atom_site_pbe_magmom
Cu  Cu0  1  0.99997996  0.99999977  0.99998449  1  0.678382  -0.607984  2.045649  -0.425  0.642698  -0.700688  2.48067  -0.532  0.725911  -0.767473  2.405081  -0.609  0.59012  0.597929  -0.659375  2.526985  -0.488
H  H1  1  0.59222589  0.05398939  0.90812784  1  0.085266  -0.001105  0.919999  -0.002  0.092926  -0.001007  0.983452  -0.001  0.094657  -0.000709  0.981794  -0.001  0.120518  0.09134  -0.001247  0.985095  -0.002
H  H2  1  0.40773036  0.94606039  0.09181454  1  0.085422  -0.001106  0.920429  -0.002  0.093044  -0.001006  0.983891  -0.001  0.094766  -0.000708  0.982236  -0.001  0.120591  0.091464  -0.001246  0.985531  -0.002
H  H3  1  0.45032620  0.25551091  0.97686122  1  0.104298  -0.000231  0.999439  0.0  0.108625  -0.000396  1.073344  -0.001  0.111827  -0.000282  1.072617  0.0  0.089929  0.1063  -0.0005  1.074074  -0.001
H  H4  1  0.54965042  0.74453372  0.02311893  1  0.104525  -0.00023  0.999609  0.0  0.10886  -0.000396  1.07342  -0.001  0.11206  -0.000281  1.072697  0.0  0.089975  0.106535  -0.0005  1.074151  -0.001
H  H5  1  0.70184269  0.51148650  0.14822153  1  0.099681  -0.00063  0.958459  -0.001  0.108273  -0.000433  1.021859  0.0  0.111262  -0.000298  1.01918  0.0  0.098829  0.106116  -0.000549  1.023823  0.0
H  H6  1  0.29818736  0.48852838  0.85177795  1  0.099456  -0.000633  0.958583  -0.001  0.10814  -0.000433  1.02191  0.0  0.111134  -0.000298  1.019225  0.0  0.098757  0.105978  -0.000549  1.023869  0.0
H  H7  1  0.07306219  0.55096577  0.23758651  1  0.12132  -0.000685  0.944531  -0.001  0.131446  -0.000862  1.001904  -0.001  0.134706  -0.000645  1.001073  -0.001  0.103757  0.129108  -0.001033  1.002606  -0.001
H  H8  1  0.92695687  0.44899998  0.76243430  1  0.121247  -0.000685  0.944509  -0.001  0.131457  -0.000862  1.001825  -0.001  0.134715  -0.000645  1.000995  -0.001  0.103764  0.129131  -0.001033  1.00251  -0.001
C  C9  1  0.69299170  0.16378146  0.98328042  1  0.147248  0.011985  3.666222  0.009  0.115497  0.002547  3.921519  0.002  0.124519  0.004496  3.939482  0.003  0.050705  0.109779  0.001034  3.909886  0.001
C  C10  1  0.30701825  0.83627060  0.01669697  1  0.147216  0.011986  3.666846  0.009  0.115452  0.002541  3.922145  0.002  0.124479  0.004495  3.940095  0.003  0.050686  0.109734  0.00103  3.910518  0.001
C  C11  1  0.61598414  0.27720333  0.02225038  1  -0.125312  -0.010353  3.730334  -0.01  -0.142956  -0.004158  3.987725  -0.005  -0.149783  -0.003915  4.008039  -0.004  -0.090866  -0.13855  -0.004251  3.973995  -0.005
C  C12  1  0.38402763  0.72286254  0.97773707  1  -0.125859  -0.01035  3.730577  -0.01  -0.143449  -0.004155  3.987934  -0.005  -0.150276  -0.003918  4.008244  -0.004  -0.091044  -0.139039  -0.004251  3.974207  -0.005
C  C13  1  0.75452186  0.41668408  0.11707684  1  0.008474  0.012807  3.710272  0.009  -0.009063  0.003623  3.959081  0.002  -0.004186  0.004743  3.975591  0.003  -0.068778  -0.012099  0.002592  3.947763  0.002
C  C14  1  0.24551811  0.58335521  0.88291366  1  0.008812  0.012813  3.709683  0.009  -0.008771  0.003625  3.958422  0.002  -0.003898  0.004743  3.974934  0.003  -0.068675  -0.011801  0.002593  3.947093  0.002
C  C15  1  0.96381140  0.43880072  0.16901105  1  -0.141366  -0.009962  3.701548  -0.01  -0.16037  -0.003927  3.945065  -0.004  -0.167814  -0.003714  3.965236  -0.004  -0.086479  -0.155419  -0.003948  3.931344  -0.004
C  C16  1  0.03620933  0.56119882  0.83097907  1  -0.141269  -0.00996  3.701203  -0.01  -0.160426  -0.003931  3.944794  -0.004  -0.167864  -0.003712  3.964969  -0.004  -0.086497  -0.155489  -0.003949  3.931062  -0.004
C  C17  1  0.02886392  0.31654306  0.12746543  1  0.197  0.01034  3.744878  0.008  0.201581  0.001934  4.006238  0.002  0.211457  0.003984  4.027403  0.003  0.120968  0.195087  0.000288  3.99243  0.001
C  C18  1  0.97114694  0.68346131  0.87253378  1  0.196871  0.010335  3.744816  0.008  0.201529  0.001939  4.00611  0.002  0.211394  0.003987  4.027306  0.003  0.121002  0.195028  0.000291  3.99231  0.001
C  C19  1  0.40266813  0.42438942  0.35735719  1  -0.141319  0.000446  3.83391  0.0  -0.137307  0.000294  4.114607  0.0  -0.138853  0.000384  4.134069  0.0  -0.025761  -0.136228  0.000128  4.101634  0.0
C  C20  1  0.59730512  0.57552678  0.64264854  1  -0.141461  0.000454  3.834562  0.0  -0.137502  0.000296  4.115454  0.0  -0.139054  0.000381  4.134948  0.0  -0.025787  -0.13641  0.000128  4.102447  0.0
C  C21  1  0.55661743  0.57656745  0.40018417  1  0.183602  -9e-05  3.791594  0.0  0.154075  -8.5e-05  4.084547  0.0  0.162708  0.0  4.093426  0.0  0.090921  0.147838  -0.000177  4.078951  0.0
C  C22  1  0.44340288  0.42338654  0.59986487  1  0.184014  -8.9e-05  3.792719  0.0  0.154427  -8.5e-05  4.085702  0.0  0.163056  1e-06  4.094582  0.0  0.091116  0.148191  -0.000176  4.080099  0.0
C  C23  1  0.34867183  0.34870472  0.46066672  1  0.188127  -0.000129  3.806466  0.0  0.156479  -0.000107  4.102394  0.0  0.164987  -2.7e-05  4.112164  0.0  0.092788  0.150322  -0.000185  4.09618  0.0
C  C24  1  0.65135203  0.65125536  0.53939329  1  0.188183  -0.000126  3.807312  0.0  0.156433  -0.000106  4.103428  0.0  0.164941  -2.6e-05  4.113201  0.0  0.092629  0.150271  -0.000185  4.097219  0.0
S  S25  1  0.28978907  0.32984630  0.18197347  1  0.052821  0.00015  2.481903  -0.003  0.025865  -0.000257  2.82644  -0.003  0.023186  0.000781  2.823552  -0.002  0.054128  0.026904  -0.001223  2.829465  -0.003
S  S26  1  0.71020713  0.67009657  0.81806147  1  0.052835  0.000142  2.481354  -0.003  0.025915  -0.000258  2.825882  -0.003  0.023235  0.000781  2.823013  -0.002  0.05415  0.026951  -0.001225  2.828895  -0.003
N  N27  1  0.10459160  0.81858530  0.96256613  1  -0.315533  -0.081617  3.393726  -0.102  -0.256507  -0.060021  3.666472  -0.079  -0.286566  -0.051666  3.68985  -0.073  -0.351264  -0.239097  -0.064368  3.652671  -0.081
N  N28  1  0.89541172  0.18143850  0.03741226  1  -0.315714  -0.081599  3.393652  -0.102  -0.256635  -0.060011  3.666348  -0.079  -0.286699  -0.051658  3.68972  -0.073  -0.351271  -0.239228  -0.064359  3.652549  -0.081
Cl  Cl29  1  0.05862191  0.14412441  0.83035688  1  -0.521155  -0.126297  0.896619  -0.147  -0.518674  -0.085954  1.150314  -0.106  -0.547921  -0.06875  1.127675  -0.091  -0.34079  -0.500821  -0.095863  1.165705  -0.112
Cl  Cl30  1  0.94135209  0.85587245  0.16961924  1  -0.521146  -0.126302  0.896617  -0.147  -0.518675  -0.085951  1.150294  -0.106  -0.547925  -0.068746  1.127658  -0.091  -0.340757  -0.500813  -0.095855  1.165681  -0.112
F  F31  1  0.38626871  0.34405244  0.69490705  1  -0.145893  -0.000715  1.262394  0.0  -0.098541  -0.000851  1.430592  0.0  -0.106868  -0.000675  1.420851  0.0  -0.076392  -0.092394  -0.000983  1.43728  0.0
F  F32  1  0.61371821  0.65593647  0.30509026  1  -0.146007  -0.000715  1.261654  0.0  -0.098657  -0.00085  1.429779  0.0  -0.106987  -0.000674  1.420041  0.0  -0.076444  -0.092502  -0.000983  1.436468  0.0
F  F33  1  0.20381551  0.20170923  0.42615412  1  -0.136408  6.8e-05  1.244491  0.0  -0.092632  -4e-06  1.40417  0.0  -0.100192  2.3e-05  1.394659  0.0  -0.077309  -0.087097  -3.6e-05  1.410759  0.0
F  F34  1  0.79614259  0.79826951  0.57386517  1  -0.136358  7e-05  1.244783  0.0  -0.092555  -5e-06  1.404502  0.0  -0.100115  2.2e-05  1.394992  0.0  -0.077218  -0.087019  -3.5e-05  1.411094  0.0
