# generated using pymatgen
data_TbH13C19O8
_symmetry_space_group_name_H-M   'P 1'
_cell_length_a   13.50936574
_cell_length_b   13.82247252
_cell_length_c   16.03454974
_cell_angle_alpha   115.52735076
_cell_angle_beta   98.42267658
_cell_angle_gamma   89.98230470
_symmetry_Int_Tables_number   1
_chemical_formula_structural   TbH13C19O8
_chemical_formula_sum   'Tb4 H52 C76 O32'
_cell_volume   2666.11774405
_cell_formula_units_Z   4
loop_
 _symmetry_equiv_pos_site_id
 _symmetry_equiv_pos_as_xyz
  1  'x, y, z'
loop_
 _atom_site_type_symbol
 _atom_site_label
 _atom_site_symmetry_multiplicity
 _atom_site_fract_x
 _atom_site_fract_y
 _atom_site_fract_z
 _atom_site_occupancy
 _atom_site_pbe_bader_charge
 _atom_site_pbe_bader_spin_density
 _atom_site_pbe_cm5_charge
 _atom_site_pbe_ddec_charge
 _atom_site_pbe_ddec_spin_density
 _atom_site_pbe_ddec_sum_bond_order
 _atom_site_pbe_magmom
Tb  Tb0  1  0.54013622  0.01634326  0.62771562  1  2.159994  0  1.501829  2.049265  0  2.164638  0
Tb  Tb1  1  0.95970199  0.38893213  0.37245848  1  2.162967  0  1.502061  2.060925  0  2.141041  0
Tb  Tb2  1  0.45988439  0.98366137  0.37228252  1  2.160191  0  1.501735  2.049436  0  2.164272  0
Tb  Tb3  1  0.04029031  0.61106072  0.62753041  1  2.163088  0  1.50215  2.060981  0  2.141179  0
H  H4  1  0.29860274  0.72147330  0.53999327  1  0.119058  0  0.113068  0.123797  0  0.997269  0
H  H5  1  0.20173951  0.18097183  0.45976141  1  0.117943  0  0.11316  0.123763  0  0.996582  0
H  H6  1  0.70141258  0.27854747  0.46000795  1  0.119015  0  0.113109  0.123906  0  0.997168  0
H  H7  1  0.79826649  0.81904198  0.54023932  1  0.117943  0  0.113098  0.123641  0  0.99666  0
H  H8  1  0.42927084  0.69849978  0.30324175  1  0.125018  0  0.1133  0.128387  0  1.02804  0
H  H9  1  0.07108990  0.39508249  0.69644373  1  0.115636  0  0.113005  0.127079  0  1.030375  0
H  H10  1  0.57073923  0.30151471  0.69676441  1  0.124882  0  0.11323  0.128289  0  1.028061  0
H  H11  1  0.92890657  0.60491755  0.30356885  1  0.115536  0  0.112983  0.12702  0  1.030417  0
H  H12  1  0.21377432  0.44984790  0.27341015  1  0.115423  0  0.109693  0.114099  0  1.020383  0
H  H13  1  0.28579306  0.17538170  0.72621490  1  0.102174  0  0.109671  0.114042  0  1.020167  0
H  H14  1  0.78623756  0.55015569  0.72661231  1  0.115235  0  0.109684  0.114108  0  1.020288  0
H  H15  1  0.71419638  0.82458864  0.27376623  1  0.102353  0  0.109669  0.114054  0  1.020104  0
H  H16  1  0.35447655  0.63440043  0.14343741  1  0.072594  0  0.101297  0.10827  0  1.011018  0
H  H17  1  0.14512515  0.49045475  0.85621973  1  0.078746  0  0.101699  0.109597  0  1.011224  0
H  H18  1  0.64549860  0.36559116  0.85655098  1  0.072438  0  0.101298  0.108289  0  1.010944  0
H  H19  1  0.85488990  0.50953593  0.14377188  1  0.078612  0  0.101708  0.109631  0  1.011161  0
H  H20  1  0.39572752  0.52385699  0.98648151  1  0.059339  0  0.103636  0.106342  0  0.998954  0
H  H21  1  0.10403202  0.53707820  0.01326578  1  0.068114  0  0.103516  0.105517  0  0.998372  0
H  H22  1  0.60424927  0.47612766  0.01351358  1  0.059256  0  0.103633  0.106269  0  0.998953  0
H  H23  1  0.89597250  0.46291173  0.98672426  1  0.068333  0  0.103511  0.105551  0  0.998337  0
H  H24  1  0.44699156  0.34895782  0.87100222  1  0.086891  0  0.105919  0.111778  0  1.012147  0
H  H25  1  0.05261018  0.47798757  0.12887958  1  0.107261  0  0.106094  0.111658  0  1.012674  0
H  H26  1  0.55298941  0.65103907  0.12897789  1  0.086779  0  0.105989  0.111773  0  1.012328  0
H  H27  1  0.94738621  0.52203104  0.87111629  1  0.107404  0  0.105984  0.111526  0  1.012826  0
H  H28  1  0.43557508  0.07017025  0.92365818  1  0.092463  0  0.101825  0.108948  0  1.00384  0
H  H29  1  0.06330213  0.14655769  0.07629825  1  0.078557  0  0.10168  0.108171  0  1.004268  0
H  H30  1  0.56444620  0.92983054  0.07633541  1  0.092139  0  0.10189  0.109049  0  1.003905  0
H  H31  1  0.93666165  0.85345034  0.92370300  1  0.078288  0  0.101687  0.108231  0  1.004319  0
H  H32  1  0.37065501  0.17636625  0.07304760  1  0.043684  0  0.100579  0.10121  0  0.997097  0
H  H33  1  0.12800979  0.10290605  0.92677705  1  0.072112  0  0.100528  0.101304  0  0.997743  0
H  H34  1  0.62937481  0.82362254  0.92696124  1  0.043341  0  0.100615  0.101217  0  0.997191  0
H  H35  1  0.87194174  0.89706668  0.07320945  1  0.071767  0  0.100481  0.101279  0  0.997835  0
H  H36  1  0.33480385  0.35214851  0.19272696  1  0.065917  0  0.104737  0.109437  0  1.002176  0
H  H37  1  0.16441134  0.15888351  0.80717195  1  0.076175  0  0.104245  0.108835  0  1.002494  0
H  H38  1  0.66522093  0.64783328  0.80727818  1  0.066138  0  0.104707  0.109404  0  1.002359  0
H  H39  1  0.83557195  0.84112194  0.19283874  1  0.076109  0  0.10424  0.108806  0  1.002391  0
H  H40  1  0.71453114  0.93304670  0.72131118  1  0.643031  0  0.340791  0.425772  0  0.850538  0
H  H41  1  0.78531885  0.21189079  0.27910752  1  0.640182  0  0.341147  0.426304  0  0.84991  0
H  H42  1  0.28546729  0.06695723  0.27867905  1  0.642979  0  0.340777  0.425789  0  0.850512  0
H  H43  1  0.21469794  0.78811129  0.72090872  1  0.639876  0  0.341077  0.426116  0  0.85014  0
H  H44  1  0.61245433  0.94658185  0.76023596  1  0.650928  0  0.32077  0.409631  0  0.894736  0
H  H45  1  0.88705699  0.18662741  0.23959127  1  0.620031  0  0.32068  0.409607  0  0.894873  0
H  H46  1  0.38754819  0.05341345  0.23976250  1  0.650879  0  0.320757  0.40965  0  0.894709  0
H  H47  1  0.11296599  0.81337719  0.76041952  1  0.619727  0  0.320684  0.409631  0  0.894885  0
H  H48  1  0.73995815  0.07979294  0.64261866  1  0.641736  0  0.320472  0.410556  0  0.891823  0
H  H49  1  0.75990478  0.43721522  0.35762281  1  0.606098  0  0.320036  0.409862  0  0.892616  0
H  H50  1  0.26003958  0.92020602  0.35737861  1  0.641724  0  0.320523  0.410625  0  0.8917  0
H  H51  1  0.24011751  0.56278757  0.64239811  1  0.60625  0  0.320016  0.409877  0  0.892533  0
H  H52  1  0.70851683  0.19285766  0.70990019  1  0.619901  0  0.320536  0.405213  0  0.896817  0
H  H53  1  0.79159523  0.48332860  0.29060964  1  0.615933  0  0.320694  0.406011  0  0.89616  0
H  H54  1  0.29147704  0.80714057  0.29009476  1  0.619842  0  0.320615  0.405347  0  0.896638  0
H  H55  1  0.20839890  0.51666154  0.70939246  1  0.615656  0  0.320775  0.406075  0  0.89613  0
C  C56  1  0.24811947  0.58159451  0.41010622  1  -0.023755  0  -0.014896  -0.034471  0  3.97276  0
C  C57  1  0.25186771  0.17091981  0.58962978  1  -0.000442  0  -0.014874  -0.035412  0  3.973574  0
C  C58  1  0.75187564  0.41842011  0.58990001  1  -0.02364  0  -0.014845  -0.034319  0  3.972629  0
C  C59  1  0.74813190  0.82906910  0.41036401  1  -0.001078  0  -0.014848  -0.035391  0  3.973492  0
C  C60  1  0.30446121  0.67853757  0.46612430  1  -0.034223  0  -0.069877  -0.094888  0  3.91992  0
C  C61  1  0.19579549  0.21204221  0.53361296  1  -0.03162  0  -0.070106  -0.094525  0  3.920225  0
C  C62  1  0.69554378  0.32147860  0.53387476  1  -0.034288  0  -0.070045  -0.095216  0  3.919985  0
C  C63  1  0.80420968  0.78796255  0.46638922  1  -0.031969  0  -0.070077  -0.094418  0  3.9203  0
C  C64  1  0.36808088  0.72085529  0.42694039  1  -0.019386  0  -0.016259  -0.034489  0  4.000128  0
C  C65  1  0.13219167  0.29359399  0.57270356  1  -0.038332  0  -0.016235  -0.034585  0  4.000042  0
C  C66  1  0.63193519  0.27915120  0.57305875  1  -0.020015  0  -0.016153  -0.034172  0  4.000028  0
C  C67  1  0.86781324  0.70641385  0.42729765  1  -0.037626  0  -0.016108  -0.034454  0  3.999861  0
C  C68  1  0.37658264  0.66594024  0.33186147  1  0.013018  0  -0.079165  -0.160361  0  3.910493  0
C  C69  1  0.12358061  0.33367254  0.66777621  1  -0.034606  0  -0.07886  -0.158839  0  3.911868  0
C  C70  1  0.62343410  0.33405738  0.66813931  1  0.013514  0  -0.079141  -0.160419  0  3.910599  0
C  C71  1  0.87642532  0.66633421  0.33222792  1  -0.034653  0  -0.07894  -0.158807  0  3.912028  0
C  C72  1  0.32347731  0.56573396  0.27583850  1  -0.040052  0  -0.005977  0.065781  0  4.013381  0
C  C73  1  0.17632818  0.28924484  0.72385048  1  -0.049713  0  -0.005489  0.065906  0  4.011098  0
C  C74  1  0.67654500  0.43425886  0.72417346  1  -0.041403  0  -0.006004  0.065776  0  4.013383  0
C  C75  1  0.82367887  0.71075921  0.27615656  1  -0.049201  0  -0.00553  0.065926  0  4.01146  0
C  C76  1  0.25810452  0.52562117  0.31577116  1  -0.100423  0  -0.069118  -0.114883  0  3.889863  0
C  C77  1  0.24163501  0.20904232  0.68391673  1  -0.034337  0  -0.069239  -0.114655  0  3.889383  0
C  C78  1  0.74191364  0.47437954  0.68424215  1  -0.100205  0  -0.068999  -0.114817  0  3.889457  0
C  C79  1  0.75837319  0.79095851  0.31608241  1  -0.034549  0  -0.069223  -0.114695  0  3.889413  0
C  C80  1  0.17645353  0.53818172  0.45070747  1  1.586712  0  0.235268  0.653602  0  4.144749  0
C  C81  1  0.32348312  0.08688045  0.54890421  1  1.588465  0  0.236182  0.655381  0  4.142129  0
C  C82  1  0.82353722  0.46182018  0.54929979  1  1.586436  0  0.235215  0.653506  0  4.144826  0
C  C83  1  0.67652561  0.91312053  0.45109190  1  1.588372  0  0.236243  0.655631  0  4.141465  0
C  C84  1  0.43002733  0.82196392  0.48995544  1  1.545538  0  0.218258  0.627935  0  4.169436  0
C  C85  1  0.07025098  0.33165662  0.50958522  1  1.55768  0  0.217997  0.628119  0  4.167491  0
C  C86  1  0.56999001  0.17805151  0.51004849  1  1.545754  0  0.218267  0.627969  0  4.169551  0
C  C87  1  0.92975384  0.66836283  0.49043609  1  1.556096  0  0.218003  0.628188  0  4.166879  0
C  C88  1  0.34168409  0.50010819  0.17919288  1  0.012656  0  -0.008609  0.071167  0  4.017336  0
C  C89  1  0.15784715  0.32035422  0.82051283  1  -0.019475  0  -0.008059  0.071512  0  4.01306  0
C  C90  1  0.65831858  0.49989373  0.82081363  1  0.013767  0  -0.008619  0.07107  0  4.017434  0
C  C91  1  0.84213382  0.67964703  0.17949295  1  -0.020055  0  -0.008048  0.071258  0  4.013294  0
C  C92  1  0.35906686  0.54796053  0.11940390  1  -0.089024  0  -0.090538  -0.130689  0  3.981049  0
C  C93  1  0.14060188  0.42808045  0.88030563  1  -0.078745  0  -0.091873  -0.133973  0  3.981367  0
C  C94  1  0.64091531  0.45203574  0.88059306  1  -0.088843  0  -0.090598  -0.13078  0  3.980971  0
C  C95  1  0.85939148  0.57191954  0.11969421  1  -0.078307  0  -0.091847  -0.133865  0  3.981221  0
C  C96  1  0.38292373  0.48658686  0.03198803  1  0.024949  0  -0.084324  -0.118735  0  3.996964  0
C  C97  1  0.11680166  0.45424349  0.96778263  1  0.004042  0  -0.084417  -0.117526  0  3.993473  0
C  C98  1  0.61706420  0.51340388  0.96801147  1  0.024659  0  -0.084326  -0.118686  0  3.996774  0
C  C99  1  0.88319412  0.54575038  0.03221441  1  0.003586  0  -0.084306  -0.117422  0  3.993328  0
C  C100  1  0.39469326  0.37489830  0.00049915  1  -0.048893  0  -0.007714  0.065594  0  4.003625  0
C  C101  1  0.10483774  0.37414594  0.99934188  1  0.055832  0  -0.007673  0.06756  0  3.998919  0
C  C102  1  0.60531413  0.62509475  0.99950267  1  -0.04919  0  -0.007825  0.06559  0  4.003454  0
C  C103  1  0.89515183  0.62585788  0.00066091  1  0.055988  0  -0.007761  0.067382  0  3.999091  0
C  C104  1  0.43007920  0.31217095  0.91574507  1  -0.04321  0  -0.074012  -0.130309  0  3.92681  0
C  C105  1  0.06947804  0.39640140  0.08415983  1  -0.075775  0  -0.074231  -0.130941  0  3.92708  0
C  C106  1  0.56992113  0.68782672  0.08424539  1  -0.042759  0  -0.074005  -0.130256  0  3.926993  0
C  C107  1  0.93051777  0.60361316  0.91584556  1  -0.076009  0  -0.074134  -0.130658  0  3.92742  0
C  C108  1  0.44688281  0.20497886  0.89011188  1  0.005357  0  -0.022743  -0.034472  0  3.993654  0
C  C109  1  0.05246480  0.31496886  0.10987259  1  -0.007837  0  -0.022889  -0.036852  0  3.993545  0
C  C110  1  0.55310355  0.79501529  0.10986795  1  0.00537  0  -0.022729  -0.03433  0  3.99364  0
C  C111  1  0.94751413  0.68503578  0.89011748  1  -0.009633  0  -0.022908  -0.037021  0  3.99412  0
C  C112  1  0.42349144  0.15517967  0.94672694  1  -0.151971  0  -0.091221  -0.105201  0  4.007891  0
C  C113  1  0.07562527  0.20843565  0.05326043  1  -0.013047  0  -0.091086  -0.103146  0  4.006281  0
C  C114  1  0.57652001  0.84482031  0.05326423  1  -0.151483  0  -0.091387  -0.105611  0  4.008235  0
C  C115  1  0.92433450  0.79155997  0.94672550  1  -0.011358  0  -0.09102  -0.10307  0  4.006712  0
C  C116  1  0.38800829  0.21400332  0.02895813  1  0.038341  0  -0.091495  -0.13601  0  4.01036  0
C  C117  1  0.11095191  0.18476313  0.97090796  1  -0.089932  0  -0.091506  -0.13677  0  4.009956  0
C  C118  1  0.61202265  0.78598779  0.97104744  1  0.038532  0  -0.091448  -0.13583  0  4.010482  0
C  C119  1  0.88901102  0.81521765  0.02907773  1  -0.088973  0  -0.091503  -0.13681  0  4.010587  0
C  C120  1  0.37498031  0.32548057  0.05938645  1  -0.00157  0  -0.003695  0.087221  0  4.009383  0
C  C121  1  0.12425845  0.26575464  0.94044230  1  -0.055093  0  -0.003661  0.087125  0  4.005817  0
C  C122  1  0.62502958  0.67451031  0.94061722  1  -0.001457  0  -0.003678  0.087268  0  4.009345  0
C  C123  1  0.87571725  0.73423713  0.05955420  1  -0.05521  0  -0.003713  0.087053  0  4.006318  0
C  C124  1  0.34724789  0.38988841  0.14738081  1  -0.049506  0  -0.085648  -0.178714  0  3.933916  0
C  C125  1  0.15208305  0.24204827  0.85244576  1  -0.09026  0  -0.085089  -0.178116  0  3.932194  0
C  C126  1  0.65275342  0.61010870  0.85262338  1  -0.049856  0  -0.085586  -0.17856  0  3.934373  0
C  C127  1  0.84788637  0.75795014  0.14755246  1  -0.089761  0  -0.085041  -0.177954  0  3.931894  0
C  C128  1  0.49139331  0.14199527  0.80447889  1  1.530575  0  0.189554  0.574832  0  4.233427  0
C  C129  1  0.00801728  0.33797179  0.19560771  1  1.536546  0  0.189984  0.57669  0  4.232792  0
C  C130  1  0.50858432  0.85798783  0.19550516  1  1.531298  0  0.189456  0.574458  0  4.233787  0
C  C131  1  0.99197593  0.66203408  0.80439552  1  1.536517  0  0.189903  0.576588  0  4.233191  0
O  O132  1  0.12583340  0.45086403  0.39657127  1  -1.186131  0  -0.392298  -0.645826  0  2.310495  0
O  O133  1  0.37393323  0.05329504  0.60284768  1  -1.193065  0  -0.39317  -0.645155  0  2.311778  0
O  O134  1  0.87416320  0.54913260  0.60342927  1  -1.18603  0  -0.392285  -0.64577  0  2.310614  0
O  O135  1  0.62607879  0.94670333  0.39713954  1  -1.192919  0  -0.393305  -0.645391  0  2.311495  0
O  O136  1  0.64262641  0.91506458  0.70297828  1  -1.251295  0  -0.601215  -0.795627  0  1.978664  0
O  O137  1  0.85731173  0.21239066  0.29707939  1  -1.218065  0  -0.601264  -0.797248  0  1.978805  0
O  O138  1  0.35737241  0.08494036  0.29701850  1  -1.251224  0  -0.601215  -0.795708  0  1.978476  0
O  O139  1  0.14270751  0.78761286  0.70293035  1  -1.217466  0  -0.601195  -0.797086  0  1.978905  0
O  O140  1  0.17054347  0.59296815  0.53763804  1  -1.212772  0  -0.396536  -0.686985  0  2.286586  0
O  O141  1  0.32954357  0.05510537  0.46203810  1  -1.206326  0  -0.396958  -0.686198  0  2.288119  0
O  O142  1  0.82944384  0.40702722  0.46236757  1  -1.212482  0  -0.396526  -0.687036  0  2.28646  0
O  O143  1  0.67046969  0.94490875  0.53795978  1  -1.206305  0  -0.396968  -0.686271  0  2.28817  0
O  O144  1  0.71061050  0.11803445  0.69965769  1  -1.240007  0  -0.60673  -0.811858  0  1.998244  0
O  O145  1  0.78939011  0.41864440  0.30068804  1  -1.198826  0  -0.606555  -0.813047  0  1.998547  0
O  O146  1  0.28939938  0.88196889  0.30034628  1  -1.239966  0  -0.60683  -0.812071  0  1.997997  0
O  O147  1  0.21060333  0.58134706  0.69931614  1  -1.198768  0  -0.606589  -0.813116  0  1.998588  0
O  O148  1  0.45085938  0.84710313  0.57660548  1  -1.160965  0  -0.370321  -0.588873  0  2.157967  0
O  O149  1  0.04936300  0.27024303  0.42292970  1  -1.161556  0  -0.369312  -0.589567  0  2.155694  0
O  O150  1  0.54915899  0.15291940  0.42339827  1  -1.161239  0  -0.370268  -0.588927  0  2.15782  0
O  O151  1  0.95064244  0.72978616  0.57708765  1  -1.160377  0  -0.369196  -0.589523  0  2.155464  0
O  O152  1  0.46245355  0.88273997  0.45579548  1  -1.216027  0  -0.443863  -0.769348  0  2.460227  0
O  O153  1  0.03783176  0.42663251  0.54373892  1  -1.223591  0  -0.444593  -0.772581  0  2.457685  0
O  O154  1  0.53756656  0.11726399  0.54419487  1  -1.215481  0  -0.44383  -0.769408  0  2.46023  0
O  O155  1  0.96217696  0.57338153  0.45629059  1  -1.223588  0  -0.444674  -0.772792  0  2.457392  0
O  O156  1  0.49874381  0.04045357  0.77767824  1  -1.201206  0  -0.392245  -0.653367  0  2.171779  0
O  O157  1  0.00080089  0.26339713  0.22262938  1  -1.192255  0  -0.392774  -0.654692  0  2.173781  0
O  O158  1  0.50123885  0.95953399  0.22230702  1  -1.201418  0  -0.392283  -0.653311  0  2.171932  0
O  O159  1  0.99920545  0.73660256  0.77737418  1  -1.19237  0  -0.392709  -0.654681  0  2.17398  0
O  O160  1  0.52104843  0.18803638  0.75747481  1  -1.184228  0  -0.382876  -0.636829  0  2.226647  0
O  O161  1  0.97839344  0.43104862  0.24253777  1  -1.190099  0  -0.38268  -0.637997  0  2.226252  0
O  O162  1  0.47894620  0.81193507  0.24250663  1  -1.18462  0  -0.382692  -0.636655  0  2.226696  0
O  O163  1  0.02160385  0.56896233  0.75746408  1  -1.189867  0  -0.382693  -0.637975  0  2.226377  0
