# generated using pymatgen
data_HgH16C22I2Br2(N3O)2
_symmetry_space_group_name_H-M   'P 1'
_cell_length_a   4.39495461
_cell_length_b   13.32535159
_cell_length_c   22.15372643
_cell_angle_alpha   90.02061546
_cell_angle_beta   89.99916830
_cell_angle_gamma   90.00012146
_symmetry_Int_Tables_number   1
_chemical_formula_structural   HgH16C22I2Br2(N3O)2
_chemical_formula_sum   'Hg2 H32 C44 I4 Br4 N12 O4'
_cell_volume   1297.41773639
_cell_formula_units_Z   2
loop_
 _symmetry_equiv_pos_site_id
 _symmetry_equiv_pos_as_xyz
  1  'x, y, z'
loop_
 _atom_site_type_symbol
 _atom_site_label
 _atom_site_symmetry_multiplicity
 _atom_site_fract_x
 _atom_site_fract_y
 _atom_site_fract_z
 _atom_site_occupancy
 _atom_site_hle17_bader_spin_density
 _atom_site_hle17_ddec_charge
 _atom_site_hle17_ddec_spin_density
 _atom_site_hle17_ddec_sum_bond_order
 _atom_site_hle17_magmom
 _atom_site_hse06_10hf_bader_spin_density
 _atom_site_hse06_10hf_ddec_charge
 _atom_site_hse06_10hf_ddec_spin_density
 _atom_site_hse06_10hf_ddec_sum_bond_order
 _atom_site_hse06_10hf_magmom
 _atom_site_hse06_bader_spin_density
 _atom_site_hse06_ddec_charge
 _atom_site_hse06_ddec_spin_density
 _atom_site_hse06_ddec_sum_bond_order
 _atom_site_hse06_magmom
 _atom_site_pbe_bader_spin_density
 _atom_site_pbe_cm5_charge
 _atom_site_pbe_ddec_charge
 _atom_site_pbe_ddec_spin_density
 _atom_site_pbe_ddec_sum_bond_order
 _atom_site_pbe_magmom
Hg  Hg0  1  0.50000168  0.99999535  0.50000036  1  0  0.487678  0  2.199357  0  0  0.36776  0  2.681823  0  0  0.412456  0  2.656464  0  0  0.337375  0.33715  0  2.699983  0
Hg  Hg1  1  0.00000694  0.49999787  0.99999993  1  0  0.487585  0  2.199432  0  0  0.367642  0  2.681928  0  0  0.412335  0  2.656571  0  0  0.337331  0.337033  0  2.700085  0
H  H2  1  0.59385833  0.23717021  0.72278015  1  0  0.080675  0  0.966046  0  0  0.082064  0  1.04099  0  0  0.085811  0  1.038035  0  0  0.108023  0.079379  0  1.043219  0
H  H3  1  0.09381945  0.26282543  0.77721111  1  0  0.08063  0  0.96588  0  0  0.081957  0  1.040824  0  0  0.085704  0  1.037872  0  0  0.107995  0.079276  0  1.043046  0
H  H4  1  0.40616947  0.76282958  0.27721411  1  0  0.080616  0  0.965977  0  0  0.08199  0  1.040917  0  0  0.085737  0  1.037962  0  0  0.107996  0.079305  0  1.043147  0
H  H5  1  0.90617194  0.73717658  0.22278631  1  0  0.0807  0  0.965887  0  0  0.082012  0  1.040849  0  0  0.08576  0  1.037896  0  0  0.107996  0.079332  0  1.043072  0
H  H6  1  0.36894013  0.17948841  0.62353082  1  0  0.075383  0  0.967543  0  0  0.075123  0  1.046961  0  0  0.079262  0  1.043288  0  0  0.096532  0.072175  0  1.049619  0
H  H7  1  0.86886620  0.32050068  0.87646095  1  0  0.075314  0  0.96758  0  0  0.075124  0  1.04695  0  0  0.079264  0  1.043277  0  0  0.096511  0.072164  0  1.049609  0
H  H8  1  0.63112407  0.82050688  0.37646251  1  0  0.075244  0  0.967724  0  0  0.075059  0  1.047059  0  0  0.079199  0  1.043386  0  0  0.096467  0.072101  0  1.049717  0
H  H9  1  0.13112975  0.67949832  0.12353826  1  0  0.07538  0  0.967528  0  0  0.075156  0  1.046912  0  0  0.079296  0  1.04324  0  0  0.096521  0.072202  0  1.049575  0
H  H10  1  0.84493300  0.91072252  0.63727436  1  0  0.096653  0  0.949563  0  0  0.098834  0  1.022214  0  0  0.103112  0  1.01817  0  0  0.111955  0.095765  0  1.025147  0
H  H11  1  0.34492348  0.58926342  0.86273029  1  0  0.096689  0  0.94951  0  0  0.098823  0  1.022255  0  0  0.1031  0  1.018212  0  0  0.111918  0.095753  0  1.025189  0
H  H12  1  0.15508798  0.08926669  0.36272753  1  0  0.096691  0  0.949537  0  0  0.098776  0  1.022279  0  0  0.103054  0  1.018235  0  0  0.111939  0.095708  0  1.025212  0
H  H13  1  0.65507475  0.41073706  0.13727073  1  0  0.096594  0  0.949315  0  0  0.098735  0  1.022078  0  0  0.103012  0  1.018034  0  0  0.111902  0.095682  0  1.025002  0
H  H14  1  0.77280410  0.01717314  0.97115908  1  0  0.103217  0  0.957646  0  0  0.115263  0  1.018148  0  0  0.117752  0  1.017119  0  0  0.097352  0.1135  0  1.018894  0
H  H15  1  0.27279319  0.48282404  0.52884339  1  0  0.103196  0  0.957617  0  0  0.115203  0  1.018192  0  0  0.117692  0  1.017161  0  0  0.097334  0.113439  0  1.018943  0
H  H16  1  0.22718502  0.98283103  0.02884918  1  0  0.103214  0  0.95768  0  0  0.11522  0  1.018234  0  0  0.117708  0  1.017203  0  0  0.097364  0.113455  0  1.018983  0
H  H17  1  0.72718228  0.51716969  0.47115626  1  0  0.103252  0  0.957599  0  0  0.115278  0  1.018104  0  0  0.117767  0  1.017075  0  0  0.097354  0.113514  0  1.018853  0
H  H18  1  0.99456339  0.84474819  0.96077854  1  0  0.082508  0  0.98042  0  0  0.089162  0  1.052754  0  0  0.092562  0  1.050697  0  0  0.081778  0.086776  0  1.054205  0
H  H19  1  0.49454532  0.65524992  0.53922075  1  0  0.082496  0  0.980535  0  0  0.089123  0  1.052919  0  0  0.092528  0  1.050868  0  0  0.081768  0.086743  0  1.054352  0
H  H20  1  0.00542573  0.15525373  0.03922971  1  0  0.082549  0  0.980524  0  0  0.089153  0  1.052911  0  0  0.092572  0  1.050847  0  0  0.081789  0.086769  0  1.05435  0
H  H21  1  0.50542105  0.34474460  0.46077574  1  0  0.082533  0  0.98049  0  0  0.089164  0  1.052844  0  0  0.092584  0  1.050769  0  0  0.081777  0.086776  0  1.054292  0
H  H22  1  0.85709955  0.74019247  0.87113536  1  0  0.097854  0  0.949777  0  0  0.105885  0  1.014129  0  0  0.108721  0  1.01209  0  0  0.097849  0.103864  0  1.015599  0
H  H23  1  0.35709165  0.75980855  0.62886209  1  0  0.097816  0  0.94988  0  0  0.105882  0  1.014181  0  0  0.108721  0  1.012138  0  0  0.097835  0.10386  0  1.015654  0
H  H24  1  0.14291460  0.25981173  0.12886929  1  0  0.097881  0  0.949895  0  0  0.105935  0  1.014216  0  0  0.108774  0  1.01217  0  0  0.09789  0.103916  0  1.015689  0
H  H25  1  0.64288837  0.24019123  0.37113307  1  0  0.097892  0  0.949796  0  0  0.105889  0  1.014183  0  0  0.108726  0  1.012141  0  0  0.097884  0.103867  0  1.015652  0
H  H26  1  0.50103505  0.80403218  0.79464347  1  0  0.13266  0  0.963208  0  0  0.138272  0  1.025421  0  0  0.142659  0  1.022189  0  0  0.109877  0.135153  0  1.027774  0
H  H27  1  0.00102592  0.69597305  0.70535685  1  0  0.13264  0  0.963226  0  0  0.138243  0  1.025458  0  0  0.14263  0  1.022228  0  0  0.109871  0.135123  0  1.027812  0
H  H28  1  0.49898365  0.19597202  0.20536118  1  0  0.132669  0  0.963233  0  0  0.13829  0  1.025439  0  0  0.14268  0  1.022205  0  0  0.109868  0.135168  0  1.027793  0
H  H29  1  0.99895637  0.30403121  0.29464102  1  0  0.132701  0  0.963247  0  0  0.138321  0  1.025441  0  0  0.14271  0  1.022208  0  0  0.109886  0.135196  0  1.027799  0
H  H30  1  0.13577044  0.05522778  0.80758600  1  0  0.270279  0  0.954099  0  0  0.239866  0  1.047966  0  0  0.248488  0  1.040226  0  0  0.291427  0.233742  0  1.053477  0
H  H31  1  0.63576032  0.44477232  0.69241373  1  0  0.270321  0  0.954041  0  0  0.239946  0  1.047898  0  0  0.248568  0  1.040156  0  0  0.291483  0.233822  0  1.053412  0
H  H32  1  0.86423916  0.94477121  0.19241367  1  0  0.270281  0  0.954043  0  0  0.23986  0  1.047928  0  0  0.248482  0  1.040188  0  0  0.291436  0.233737  0  1.05344  0
H  H33  1  0.36422653  0.55522966  0.30758685  1  0  0.270418  0  0.953974  0  0  0.239911  0  1.047896  0  0  0.248533  0  1.040157  0  0  0.291474  0.233787  0  1.053407  0
C  C34  1  0.64956356  0.16347127  0.70410794  1  0  0.067459  0  3.706077  0  0  0.04561  0  3.966781  0  0  0.046154  0  3.982894  0  0  0.041525  0.045007  0  3.956036  0
C  C35  1  0.14951469  0.33652440  0.79588451  1  0  0.067767  0  3.705847  0  0  0.046072  0  3.966503  0  0  0.046625  0  3.982594  0  0  0.041674  0.045466  0  3.955759  0
C  C36  1  0.35047334  0.83652400  0.29588810  1  0  0.067712  0  3.705552  0  0  0.04591  0  3.966237  0  0  0.046457  0  3.982339  0  0  0.041671  0.045305  0  3.955496  0
C  C37  1  0.85047671  0.66348062  0.20411202  1  0  0.067605  0  3.705705  0  0  0.045922  0  3.966348  0  0  0.046472  0  3.982444  0  0  0.041665  0.04532  0  3.955601  0
C  C38  1  0.52497028  0.13182822  0.64920983  1  0  0.074442  0  3.696247  0  0  0.048957  0  3.951399  0  0  0.052482  0  3.968919  0  0  0.041124  0.046621  0  3.939552  0
C  C39  1  0.02491996  0.36816585  0.85078389  1  0  0.074236  0  3.696142  0  0  0.048656  0  3.951294  0  0  0.05218  0  3.968815  0  0  0.041014  0.046331  0  3.939436  0
C  C40  1  0.47508028  0.86816856  0.35078532  1  0  0.074516  0  3.696028  0  0  0.048974  0  3.951161  0  0  0.052498  0  3.968683  0  0  0.041136  0.046648  0  3.939301  0
C  C41  1  0.97508281  0.63183691  0.14921398  1  0  0.07427  0  3.696034  0  0  0.048707  0  3.95122  0  0  0.052228  0  3.968746  0  0  0.041013  0.046374  0  3.939373  0
C  C42  1  0.78586252  0.98373435  0.65633877  1  0  0.092155  0  3.645161  0  0  0.057703  0  3.896146  0  0  0.062119  0  3.911865  0  0  0.062106  0.054754  0  3.885605  0
C  C43  1  0.28584256  0.51625834  0.84366157  1  0  0.092116  0  3.645082  0  0  0.057655  0  3.896132  0  0  0.062072  0  3.911855  0  0  0.062124  0.054701  0  3.885587  0
C  C44  1  0.21415390  0.01626164  0.34366044  1  0  0.092204  0  3.645196  0  0  0.057829  0  3.896179  0  0  0.062248  0  3.911895  0  0  0.062094  0.054873  0  3.885635  0
C  C45  1  0.71414884  0.48374663  0.15634082  1  0  0.09237  0  3.6448  0  0  0.057874  0  3.895962  0  0  0.062292  0  3.911683  0  0  0.062183  0.054908  0  3.885413  0
C  C46  1  0.91149279  0.01565471  0.71119430  1  0  0.062822  0  3.736011  0  0  0.071535  0  3.980049  0  0  0.068987  0  3.998784  0  0  0.119607  0.072746  0  3.96775  0
C  C47  1  0.41147483  0.48434034  0.78880639  1  0  0.062922  0  3.736383  0  0  0.071568  0  3.980557  0  0  0.06902  0  3.999298  0  0  0.119669  0.072782  0  3.968269  0
C  C48  1  0.08852364  0.98434276  0.28880807  1  0  0.06295  0  3.736166  0  0  0.071635  0  3.980247  0  0  0.069088  0  3.998982  0  0  0.119729  0.072852  0  3.967957  0
C  C49  1  0.58850746  0.51566540  0.21119420  1  0  0.062941  0  3.736142  0  0  0.071565  0  3.980413  0  0  0.069012  0  3.999142  0  0  0.119575  0.072792  0  3.968126  0
C  C50  1  0.13395500  0.94848714  0.74323940  1  0  0.505934  0  3.849733  0  0  0.459968  0  4.133339  0  0  0.488325  0  4.134511  0  0  0.239902  0.440968  0  4.132063  0
C  C51  1  0.63394035  0.55150693  0.75676185  1  0  0.505788  0  3.849732  0  0  0.459826  0  4.133356  0  0  0.488174  0  4.134548  0  0  0.239876  0.440807  0  4.132116  0
C  C52  1  0.86605915  0.05150658  0.25676206  1  0  0.505802  0  3.849627  0  0  0.459816  0  4.133286  0  0  0.48817  0  4.134467  0  0  0.239889  0.44079  0  4.132044  0
C  C53  1  0.36604195  0.44849732  0.24323738  1  0  0.505813  0  3.84988  0  0  0.459832  0  4.133575  0  0  0.488208  0  4.134718  0  0  0.239855  0.440783  0  4.132357  0
C  C54  1  0.43468965  0.94719270  0.83843883  1  0  0.212873  0  3.796296  0  0  0.202689  0  4.042198  0  0  0.209725  0  4.066039  0  0  0.091298  0.19806  0  4.025925  0
C  C55  1  0.93468403  0.55280834  0.66156335  1  0  0.212778  0  3.796235  0  0  0.202504  0  4.04224  0  0  0.209539  0  4.066084  0  0  0.091184  0.197875  0  4.025978  0
C  C56  1  0.56531539  0.05281152  0.16156356  1  0  0.212584  0  3.79639  0  0  0.202466  0  4.042214  0  0  0.209501  0  4.066054  0  0  0.091182  0.197839  0  4.025941  0
C  C57  1  0.06529371  0.44719065  0.33843677  1  0  0.212818  0  3.796267  0  0  0.202665  0  4.04212  0  0  0.209699  0  4.065962  0  0  0.091351  0.198034  0  4.025843  0
C  C58  1  0.51886807  0.00570547  0.88877575  1  0  -0.009907  0  3.68446  0  0  0.005152  0  3.948246  0  0  0.004424  0  3.970432  0  0  -0.027586  0.005441  0  3.933256  0
C  C59  1  0.01886049  0.49429380  0.61122342  1  0  -0.009982  0  3.68464  0  0  0.005143  0  3.948363  0  0  0.004414  0  3.970552  0  0  -0.027551  0.005431  0  3.933376  0
C  C60  1  0.48113242  0.99429352  0.11122346  1  0  -0.009927  0  3.684456  0  0  0.005084  0  3.948274  0  0  0.004358  0  3.970457  0  0  -0.02759  0.005373  0  3.933287  0
C  C61  1  0.98112180  0.50570445  0.38877579  1  0  -0.009929  0  3.684491  0  0  0.005093  0  3.948317  0  0  0.004365  0  3.970503  0  0  -0.027636  0.005385  0  3.933324  0
C  C62  1  0.71626152  0.96974290  0.93275445  1  0  -0.123468  0  3.817664  0  0  -0.147398  0  4.074709  0  0  -0.14821  0  4.096533  0  0  -0.109985  -0.146645  0  4.059774  0
C  C63  1  0.21624531  0.53025799  0.56724568  1  0  -0.123347  0  3.817828  0  0  -0.147246  0  4.074824  0  0  -0.148055  0  4.09665  0  0  -0.109946  -0.146494  0  4.059889  0
C  C64  1  0.28373215  0.03026431  0.06724931  1  0  -0.123401  0  3.817927  0  0  -0.147282  0  4.074981  0  0  -0.14809  0  4.096806  0  0  -0.110008  -0.146526  0  4.060044  0
C  C65  1  0.78372561  0.46973875  0.43275398  1  0  -0.123355  0  3.817665  0  0  -0.147237  0  4.074719  0  0  -0.148048  0  4.096545  0  0  -0.109921  -0.146486  0  4.059783  0
C  C66  1  0.83876785  0.87364466  0.92670361  1  0  -0.072625  0  3.78297  0  0  -0.089226  0  4.039747  0  0  -0.093568  0  4.062818  0  0  -0.10591  -0.086224  0  4.023954  0
C  C67  1  0.33875858  0.62635334  0.57329478  1  0  -0.072639  0  3.783153  0  0  -0.08925  0  4.039939  0  0  -0.093604  0  4.062997  0  0  -0.105919  -0.086245  0  4.024147  0
C  C68  1  0.16122582  0.12636181  0.07329969  1  0  -0.072658  0  3.783029  0  0  -0.089239  0  4.039823  0  0  -0.093605  0  4.062867  0  0  -0.105859  -0.086233  0  4.024031  0
C  C69  1  0.66122144  0.37363892  0.42670170  1  0  -0.072817  0  3.783078  0  0  -0.089417  0  4.039871  0  0  -0.093775  0  4.062925  0  0  -0.105964  -0.08641  0  4.024073  0
C  C70  1  0.76191769  0.81505874  0.87675085  1  0  -0.041579  0  3.761019  0  0  -0.057855  0  4.015429  0  0  -0.056969  0  4.035638  0  0  -0.093311  -0.058223  0  4.001461  0
C  C71  1  0.26190749  0.68494220  0.62324734  1  0  -0.041567  0  3.761001  0  0  -0.057854  0  4.015416  0  0  -0.05696  0  4.035609  0  0  -0.093244  -0.058223  0  4.001454  0
C  C72  1  0.23809418  0.18494773  0.12325155  1  0  -0.041495  0  3.760865  0  0  -0.057774  0  4.015249  0  0  -0.05689  0  4.035467  0  0  -0.093338  -0.058143  0  4.001285  0
C  C73  1  0.73807253  0.31505682  0.37674917  1  0  -0.041506  0  3.760949  0  0  -0.057752  0  4.015345  0  0  -0.056865  0  4.035554  0  0  -0.093337  -0.058117  0  4.001369  0
C  C74  1  0.56141670  0.85060302  0.83305982  1  0  -0.141953  0  3.669775  0  0  -0.161358  0  3.920846  0  0  -0.166894  0  3.940609  0  0  -0.090741  -0.157645  0  3.907411  0
C  C75  1  0.06141002  0.64939700  0.66694122  1  0  -0.141845  0  3.669675  0  0  -0.161242  0  3.920798  0  0  -0.166777  0  3.94056  0  0  -0.090723  -0.157532  0  3.90737  0
C  C76  1  0.43859290  0.14939894  0.16694302  1  0  -0.141959  0  3.669956  0  0  -0.161392  0  3.921029  0  0  -0.166929  0  3.940787  0  0  -0.090699  -0.157674  0  3.907592  0
C  C77  1  0.93858137  0.35060125  0.33305709  1  0  -0.142  0  3.66988  0  0  -0.161413  0  3.92093  0  0  -0.166948  0  3.940688  0  0  -0.090758  -0.157696  0  3.907493  0
I  I78  1  0.87338365  0.84199279  0.50768987  1  0  -0.264766  0  1.334547  0  0  -0.220339  0  1.705489  0  0  -0.239178  0  1.687398  0  0  -0.115741  -0.207873  0  1.718975  0
I  I79  1  0.37338809  0.65800376  0.99230571  1  0  -0.26476  0  1.334513  0  0  -0.220328  0  1.705452  0  0  -0.23915  0  1.687322  0  0  -0.115733  -0.207855  0  1.718934  0
I  I80  1  0.12661685  0.15800315  0.49231565  1  0  -0.264843  0  1.334457  0  0  -0.220393  0  1.705341  0  0  -0.239235  0  1.687257  0  0  -0.11578  -0.207923  0  1.718821  0
I  I81  1  0.62661923  0.34199523  0.00769396  1  0  -0.264777  0  1.334552  0  0  -0.22034  0  1.705487  0  0  -0.23918  0  1.687409  0  0  -0.115741  -0.207872  0  1.718974  0
Br  Br82  1  0.36113499  0.13850490  0.89792027  1  0  -0.067183  0  1.376628  0  0  -0.052764  0  1.662064  0  0  -0.058611  0  1.654976  0  0  0.051595  -0.048454  0  1.667133  0
Br  Br83  1  0.86111942  0.36149383  0.60208330  1  0  -0.067162  0  1.376653  0  0  -0.052733  0  1.662074  0  0  -0.058581  0  1.654988  0  0  0.051607  -0.048426  0  1.667148  0
Br  Br84  1  0.63886551  0.86149785  0.10207760  1  0  -0.067154  0  1.37667  0  0  -0.052716  0  1.66211  0  0  -0.058567  0  1.655022  0  0  0.05162  -0.048402  0  1.667183  0
Br  Br85  1  0.13886515  0.63850211  0.39792132  1  0  -0.067184  0  1.376634  0  0  -0.052754  0  1.662055  0  0  -0.058601  0  1.654966  0  0  0.051616  -0.048444  0  1.667125  0
N  N86  1  0.84388741  0.10572179  0.73502097  1  0  -0.286127  0  3.09817  0  0  -0.255278  0  3.363372  0  0  -0.260822  0  3.377895  0  0  -0.299775  -0.251089  0  3.353615  0
N  N87  1  0.34386608  0.39427473  0.76497677  1  0  -0.286361  0  3.098485  0  0  -0.255509  0  3.363685  0  0  -0.261053  0  3.378216  0  0  -0.299898  -0.251324  0  3.353932  0
N  N88  1  0.15612902  0.89427571  0.26497734  1  0  -0.286382  0  3.09809  0  0  -0.255538  0  3.363298  0  0  -0.261082  0  3.377826  0  0  -0.299927  -0.251351  0  3.353544  0
N  N89  1  0.65612077  0.60573102  0.23502156  1  0  -0.286317  0  3.0982  0  0  -0.255452  0  3.363375  0  0  -0.260996  0  3.377904  0  0  -0.29981  -0.251258  0  3.35361  0
N  N90  1  0.59446419  0.04228323  0.62540885  1  0  -0.261307  0  3.163254  0  0  -0.208266  0  3.429547  0  0  -0.221907  0  3.448787  0  0  -0.300092  -0.198611  0  3.416113  0
N  N91  1  0.09442862  0.45770559  0.87458961  1  0  -0.261122  0  3.163142  0  0  -0.208  0  3.429382  0  0  -0.221644  0  3.448627  0  0  -0.299948  -0.198343  0  3.415934  0
N  N92  1  0.40556134  0.95771277  0.37458900  1  0  -0.261435  0  3.163271  0  0  -0.208373  0  3.429538  0  0  -0.222016  0  3.448778  0  0  -0.300095  -0.198714  0  3.41609  0
N  N93  1  0.90556277  0.54229415  0.12540961  1  0  -0.261339  0  3.163147  0  0  -0.208188  0  3.429399  0  0  -0.221831  0  3.448644  0  0  -0.300001  -0.19853  0  3.415966  0
N  N94  1  0.22950823  0.98714443  0.79697414  1  0  -0.428081  0  3.435329  0  0  -0.373594  0  3.676633  0  0  -0.396826  0  3.68828  0  0  -0.397924  -0.357637  0  3.668202  0
N  N95  1  0.72949262  0.51285422  0.70302639  1  0  -0.42798  0  3.435128  0  0  -0.373503  0  3.6764  0  0  -0.396732  0  3.688052  0  0  -0.397909  -0.357514  0  3.667908  0
N  N96  1  0.77050592  0.01285603  0.20302824  1  0  -0.427794  0  3.434962  0  0  -0.373309  0  3.676253  0  0  -0.396539  0  3.687907  0  0  -0.397848  -0.357346  0  3.667828  0
N  N97  1  0.27049195  0.48714853  0.29697284  1  0  -0.428143  0  3.435122  0  0  -0.373521  0  3.676546  0  0  -0.396762  0  3.688188  0  0  -0.397947  -0.357558  0  3.668155  0
O  O98  1  0.21813393  0.86852621  0.72030505  1  0  -0.501706  0  1.925992  0  0  -0.453862  0  2.135045  0  0  -0.473809  0  2.130901  0  0  -0.26957  -0.44011  0  2.137552  0
O  O99  1  0.71812493  0.63147392  0.77969642  1  0  -0.501748  0  1.925754  0  0  -0.453896  0  2.134804  0  0  -0.473842  0  2.130666  0  0  -0.269654  -0.440138  0  2.137317  0
O  O100  1  0.78188250  0.13147201  0.27969732  1  0  -0.50174  0  1.925836  0  0  -0.453882  0  2.134891  0  0  -0.47383  0  2.130753  0  0  -0.269622  -0.440116  0  2.137404  0
O  O101  1  0.28187556  0.36853333  0.22030237  1  0  -0.501712  0  1.925964  0  0  -0.453862  0  2.135047  0  0  -0.473816  0  2.130895  0  0  -0.269601  -0.440088  0  2.137574  0
