# generated using pymatgen
data_Cd3H16C18S2(N3O7)2
_symmetry_space_group_name_H-M   'P 1'
_cell_length_a   7.00359565
_cell_length_b   7.96810159
_cell_length_c   12.69781898
_cell_angle_alpha   88.66692653
_cell_angle_beta   86.89824948
_cell_angle_gamma   64.23954758
_symmetry_Int_Tables_number   1
_chemical_formula_structural   Cd3H16C18S2(N3O7)2
_chemical_formula_sum   'Cd3 H16 C18 S2 N6 O14'
_cell_volume   637.24939333
_cell_formula_units_Z   1
loop_
 _symmetry_equiv_pos_site_id
 _symmetry_equiv_pos_as_xyz
  1  'x, y, z'
loop_
 _atom_site_type_symbol
 _atom_site_label
 _atom_site_symmetry_multiplicity
 _atom_site_fract_x
 _atom_site_fract_y
 _atom_site_fract_z
 _atom_site_occupancy
 _atom_site_hle17_bader_spin_density
 _atom_site_hle17_ddec_charge
 _atom_site_hle17_ddec_spin_density
 _atom_site_hle17_ddec_sum_bond_order
 _atom_site_hle17_magmom
 _atom_site_hse06_10hf_bader_spin_density
 _atom_site_hse06_10hf_ddec_charge
 _atom_site_hse06_10hf_ddec_spin_density
 _atom_site_hse06_10hf_ddec_sum_bond_order
 _atom_site_hse06_10hf_magmom
 _atom_site_hse06_bader_spin_density
 _atom_site_hse06_ddec_charge
 _atom_site_hse06_ddec_spin_density
 _atom_site_hse06_ddec_sum_bond_order
 _atom_site_hse06_magmom
 _atom_site_pbe_bader_spin_density
 _atom_site_pbe_cm5_charge
 _atom_site_pbe_ddec_charge
 _atom_site_pbe_ddec_spin_density
 _atom_site_pbe_ddec_sum_bond_order
 _atom_site_pbe_magmom
Cd  Cd0  1  0.50000028  0.49999910  0.99999962  1  0  1.278568  0  1.647055  0  0  1.098605  0  2.107889  0  0  1.14635  0  2.052954  0  0  0.82103  1.064268  0  2.146018  0
Cd  Cd1  1  0.77781752  0.97777228  0.86297890  1  0  1.243578  0  1.584279  0  0  1.067464  0  2.024518  0  0  1.121814  0  1.969064  0  0  0.810947  1.028547  0  2.062728  0
Cd  Cd2  1  0.22217961  0.02222674  0.13702197  1  0  1.243615  0  1.584255  0  0  1.067495  0  2.024493  0  0  1.121833  0  1.969054  0  0  0.810941  1.028573  0  2.062714  0
H  H3  1  0.18037743  0.84878207  0.36998745  1  0  0.128587  0  0.948228  0  0  0.137542  0  1.00756  0  0  0.140919  0  1.003183  0  0  0.148556  0.134991  0  1.010844  0
H  H4  1  0.81962891  0.15121553  0.63001148  1  0  0.128579  0  0.9482  0  0  0.137554  0  1.007513  0  0  0.140932  0  1.003132  0  0  0.148555  0.135002  0  1.010798  0
H  H5  1  0.44340902  0.29472475  0.25002996  1  0  0.124498  0  0.947536  0  0  0.130382  0  1.013912  0  0  0.133549  0  1.009765  0  0  0.146133  0.127961  0  1.017046  0
H  H6  1  0.55659027  0.70527286  0.74997163  1  0  0.124518  0  0.947511  0  0  0.130425  0  1.01386  0  0  0.133593  0  1.009708  0  0  0.146143  0.128004  0  1.016994  0
H  H7  1  0.05488379  0.76057395  0.50354048  1  0  0.113484  0  0.955906  0  0  0.12366  0  1.016485  0  0  0.127514  0  1.013389  0  0  0.110427  0.120872  0  1.018714  0
H  H8  1  0.94512119  0.23942364  0.49646008  1  0  0.113479  0  0.955883  0  0  0.123669  0  1.016453  0  0  0.127522  0  1.013356  0  0  0.110425  0.120881  0  1.018683  0
H  H9  1  0.21314933  0.33110140  0.73786042  1  0  0.115728  0  0.941039  0  0  0.123735  0  1.006121  0  0  0.12745  0  1.003265  0  0  0.11016  0.121028  0  1.008263  0
H  H10  1  0.78685067  0.66889760  0.26214033  1  0  0.115735  0  0.941038  0  0  0.123741  0  1.006122  0  0  0.127455  0  1.003267  0  0  0.110165  0.121033  0  1.008263  0
H  H11  1  0.45447748  0.09989827  0.60761833  1  0  0.103525  0  0.951069  0  0  0.114209  0  1.008897  0  0  0.116952  0  1.007965  0  0  0.106085  0.112236  0  1.00966  0
H  H12  1  0.54552313  0.90009934  0.39238084  1  0  0.103488  0  0.951158  0  0  0.114203  0  1.008948  0  0  0.116947  0  1.008016  0  0  0.106084  0.11223  0  1.009711  0
H  H13  1  0.50291976  0.19591374  0.42378962  1  0  0.111459  0  0.938397  0  0  0.125381  0  0.99367  0  0  0.128134  0  0.992139  0  0  0.11304  0.12337  0  0.994874  0
H  H14  1  0.49708377  0.80408664  0.57620937  1  0  0.111442  0  0.938403  0  0  0.125383  0  0.993651  0  0  0.128135  0  0.992119  0  0  0.113032  0.12337  0  0.994856  0
H  H15  1  0.12282563  0.54119368  0.88991830  1  0  0.438212  0  0.862117  0  0  0.406206  0  0.926594  0  0  0.417198  0  0.910636  0  0  0.29067  0.398427  0  0.937863  0
H  H16  1  0.87717206  0.45880673  0.11007858  1  0  0.438138  0  0.862229  0  0  0.406181  0  0.926607  0  0  0.417171  0  0.910652  0  0  0.290691  0.398403  0  0.937874  0
H  H17  1  0.20304189  0.34929451  0.95304734  1  0  0.441853  0  0.853997  0  0  0.411587  0  0.915896  0  0  0.421685  0  0.901083  0  0  0.291795  0.404417  0  0.926402  0
H  H18  1  0.79695592  0.65070590  0.04695190  1  0  0.441771  0  0.854104  0  0  0.411541  0  0.915955  0  0  0.421638  0  0.901143  0  0  0.29179  0.40437  0  0.926462  0
C  C19  1  0.24779402  0.72836240  0.31852302  1  0  0.17097  0  3.625549  0  0  0.107609  0  3.892363  0  0  0.120978  0  3.904615  0  0  0.168346  0.09889  0  3.883926  0
C  C20  1  0.75221160  0.27163380  0.68147675  1  0  0.170887  0  3.625523  0  0  0.107511  0  3.892337  0  0  0.120878  0  3.904589  0  0  0.168296  0.098792  0  3.8839  0
C  C21  1  0.38675174  0.44474284  0.25668170  1  0  0.194123  0  3.569232  0  0  0.127701  0  3.842796  0  0  0.14167  0  3.853495  0  0  0.172222  0.118491  0  3.83558  0
C  C22  1  0.61324966  0.55525616  0.74331820  1  0  0.194134  0  3.569275  0  0  0.12769  0  3.842849  0  0  0.14166  0  3.853547  0  0  0.172257  0.118482  0  3.83563  0
C  C23  1  0.28343111  0.48477786  0.45166158  1  0  0.171344  0  3.797391  0  0  0.165905  0  4.048498  0  0  0.170186  0  4.071975  0  0  0.093167  0.162998  0  4.032411  0
C  C24  1  0.71657311  0.51522113  0.54833741  1  0  0.171419  0  3.797226  0  0  0.165889  0  4.048442  0  0  0.170169  0  4.071918  0  0  0.093173  0.162981  0  4.032356  0
C  C25  1  0.14774061  0.61548292  0.52451955  1  0  -0.152232  0  3.735887  0  0  -0.185634  0  3.986466  0  0  -0.188235  0  4.007662  0  0  -0.084613  -0.183598  0  3.971916  0
C  C26  1  0.85226156  0.38451747  0.47548108  1  0  -0.152258  0  3.735886  0  0  -0.185643  0  3.986495  0  0  -0.188241  0  4.007689  0  0  -0.0846  -0.183607  0  3.971945  0
C  C27  1  0.12187647  0.56205262  0.62779756  1  0  -0.051791  0  3.763225  0  0  -0.026153  0  3.998816  0  0  -0.033165  0  4.021566  0  0  -0.01757  -0.021705  0  3.983533  0
C  C28  1  0.87812424  0.43794777  0.37220234  1  0  -0.051781  0  3.763187  0  0  -0.026145  0  3.998789  0  0  -0.033155  0  4.021538  0  0  -0.017569  -0.021696  0  3.983503  0
C  C29  1  0.23113250  0.37502927  0.65753362  1  0  -0.061205  0  3.682099  0  0  -0.095621  0  3.942442  0  0  -0.095382  0  3.961956  0  0  -0.082199  -0.09564  0  3.929299  0
C  C30  1  0.76886677  0.62497113  0.34246634  1  0  -0.061225  0  3.682085  0  0  -0.095644  0  3.942442  0  0  -0.095404  0  3.961956  0  0  -0.082209  -0.095662  0  3.929297  0
C  C31  1  0.36612335  0.24442896  0.58347201  1  0  -0.055171  0  3.738345  0  0  -0.064603  0  3.99342  0  0  -0.067196  0  4.014307  0  0  -0.084369  -0.062896  0  3.97927  0
C  C32  1  0.63387518  0.75557005  0.41652802  1  0  -0.055143  0  3.738422  0  0  -0.064609  0  3.993505  0  0  -0.067202  0  4.014387  0  0  -0.084388  -0.062902  0  3.979353  0
C  C33  1  0.39481208  0.29794710  0.48050902  1  0  -0.128331  0  3.706164  0  0  -0.15722  0  3.966438  0  0  -0.158992  0  3.985515  0  0  -0.083283  -0.155861  0  3.95337  0
C  C34  1  0.60518859  0.70205329  0.51949010  1  0  -0.128359  0  3.706136  0  0  -0.157224  0  3.966423  0  0  -0.158992  0  3.985497  0  0  -0.083265  -0.155862  0  3.953353  0
C  C35  1  0.97314923  0.71202927  0.70169574  1  0  0.63692  0  3.92455  0  0  0.584065  0  4.218448  0  0  0.618449  0  4.212128  0  0  0.195998  0.560805  0  4.221782  0
C  C36  1  0.02685148  0.28797112  0.29830416  1  0  0.636894  0  3.924495  0  0  0.584027  0  4.218422  0  0  0.61841  0  4.212102  0  0  0.195993  0.560768  0  4.221753  0
S  S37  1  0.72035002  0.02549293  0.10082309  1  0  1.571976  0  5.832046  0  0  1.450789  0  6.362763  0  0  1.50679  0  6.330071  0  0  0.551628  1.411921  0  6.384199  0
S  S38  1  0.27964797  0.97451025  0.89917845  1  0  1.571916  0  5.832078  0  0  1.450755  0  6.36276  0  0  1.506755  0  6.330071  0  0  0.551651  1.411886  0  6.384199  0
N  N39  1  0.37775508  0.55812842  0.17790744  1  0  -0.241967  0  3.112798  0  0  -0.185726  0  3.400237  0  0  -0.200468  0  3.415954  0  0  -0.222824  -0.175684  0  3.389459  0
N  N40  1  0.62224700  0.44186919  0.82209246  1  0  -0.242016  0  3.112866  0  0  -0.185774  0  3.400312  0  0  -0.200517  0  3.416031  0  0  -0.222875  -0.175732  0  3.389535  0
N  N41  1  0.29124819  0.73641795  0.21715486  1  0  -0.246914  0  3.161074  0  0  -0.188449  0  3.445204  0  0  -0.205342  0  3.463145  0  0  -0.228806  -0.176912  0  3.432784  0
N  N42  1  0.70875385  0.26357966  0.78284425  1  0  -0.246863  0  3.161133  0  0  -0.188394  0  3.445262  0  0  -0.205289  0  3.463207  0  0  -0.228745  -0.176858  0  3.432844  0
N  N43  1  0.30607567  0.54685229  0.34749886  1  0  -0.115871  0  3.55478  0  0  -0.026374  0  3.771713  0  0  -0.043477  0  3.79585  0  0  -0.20955  -0.015124  0  3.755275  0
N  N44  1  0.69392720  0.45314671  0.65250176  1  0  -0.115816  0  3.554694  0  0  -0.026295  0  3.771658  0  0  -0.043397  0  3.795795  0  0  -0.209559  -0.015044  0  3.755221  0
O  O45  1  0.86939434  0.87402229  0.66560890  1  0  -0.633428  0  1.940618  0  0  -0.581201  0  2.176088  0  0  -0.607752  0  2.167748  0  0  -0.326648  -0.562514  0  2.181129  0
O  O46  1  0.13060490  0.12597811  0.33439027  1  0  -0.633411  0  1.940598  0  0  -0.581178  0  2.176085  0  0  -0.607728  0  2.167744  0  0  -0.326653  -0.562491  0  2.181126  0
O  O47  1  0.95530175  0.67078616  0.79902747  1  0  -0.65216  0  2.036394  0  0  -0.575902  0  2.270155  0  0  -0.607215  0  2.261336  0  0  -0.316577  -0.553853  0  2.2754  0
O  O48  1  0.04469684  0.32921563  0.20097250  1  0  -0.652135  0  2.036372  0  0  -0.575895  0  2.27011  0  0  -0.607205  0  2.261291  0  0  -0.316576  -0.553845  0  2.275352  0
O  O49  1  0.62356915  0.17538740  0.01875019  1  0  -0.795815  0  2.041974  0  0  -0.71967  0  2.332368  0  0  -0.745931  0  2.311005  0  0  -0.376641  -0.700943  0  2.34639  0
O  O50  1  0.37642723  0.82461300  0.98124911  1  0  -0.795853  0  2.042043  0  0  -0.719714  0  2.332438  0  0  -0.745974  0  2.311073  0  0  -0.376649  -0.700988  0  2.346461  0
O  O51  1  0.83821447  0.84922643  0.03862686  1  0  -0.737705  0  1.97508  0  0  -0.66778  0  2.227211  0  0  -0.691877  0  2.208224  0  0  -0.353099  -0.650764  0  2.239783  0
O  O52  1  0.16178635  0.15077396  0.96137540  1  0  -0.737767  0  1.975106  0  0  -0.667825  0  2.227235  0  0  -0.691919  0  2.208243  0  0  -0.353145  -0.65081  0  2.239808  0
O  O53  1  0.86327803  0.06603907  0.16598538  1  0  -0.729429  0  2.003772  0  0  -0.672652  0  2.274206  0  0  -0.697165  0  2.257027  0  0  -0.364738  -0.655409  0  2.285479  0
O  O54  1  0.13671506  0.93397108  0.83401544  1  0  -0.729343  0  2.003741  0  0  -0.672585  0  2.274168  0  0  -0.697098  0  2.256988  0  0  -0.364728  -0.65534  0  2.285439  0
O  O55  1  0.54937107  0.01495903  0.17223345  1  0  -0.736738  0  1.96826  0  0  -0.674047  0  2.244648  0  0  -0.697789  0  2.223515  0  0  -0.364004  -0.657303  0  2.258758  0
O  O56  1  0.45062613  0.98504276  0.82776736  1  0  -0.736701  0  1.968278  0  0  -0.674027  0  2.244667  0  0  -0.697775  0  2.223538  0  0  -0.363982  -0.657284  0  2.258777  0
O  O57  1  0.21539287  0.46819643  0.94682070  1  0  -0.866789  0  1.863339  0  0  -0.804514  0  2.072252  0  0  -0.826483  0  2.037642  0  0  -0.604763  -0.788889  0  2.096348  0
O  O58  1  0.78460697  0.53180258  0.05317690  1  0  -0.866625  0  1.863499  0  0  -0.804405  0  2.072361  0  0  -0.826373  0  2.037755  0  0  -0.60477  -0.788781  0  2.096457  0
