# generated using pymatgen
data_ZnH15C21(NO3)2
_symmetry_space_group_name_H-M   'P 1'
_cell_length_a   9.44166350
_cell_length_b   9.95723720
_cell_length_c   10.51589983
_cell_angle_alpha   91.91837377
_cell_angle_beta   96.69480376
_cell_angle_gamma   103.54552152
_symmetry_Int_Tables_number   1
_chemical_formula_structural   ZnH15C21(NO3)2
_chemical_formula_sum   'Zn2 H30 C42 N4 O12'
_cell_volume   952.68355182
_cell_formula_units_Z   2
loop_
 _symmetry_equiv_pos_site_id
 _symmetry_equiv_pos_as_xyz
  1  'x, y, z'
loop_
 _atom_site_type_symbol
 _atom_site_label
 _atom_site_symmetry_multiplicity
 _atom_site_fract_x
 _atom_site_fract_y
 _atom_site_fract_z
 _atom_site_occupancy
 _atom_site_hle17_bader_spin_density
 _atom_site_hle17_ddec_charge
 _atom_site_hle17_ddec_spin_density
 _atom_site_hle17_ddec_sum_bond_order
 _atom_site_hle17_magmom
 _atom_site_hse06_10hf_bader_spin_density
 _atom_site_hse06_10hf_ddec_charge
 _atom_site_hse06_10hf_ddec_spin_density
 _atom_site_hse06_10hf_ddec_sum_bond_order
 _atom_site_hse06_10hf_magmom
 _atom_site_hse06_bader_spin_density
 _atom_site_hse06_ddec_charge
 _atom_site_hse06_ddec_spin_density
 _atom_site_hse06_ddec_sum_bond_order
 _atom_site_hse06_magmom
 _atom_site_pbe_bader_spin_density
 _atom_site_pbe_cm5_charge
 _atom_site_pbe_ddec_charge
 _atom_site_pbe_ddec_spin_density
 _atom_site_pbe_ddec_sum_bond_order
 _atom_site_pbe_magmom
Zn  Zn0  1  0.16287100  0.22342209  0.09586863  1  0  1.030573  0  1.854336  0  0  0.847569  0  2.323714  0  0  0.895091  0  2.266391  0  0  0.687902  0.814622  0  2.362722  0
Zn  Zn1  1  0.83712575  0.77657785  0.90413845  1  0  1.03057  0  1.854327  0  0  0.847563  0  2.323708  0  0  0.895082  0  2.26639  0  0  0.687886  0.814613  0  2.362708  0
H  H2  1  0.34748080  0.11628548  0.00791807  1  0  0.408465  0  0.898328  0  0  0.37655  0  0.963736  0  0  0.38857  0  0.946273  0  0  0.282061  0.368173  0  0.975768  0
H  H3  1  0.65251167  0.88371961  0.99207933  1  0  0.408471  0  0.898313  0  0  0.376567  0  0.963704  0  0  0.388587  0  0.946242  0  0  0.282075  0.368186  0  0.975744  0
H  H4  1  0.34534798  0.08668911  0.16160696  1  0  0.411189  0  0.900519  0  0  0.378792  0  0.966279  0  0  0.391135  0  0.948489  0  0  0.279148  0.370087  0  0.978809  0
H  H5  1  0.65464771  0.91330771  0.83838946  1  0  0.411185  0  0.900517  0  0  0.378827  0  0.966222  0  0  0.39117  0  0.948433  0  0  0.279157  0.370124  0  0.97875  0
H  H6  1  0.47093759  0.40914900  0.11104460  1  0  0.080329  0  0.970212  0  0  0.088395  0  1.037537  0  0  0.090133  0  1.036681  0  0  0.116239  0.086926  0  1.037771  0
H  H7  1  0.52905328  0.59085300  0.88896207  1  0  0.080314  0  0.970249  0  0  0.088444  0  1.037479  0  0  0.090185  0  1.036621  0  0  0.116255  0.086973  0  1.03771  0
H  H8  1  0.58784745  0.66602337  0.14517951  1  0  0.104654  0  0.970464  0  0  0.114529  0  1.030682  0  0  0.116759  0  1.031031  0  0  0.108154  0.112654  0  1.031141  0
H  H9  1  0.41214354  0.33397965  0.85482150  1  0  0.104543  0  0.970585  0  0  0.114462  0  1.030743  0  0  0.116687  0  1.031102  0  0  0.108164  0.112585  0  1.031209  0
H  H10  1  0.42940262  0.82528873  0.19747366  1  0  0.119244  0  0.923594  0  0  0.130589  0  0.977366  0  0  0.13401  0  0.974147  0  0  0.117674  0.128027  0  0.979882  0
H  H11  1  0.57058141  0.17471424  0.80250582  1  0  0.119189  0  0.923691  0  0  0.130564  0  0.977412  0  0  0.133983  0  0.974198  0  0  0.117653  0.128002  0  0.979921  0
H  H12  1  0.16313996  0.72708355  0.20196619  1  0  0.117461  0  0.96845  0  0  0.123962  0  1.034045  0  0  0.126864  0  1.033486  0  0  0.111235  0.121867  0  1.034713  0
H  H13  1  0.83684361  0.27291837  0.79800561  1  0  0.117497  0  0.968481  0  0  0.124032  0  1.034014  0  0  0.126934  0  1.033455  0  0  0.111243  0.121935  0  1.034686  0
H  H14  1  0.95196943  0.62516824  0.23490768  1  0  0.109389  0  0.991885  0  0  0.116109  0  1.058069  0  0  0.118591  0  1.058521  0  0  0.105845  0.114291  0  1.058039  0
H  H15  1  0.04801523  0.37482751  0.76508397  1  0  0.109356  0  0.992035  0  0  0.116127  0  1.058156  0  0  0.118595  0  1.058596  0  0  0.105861  0.114314  0  1.058112  0
H  H16  1  0.69558663  0.49234010  0.23877550  1  0  0.08102  0  0.975618  0  0  0.090616  0  1.043474  0  0  0.092329  0  1.043302  0  0  0.101331  0.089652  0  1.042762  0
H  H17  1  0.30440041  0.50765153  0.76122477  1  0  0.081006  0  0.975473  0  0  0.090568  0  1.043401  0  0  0.092278  0  1.043229  0  0  0.101268  0.089609  0  1.042685  0
H  H18  1  0.62082375  0.24099148  0.15648306  1  0  0.121017  0  0.960908  0  0  0.129972  0  1.018737  0  0  0.133774  0  1.016791  0  0  0.108655  0.127579  0  1.020033  0
H  H19  1  0.37916173  0.75899808  0.84351795  1  0  0.120878  0  0.961017  0  0  0.129807  0  1.018902  0  0  0.133609  0  1.016957  0  0  0.108609  0.127417  0  1.020194  0
H  H20  1  0.81641275  0.13193047  0.08926051  1  0  0.095019  0  0.942047  0  0  0.103529  0  1.001022  0  0  0.106128  0  0.998784  0  0  0.122302  0.101601  0  1.002673  0
H  H21  1  0.18357586  0.86806323  0.91073901  1  0  0.094951  0  0.942092  0  0  0.103526  0  1.001024  0  0  0.106126  0  0.998784  0  0  0.122331  0.101599  0  1.002671  0
H  H22  1  0.68834949  0.73617637  0.35826867  1  0  0.106407  0  0.985291  0  0  0.113887  0  1.053568  0  0  0.116971  0  1.053391  0  0  0.100735  0.111448  0  1.054177  0
H  H23  1  0.31166391  0.26382569  0.64174464  1  0  0.106483  0  0.985328  0  0  0.114015  0  1.053512  0  0  0.117096  0  1.053341  0  0  0.100828  0.111577  0  1.054119  0
H  H24  1  0.06382374  0.74653040  0.63678235  1  0  0.108923  0  0.979077  0  0  0.117381  0  1.043816  0  0  0.120065  0  1.044118  0  0  0.101752  0.115447  0  1.0439  0
H  H25  1  0.93619247  0.25347062  0.36322641  1  0  0.108865  0  0.979086  0  0  0.117331  0  1.043797  0  0  0.12001  0  1.044099  0  0  0.101729  0.115392  0  1.043884  0
H  H26  1  0.22463617  0.89734258  0.49915413  1  0  0.104875  0  0.926389  0  0  0.116692  0  0.980396  0  0  0.120295  0  0.977901  0  0  0.108144  0.114056  0  0.982382  0
H  H27  1  0.77538103  0.10265016  0.50084966  1  0  0.10483  0  0.926417  0  0  0.116727  0  0.980316  0  0  0.120334  0  0.977811  0  0  0.108122  0.114088  0  0.9823  0
H  H28  1  0.71210389  0.39417348  0.48540129  1  0  0.115801  0  0.934491  0  0  0.128756  0  0.988946  0  0  0.131518  0  0.988316  0  0  0.11  0.126287  0  0.990349  0
H  H29  1  0.28791309  0.60583994  0.51459941  1  0  0.115824  0  0.934441  0  0  0.128738  0  0.988949  0  0  0.131512  0  0.988285  0  0  0.109979  0.126273  0  0.990352  0
H  H30  1  0.54601730  0.74438370  0.58880738  1  0  0.129848  0  0.920432  0  0  0.143758  0  0.969475  0  0  0.146792  0  0.968347  0  0  0.117262  0.141696  0  0.97034  0
H  H31  1  0.45399858  0.25562870  0.41120176  1  0  0.129877  0  0.920429  0  0  0.143788  0  0.969464  0  0  0.146822  0  0.968336  0  0  0.117245  0.141726  0  0.970326  0
C  C32  1  0.40839471  0.48448391  0.13173849  1  0  0.12364  0  3.728969  0  0  0.091966  0  3.981368  0  0  0.098458  0  4.001068  0  0  0.046563  0.08857  0  3.966989  0
C  C33  1  0.59159781  0.51551704  0.86825972  1  0  0.123594  0  3.728941  0  0  0.091889  0  3.981322  0  0  0.09838  0  4.001015  0  0  0.046544  0.088496  0  3.966932  0
C  C34  1  0.47182655  0.62560324  0.15221776  1  0  -0.126738  0  3.734593  0  0  -0.139494  0  3.98944  0  0  -0.146797  0  4.012171  0  0  -0.083946  -0.135552  0  3.974927  0
C  C35  1  0.52816186  0.37439459  0.84777523  1  0  -0.126375  0  3.734321  0  0  -0.139153  0  3.989118  0  0  -0.146452  0  4.011842  0  0  -0.083826  -0.135215  0  3.974606  0
C  C36  1  0.38336841  0.71425209  0.17963364  1  0  0.018049  0  3.676256  0  0  -0.002414  0  3.924846  0  0  0.001521  0  3.942404  0  0  -0.054052  -0.004868  0  3.913468  0
C  C37  1  0.61661541  0.28574985  0.82034770  1  0  0.017925  0  3.676181  0  0  -0.002562  0  3.924804  0  0  0.001372  0  3.94236  0  0  -0.054073  -0.005013  0  3.913426  0
C  C38  1  0.23410386  0.65901855  0.18326147  1  0  -0.126998  0  3.666676  0  0  -0.144885  0  3.913941  0  0  -0.15199  0  3.935463  0  0  -0.070981  -0.140455  0  3.899767  0
C  C39  1  0.76587929  0.34098545  0.81671513  1  0  -0.127049  0  3.66656  0  0  -0.144973  0  3.913833  0  0  -0.152081  0  3.935358  0  0  -0.071044  -0.140546  0  3.899666  0
C  C40  1  0.17734559  0.51630916  0.16033873  1  0  0.187172  0  3.742174  0  0  0.179296  0  3.986185  0  0  0.186857  0  4.005597  0  0  0.125503  0.174497  0  3.972557  0
C  C41  1  0.82264153  0.48369279  0.83964669  1  0  0.187331  0  3.741981  0  0  0.179452  0  3.985962  0  0  0.187013  0  4.005373  0  0  0.125593  0.17465  0  3.972336  0
C  C42  1  0.02053343  0.44786803  0.16139281  1  0  0.170482  0  3.766843  0  0  0.163222  0  4.0135  0  0  0.169205  0  4.033052  0  0  0.119524  0.159302  0  3.999556  0
C  C43  1  0.97945145  0.55212875  0.83859699  1  0  0.170532  0  3.766526  0  0  0.163321  0  4.013104  0  0  0.169303  0  4.032653  0  0  0.119542  0.159408  0  3.999158  0
C  C44  1  0.91932148  0.51613022  0.20308450  1  0  -0.124779  0  3.680118  0  0  -0.144062  0  3.92638  0  0  -0.150109  0  3.947217  0  0  -0.076523  -0.139738  0  3.911986  0
C  C45  1  0.08066399  0.48386449  0.79690718  1  0  -0.124778  0  3.680331  0  0  -0.144144  0  3.926566  0  0  -0.150166  0  3.947425  0  0  -0.076534  -0.139819  0  3.912176  0
C  C46  1  0.77474750  0.44148152  0.20308337  1  0  -0.010384  0  3.732188  0  0  -0.02873  0  3.982357  0  0  -0.026168  0  4.002927  0  0  -0.069628  -0.030287  0  3.968011  0
C  C47  1  0.22523760  0.55851114  0.79691392  1  0  -0.010487  0  3.732322  0  0  -0.028797  0  3.982457  0  0  -0.026232  0  4.003021  0  0  -0.069564  -0.030359  0  3.968121  0
C  C48  1  0.73354150  0.30219596  0.15991347  1  0  -0.121507  0  3.699615  0  0  -0.131378  0  3.945706  0  0  -0.138829  0  3.967432  0  0  -0.079384  -0.127047  0  3.931608  0
C  C49  1  0.26644604  0.69779774  0.84008596  1  0  -0.121273  0  3.6997  0  0  -0.131101  0  3.945756  0  0  -0.13856  0  3.967504  0  0  -0.079413  -0.12677  0  3.931656  0
C  C50  1  0.84129466  0.24145234  0.11996230  1  0  0.152381  0  3.671182  0  0  0.120883  0  3.925018  0  0  0.127966  0  3.941682  0  0  0.059227  0.116344  0  3.914089  0
C  C51  1  0.15869385  0.75854136  0.88003341  1  0  0.152472  0  3.671181  0  0  0.120871  0  3.925066  0  0  0.127949  0  3.941734  0  0  0.059275  0.116331  0  3.914139  0
C  C52  1  0.14488993  0.99446827  0.27149375  1  0  0.659723  0  3.898391  0  0  0.607092  0  4.197023  0  0  0.642187  0  4.188631  0  0  0.208573  0.583229  0  4.202256  0
C  C53  1  0.85512139  0.00552652  0.72850962  1  0  0.659807  0  3.898385  0  0  0.607142  0  4.197077  0  0  0.642243  0  4.188676  0  0  0.208644  0.583269  0  4.202323  0
C  C54  1  0.04850485  0.89904543  0.35058427  1  0  -0.104771  0  3.747715  0  0  -0.0961  0  3.99047  0  0  -0.104214  0  4.012515  0  0  -0.025383  -0.091213  0  3.97556  0
C  C55  1  0.95150785  0.10095040  0.64942116  1  0  -0.104858  0  3.747797  0  0  -0.096269  0  3.990597  0  0  -0.104388  0  4.012636  0  0  -0.025469  -0.091363  0  3.975715  0
C  C56  1  0.89657999  0.85211421  0.31105648  1  0  -0.022147  0  3.723134  0  0  -0.006374  0  3.955258  0  0  -0.007437  0  3.973846  0  0  -0.005995  -0.005418  0  3.942198  0
C  C57  1  0.10342847  0.14788162  0.68894954  1  0  -0.022174  0  3.723172  0  0  -0.006234  0  3.955011  0  0  -0.007289  0  3.973592  0  0  -0.005917  -0.005356  0  3.942069  0
C  C58  1  0.80583964  0.77087892  0.38943354  1  0  -0.227743  0  3.746884  0  0  -0.255462  0  3.99553  0  0  -0.261569  0  4.014847  0  0  -0.107804  -0.251128  0  3.982608  0
C  C59  1  0.19417501  0.22912417  0.61057706  1  0  -0.227806  0  3.747015  0  0  -0.255597  0  3.995643  0  0  -0.261705  0  4.014957  0  0  -0.107854  -0.251243  0  3.982742  0
C  C60  1  0.86724841  0.73142450  0.50542925  1  0  0.295266  0  3.779542  0  0  0.285435  0  4.04314  0  0  0.29786  0  4.056351  0  0  0.087447  0.276952  0  4.033776  0
C  C61  1  0.13276945  0.26857860  0.49458162  1  0  0.295327  0  3.779346  0  0  0.285382  0  4.043106  0  0  0.297803  0  4.056324  0  0  0.087396  0.276912  0  4.03372  0
C  C62  1  0.01826870  0.77586943  0.54514017  1  0  -0.170845  0  3.733486  0  0  -0.197617  0  3.996403  0  0  -0.201881  0  4.013889  0  0  -0.10393  -0.195121  0  3.985016  0
C  C63  1  0.98174775  0.22413262  0.45486770  1  0  -0.170818  0  3.733212  0  0  -0.197539  0  3.996116  0  0  -0.2018  0  4.013601  0  0  -0.103924  -0.195044  0  3.984711  0
C  C64  1  0.10718334  0.85980088  0.46811074  1  0  -0.044278  0  3.752182  0  0  -0.067034  0  4.007598  0  0  -0.064968  0  4.026195  0  0  -0.079558  -0.068335  0  3.995534  0
C  C65  1  0.89282993  0.14019289  0.53189561  1  0  -0.044243  0  3.752257  0  0  -0.067064  0  4.00762  0  0  -0.064995  0  4.026215  0  0  -0.079503  -0.068351  0  3.995537  0
C  C66  1  0.83131571  0.86601324  0.17566263  1  0  0.668865  0  3.891508  0  0  0.614598  0  4.19395  0  0  0.649401  0  4.183684  0  0  0.213802  0.590717  0  4.200597  0
C  C67  1  0.16869675  0.13398570  0.82434479  1  0  0.668758  0  3.891762  0  0  0.614574  0  4.194028  0  0  0.64937  0  4.183772  0  0  0.213798  0.590704  0  4.200693  0
C  C68  1  0.64192603  0.57612551  0.53981393  1  0  0.252302  0  3.792658  0  0  0.240522  0  4.061483  0  0  0.248322  0  4.07929  0  0  0.076467  0.235032  0  4.04933  0
C  C69  1  0.35809019  0.42388379  0.46019703  1  0  0.2522  0  3.793013  0  0  0.240531  0  4.061671  0  0  0.248334  0  4.079478  0  0  0.076471  0.235034  0  4.04953  0
C  C70  1  0.61828061  0.43946814  0.49073809  1  0  -0.152887  0  3.752819  0  0  -0.174686  0  4.007337  0  0  -0.178082  0  4.028251  0  0  -0.093031  -0.171958  0  3.993287  0
C  C71  1  0.38173517  0.56054426  0.50926723  1  0  -0.152833  0  3.752796  0  0  -0.174615  0  4.00726  0  0  -0.178008  0  4.028175  0  0  -0.092994  -0.171887  0  3.993214  0
C  C72  1  0.52474172  0.63758478  0.54982569  1  0  -0.150641  0  3.728502  0  0  -0.170284  0  3.979063  0  0  -0.173822  0  3.999141  0  0  -0.091231  -0.167541  0  3.964932  0
C  C73  1  0.47527255  0.36242555  0.45018228  1  0  -0.150708  0  3.728597  0  0  -0.1704  0  3.979168  0  0  -0.173936  0  3.999234  0  0  -0.091259  -0.167659  0  3.96504  0
N  N74  1  0.98074236  0.31250467  0.12171821  1  0  -0.34289  0  3.247599  0  0  -0.275281  0  3.518654  0  0  -0.291556  0  3.532322  0  0  -0.31846  -0.264353  0  3.509478  0
N  N75  1  0.01924558  0.68749110  0.87827657  1  0  -0.342983  0  3.247621  0  0  -0.275348  0  3.518639  0  0  -0.291623  0  3.532308  0  0  -0.318489  -0.26442  0  3.509462  0
N  N76  1  0.26508367  0.43151788  0.13570393  1  0  -0.357172  0  3.302625  0  0  -0.282253  0  3.576301  0  0  -0.300838  0  3.590635  0  0  -0.325644  -0.269577  0  3.566418  0
N  N77  1  0.73490825  0.56848100  0.86429129  1  0  -0.357327  0  3.302819  0  0  -0.282442  0  3.576547  0  0  -0.301027  0  3.590879  0  0  -0.325759  -0.269763  0  3.566657  0
O  O78  1  0.78530629  0.64783942  0.58607856  1  0  -0.309369  0  2.351944  0  0  -0.242003  0  2.582486  0  0  -0.259482  0  2.585525  0  0  -0.15631  -0.228886  0  2.57989  0
O  O79  1  0.21470841  0.35216781  0.41393505  1  0  -0.309364  0  2.352167  0  0  -0.242012  0  2.58273  0  0  -0.259494  0  2.585763  0  0  -0.156353  -0.2289  0  2.580136  0
O  O80  1  0.71928250  0.91378770  0.15334108  1  0  -0.618397  0  1.925801  0  0  -0.565837  0  2.136861  0  0  -0.589025  0  2.125575  0  0  -0.317635  -0.54935  0  2.144097  0
O  O81  1  0.28072265  0.08620710  0.84667033  1  0  -0.618271  0  1.926095  0  0  -0.565795  0  2.137153  0  0  -0.588977  0  2.125869  0  0  -0.317621  -0.549303  0  2.144382  0
O  O82  1  0.89504597  0.81238406  0.09213975  1  0  -0.655096  0  2.081276  0  0  -0.585855  0  2.360363  0  0  -0.614738  0  2.345917  0  0  -0.331533  -0.565993  0  2.369904  0
O  O83  1  0.10496242  0.18762004  0.90786560  1  0  -0.655084  0  2.081119  0  0  -0.585913  0  2.360198  0  0  -0.614797  0  2.345754  0  0  -0.331572  -0.566043  0  2.369732  0
O  O84  1  0.08054691  0.07597368  0.20725301  1  0  -0.642909  0  2.109266  0  0  -0.570717  0  2.38784  0  0  -0.600223  0  2.373926  0  0  -0.321783  -0.550754  0  2.396637  0
O  O85  1  0.91945735  0.92402628  0.79275661  1  0  -0.642946  0  2.109207  0  0  -0.57072  0  2.387744  0  0  -0.600239  0  2.37387  0  0  -0.321879  -0.550753  0  2.396542  0
O  O86  1  0.27842224  0.99143882  0.27370777  1  0  -0.625051  0  1.922307  0  0  -0.572847  0  2.132377  0  0  -0.596253  0  2.120843  0  0  -0.323936  -0.556947  0  2.140362  0
O  O87  1  0.72158189  0.00854973  0.72628336  1  0  -0.625046  0  1.922356  0  0  -0.572856  0  2.132435  0  0  -0.596263  0  2.120899  0  0  -0.323916  -0.556945  0  2.140418  0
O  O88  1  0.36791779  0.16043554  0.09748414  1  0  -0.837434  0  1.899804  0  0  -0.770733  0  2.092744  0  0  -0.792764  0  2.055375  0  0  -0.578739  -0.75448  0  2.118037  0
O  O89  1  0.63207749  0.83956750  0.90251817  1  0  -0.837415  0  1.899764  0  0  -0.770772  0  2.092674  0  0  -0.792801  0  2.055299  0  0  -0.578761  -0.754521  0  2.11797  0
