# generated using pymatgen
data_Zn3H26C42(NO3)4
_symmetry_space_group_name_H-M   'P 1'
_cell_length_a   15.11790164
_cell_length_b   15.11791612
_cell_length_c   21.93235794
_cell_angle_alpha   90.00007519
_cell_angle_beta   89.99997586
_cell_angle_gamma   109.95520303
_symmetry_Int_Tables_number   1
_chemical_formula_structural   Zn3H26C42(NO3)4
_chemical_formula_sum   'Zn12 H104 C168 N16 O48'
_cell_volume   4711.70428908
_cell_formula_units_Z   4
loop_
 _symmetry_equiv_pos_site_id
 _symmetry_equiv_pos_as_xyz
  1  'x, y, z'
loop_
 _atom_site_type_symbol
 _atom_site_label
 _atom_site_symmetry_multiplicity
 _atom_site_fract_x
 _atom_site_fract_y
 _atom_site_fract_z
 _atom_site_occupancy
 _atom_site_pbe_bader_charge
 _atom_site_pbe_bader_spin_density
 _atom_site_pbe_cm5_charge
 _atom_site_pbe_ddec_charge
 _atom_site_pbe_ddec_spin_density
 _atom_site_pbe_ddec_sum_bond_order
 _atom_site_pbe_magmom
Zn  Zn0  1  0.21236630  0.13768171  0.83929647  1  1.307685  0  0.683844  0.81145  0  2.345172  0
Zn  Zn1  1  0.78763317  0.86231762  0.33929621  1  1.307708  0  0.683868  0.811449  0  2.345202  0
Zn  Zn2  1  0.86231710  0.78763343  0.66070393  1  1.307712  0  0.683838  0.811406  0  2.345221  0
Zn  Zn3  1  0.13768236  0.21236688  0.16070418  1  1.307686  0  0.683851  0.811446  0  2.34518  0
Zn  Zn4  1  0.22959431  0.64588076  0.89533080  1  1.299878  0  0.683102  0.798896  0  2.364952  0
Zn  Zn5  1  0.77040516  0.35411868  0.39533055  1  1.299869  0  0.683109  0.798931  0  2.364928  0
Zn  Zn6  1  0.35411976  0.77040755  0.60466989  1  1.299833  0  0.683082  0.798851  0  2.36496  0
Zn  Zn7  1  0.64588110  0.22959181  0.10466956  1  1.299874  0  0.6831  0.798832  0  2.365038  0
Zn  Zn8  1  0.28071542  0.71928447  0.75000035  1  1.419497  0  0.691539  1.029052  0  2.324229  0
Zn  Zn9  1  0.71928475  0.28071493  0.25000050  1  1.41961  0  0.691542  1.029076  0  2.324166  0
Zn  Zn10  1  0.17589893  0.17589903  0.00000005  1  1.442736  0  0.703013  1.072119  0  2.205358  0
Zn  Zn11  1  0.82410123  0.82410188  0.50000030  1  1.442701  0  0.703  1.072124  0  2.205311  0
H  H12  1  0.36341868  0.50548031  0.70149383  1  0.126777  0  0.117635  0.125207  0  0.97733  0
H  H13  1  0.63658219  0.49452056  0.20149146  1  0.126728  0  0.117683  0.125286  0  0.977241  0
H  H14  1  0.49451953  0.63657711  0.79850579  1  0.12672  0  0.117658  0.125252  0  0.977323  0
H  H15  1  0.50548064  0.36342437  0.29850516  1  0.126726  0  0.117663  0.125226  0  0.977322  0
H  H16  1  0.39015438  0.35964659  0.66552727  1  0.066277  0  0.110294  0.11642  0  0.995434  0
H  H17  1  0.60984789  0.64035337  0.16552367  1  0.066241  0  0.11027  0.116396  0  0.995409  0
H  H18  1  0.64035334  0.60984250  0.83447179  1  0.066285  0  0.110269  0.116398  0  0.995432  0
H  H19  1  0.35964613  0.39015748  0.33447168  1  0.066293  0  0.110276  0.116443  0  0.995408  0
H  H20  1  0.21743705  0.34829131  0.85699872  1  0.148723  0  0.125278  0.108946  0  1.004941  0
H  H21  1  0.78255749  0.65170705  0.35699828  1  0.148919  0  0.125264  0.10892  0  1.004937  0
H  H22  1  0.65170663  0.78256147  0.64300135  1  0.148454  0  0.125255  0.108896  0  1.004932  0
H  H23  1  0.34829284  0.21743881  0.14300109  1  0.148413  0  0.125262  0.108903  0  1.004932  0
H  H24  1  0.42470091  0.23826713  0.65088036  1  0.07253  0  0.107025  0.109021  0  1.01879  0
H  H25  1  0.57530348  0.76173550  0.15087597  1  0.072512  0  0.107037  0.10908  0  1.018687  0
H  H26  1  0.76173476  0.57529985  0.84912089  1  0.072557  0  0.107042  0.109075  0  1.018772  0
H  H27  1  0.23826611  0.42469800  0.34912222  1  0.072513  0  0.107032  0.109061  0  1.018771  0
H  H28  1  0.43683869  0.08055732  0.62884846  1  0.134652  0  0.111348  0.114903  0  1.008226  0
H  H29  1  0.56316641  0.91944551  0.12884649  1  0.13447  0  0.111351  0.114935  0  1.008149  0
H  H30  1  0.91944565  0.56316546  0.87115224  1  0.134474  0  0.111352  0.114913  0  1.008169  0
H  H31  1  0.08055664  0.43683555  0.37115362  1  0.134447  0  0.111323  0.114893  0  1.008151  0
H  H32  1  0.23855154  0.96710995  0.77398011  1  0.149866  0  0.128708  0.113418  0  0.989133  0
H  H33  1  0.76145003  0.03288931  0.27398048  1  0.149849  0  0.128725  0.113446  0  0.989111  0
H  H34  1  0.03289060  0.76145029  0.72601940  1  0.149835  0  0.128769  0.113513  0  0.989007  0
H  H35  1  0.96710958  0.23855238  0.22601990  1  0.149866  0  0.128731  0.113469  0  0.989083  0
H  H36  1  0.46768986  0.23034520  0.04120719  1  0.136339  0  0.129381  0.114738  0  0.994971  0
H  H37  1  0.53231030  0.76965446  0.54120701  1  0.136326  0  0.129385  0.114767  0  0.994925  0
H  H38  1  0.76965486  0.53231177  0.45879348  1  0.136325  0  0.12939  0.114757  0  0.994963  0
H  H39  1  0.23034603  0.46768894  0.95879358  1  0.136329  0  0.12939  0.114776  0  0.99492  0
H  H40  1  0.46776408  0.10951628  0.86357334  1  0.107112  0  0.115072  0.120656  0  0.977948  0
H  H41  1  0.53223679  0.89048357  0.36357318  1  0.107118  0  0.115078  0.120673  0  0.977927  0
H  H42  1  0.89048194  0.53223616  0.63642781  1  0.107087  0  0.115101  0.120735  0  0.977854  0
H  H43  1  0.10951541  0.46776339  0.13642784  1  0.107083  0  0.115065  0.120675  0  0.977935  0
H  H44  1  0.62065631  0.08806858  0.89098213  1  0.065795  0  0.107783  0.112951  0  1.019887  0
H  H45  1  0.37934456  0.91193133  0.39098248  1  0.065648  0  0.107779  0.112931  0  1.019876  0
H  H46  1  0.91192798  0.37934300  0.60901846  1  0.065788  0  0.1078  0.112952  0  1.019859  0
H  H47  1  0.08807219  0.62065811  0.10901818  1  0.065842  0  0.107786  0.112929  0  1.019885  0
H  H48  1  0.85526531  0.22747360  0.11847014  1  0.159551  0  0.12401  0.106593  0  0.988534  0
H  H49  1  0.14473556  0.77252645  0.61847054  1  0.159543  0  0.124003  0.106576  0  0.988533  0
H  H50  1  0.77252298  0.14473575  0.38153029  1  0.159534  0  0.124002  0.106576  0  0.988585  0
H  H51  1  0.22747508  0.85526385  0.88152983  1  0.159543  0  0.123988  0.106562  0  0.988578  0
H  H52  1  0.73930152  0.05975130  0.92622774  1  0.079462  0  0.103175  0.106578  0  1.042469  0
H  H53  1  0.26069795  0.94024754  0.42622770  1  0.079478  0  0.103185  0.106604  0  1.042428  0
H  H54  1  0.94024762  0.26069992  0.57377185  1  0.079482  0  0.103206  0.106605  0  1.042431  0
H  H55  1  0.05975255  0.73930046  0.07377260  1  0.079482  0  0.103191  0.106589  0  1.042418  0
H  H56  1  0.89493223  0.06357483  0.96697117  1  0.125072  0  0.113229  0.118547  0  0.997517  0
H  H57  1  0.10506795  0.93642499  0.46697117  1  0.125091  0  0.113213  0.118528  0  0.997436  0
H  H58  1  0.93642497  0.10506905  0.53302833  1  0.125132  0  0.113203  0.118501  0  0.997481  0
H  H59  1  0.06357378  0.89493078  0.03302831  1  0.125105  0  0.113198  0.118487  0  0.997503  0
H  H60  1  0.83839965  0.25929328  0.83199672  1  0.064125  0  0.095858  0.092091  0  1.020982  0
H  H61  1  0.16159841  0.74070622  0.33199608  1  0.064109  0  0.09588  0.092122  0  1.020921  0
H  H62  1  0.74070441  0.16159774  0.66800475  1  0.064105  0  0.095876  0.092101  0  1.020952  0
H  H63  1  0.25929646  0.83840373  0.16800599  1  0.064151  0  0.09586  0.092076  0  1.020936  0
H  H64  1  0.70664312  0.32008236  0.84321900  1  0.043413  0  0.096398  0.092083  0  0.999852  0
H  H65  1  0.29335776  0.67992011  0.34321872  1  0.043397  0  0.096409  0.092097  0  0.999782  0
H  H66  1  0.67991791  0.29335624  0.65678122  1  0.043406  0  0.096405  0.092123  0  0.999843  0
H  H67  1  0.32008155  0.70664406  0.15678232  1  0.043371  0  0.096407  0.092122  0  0.999834  0
H  H68  1  0.70204174  0.42201846  0.93201661  1  0.060152  0  0.102538  0.099818  0  0.98595  0
H  H69  1  0.29795985  0.57798442  0.43201624  1  0.060128  0  0.102565  0.09985  0  0.985955  0
H  H70  1  0.57798283  0.29795825  0.56798276  1  0.060156  0  0.102561  0.099859  0  0.985916  0
H  H71  1  0.42201663  0.70204122  0.06798383  1  0.060144  0  0.102565  0.099864  0  0.985905  0
H  H72  1  0.83288689  0.46712595  0.00665054  1  0.110756  0  0.099489  0.101696  0  1.027023  0
H  H73  1  0.16711609  0.53287725  0.50664980  1  0.110655  0  0.099477  0.101676  0  1.027086  0
H  H74  1  0.53287691  0.16711345  0.49334914  1  0.110752  0  0.099489  0.101719  0  1.027011  0
H  H75  1  0.46712186  0.83288527  0.99334950  1  0.110676  0  0.099499  0.10167  0  1.027082  0
H  H76  1  0.96693394  0.40832682  0.99469747  1  0.068962  0  0.097102  0.095817  0  1.017599  0
H  H77  1  0.03306765  0.59167352  0.49469719  1  0.068991  0  0.09713  0.095857  0  1.017575  0
H  H78  1  0.59167390  0.03306592  0.50530310  1  0.068965  0  0.097108  0.095827  0  1.017591  0
H  H79  1  0.40832485  0.96693253  0.00530304  1  0.068984  0  0.097123  0.095845  0  1.017587  0
H  H80  1  0.04997680  0.32440221  0.93906105  1  0.106482  0  0.107232  0.1095  0  1.005693  0
H  H81  1  0.95002267  0.67559401  0.43906057  1  0.106467  0  0.107252  0.109521  0  1.005652  0
H  H82  1  0.67559576  0.95002278  0.56094002  1  0.106496  0  0.107261  0.109533  0  1.005634  0
H  H83  1  0.32440441  0.04997824  0.06094007  1  0.106481  0  0.107259  0.109536  0  1.00565  0
H  H84  1  0.92781374  0.17481310  0.85012149  1  0.066346  0  0.097445  0.103601  0  1.051425  0
H  H85  1  0.07218502  0.82518469  0.35012186  1  0.066387  0  0.097456  0.10357  0  1.051486  0
H  H86  1  0.82518659  0.07218637  0.64987851  1  0.066353  0  0.097437  0.103586  0  1.051409  0
H  H87  1  0.17481288  0.92781392  0.14987803  1  0.066354  0  0.097455  0.103605  0  1.051483  0
H  H88  1  0.48413708  0.87607973  0.81441207  1  0.072844  0  0.105217  0.128986  0  0.996744  0
H  H89  1  0.51586379  0.12392070  0.31441077  1  0.072824  0  0.105185  0.128953  0  0.996748  0
H  H90  1  0.12391665  0.51586672  0.68558678  1  0.072828  0  0.105168  0.128942  0  0.996761  0
H  H91  1  0.87608211  0.48413406  0.18558570  1  0.072889  0  0.105214  0.129  0  0.996751  0
H  H92  1  0.56911317  0.77924769  0.91000320  1  0.075107  0  0.100596  0.097812  0  1.005874  0
H  H93  1  0.43088630  0.22075178  0.41000246  1  0.075128  0  0.100624  0.09785  0  1.00586  0
H  H94  1  0.22075314  0.43089258  0.58999692  1  0.075116  0  0.100601  0.097837  0  1.005826  0
H  H95  1  0.77924492  0.56910844  0.08999640  1  0.075062  0  0.100597  0.097814  0  1.005797  0
H  H96  1  0.62660356  0.97389537  0.78851201  1  0.053408  0  0.101969  0.104012  0  0.998583  0
H  H97  1  0.37339450  0.02610339  0.28851066  1  0.053405  0  0.101962  0.104004  0  0.998561  0
H  H98  1  0.02610506  0.37339877  0.71148819  1  0.053356  0  0.101938  0.103974  0  0.998541  0
H  H99  1  0.97389439  0.62659701  0.21148721  1  0.053288  0  0.101933  0.10393  0  0.99857  0
H  H100  1  0.78929307  0.06139400  0.75587259  1  0.050139  0  0.094819  0.085149  0  1.03101  0
H  H101  1  0.21070569  0.93860626  0.25587119  1  0.050008  0  0.094831  0.085177  0  1.030966  0
H  H102  1  0.93860705  0.21071058  0.74412606  1  0.050122  0  0.09482  0.085122  0  1.031084  0
H  H103  1  0.06139241  0.78928526  0.24412731  1  0.050096  0  0.094824  0.08513  0  1.031032  0
H  H104  1  0.92502080  0.02652135  0.80232674  1  0.113938  0  0.105596  0.115098  0  1.025885  0
H  H105  1  0.07497797  0.97348032  0.30232633  1  0.113949  0  0.105583  0.115079  0  1.025869  0
H  H106  1  0.97348010  0.07498285  0.69767134  1  0.113665  0  0.105535  0.11496  0  1.026025  0
H  H107  1  0.02652006  0.92501380  0.19767455  1  0.113657  0  0.105561  0.11497  0  1.025963  0
H  H108  1  0.89559159  0.90322356  0.88166973  1  0.060141  0  0.104957  0.106564  0  0.980663  0
H  H109  1  0.10440859  0.09677808  0.38166898  1  0.060132  0  0.104966  0.106574  0  0.98069  0
H  H110  1  0.09677786  0.10441280  0.61832844  1  0.060154  0  0.104957  0.106519  0  0.980614  0
H  H111  1  0.90322441  0.89558640  0.11833091  1  0.060206  0  0.104935  0.106524  0  0.980685  0
H  H112  1  0.73152681  0.81482256  0.91512394  1  0.05421  0  0.097728  0.09397  0  1.003705  0
H  H113  1  0.26847407  0.18517872  0.41512276  1  0.054231  0  0.097696  0.093904  0  1.003676  0
H  H114  1  0.18517715  0.26847892  0.58487474  1  0.054177  0  0.097688  0.093949  0  1.003725  0
H  H115  1  0.81482231  0.73152124  0.08487572  1  0.054206  0  0.097691  0.093908  0  1.003748  0
C  C116  1  0.26945672  0.52347651  0.80413216  1  1.61474  0  0.218403  0.593267  0  4.210878  0
C  C117  1  0.73054133  0.47652096  0.30413020  1  1.614715  0  0.218369  0.593168  0  4.211122  0
C  C118  1  0.47651943  0.73053837  0.69586890  1  1.615264  0  0.218305  0.593197  0  4.211165  0
C  C119  1  0.52347862  0.26946021  0.19586727  1  1.615108  0  0.21828  0.593118  0  4.211102  0
C  C120  1  0.28907746  0.43822423  0.78212172  1  -0.066253  0  -0.005263  -0.065044  0  3.948942  0
C  C121  1  0.71092131  0.56177607  0.28212121  1  -0.065938  0  -0.005289  -0.06506  0  3.949064  0
C  C122  1  0.56177516  0.71091975  0.71787745  1  -0.066281  0  -0.005169  -0.064899  0  3.948894  0
C  C123  1  0.43822501  0.28908158  0.21787678  1  -0.065987  0  -0.005224  -0.065031  0  3.948958  0
C  C124  1  0.33784877  0.44039626  0.72764056  1  0.009136  0  -0.05811  -0.03872  0  3.943316  0
C  C125  1  0.66215140  0.55960243  0.22763824  1  0.008849  0  -0.058054  -0.038686  0  3.943062  0
C  C126  1  0.55960361  0.66214847  0.77235903  1  0.009303  0  -0.058171  -0.0389  0  3.943356  0
C  C127  1  0.44039657  0.33785362  0.27235840  1  0.009303  0  -0.058118  -0.038694  0  3.943328  0
C  C128  1  0.35180964  0.35894262  0.70764313  1  -0.031932  0  -0.078932  -0.159964  0  3.961757  0
C  C129  1  0.64819193  0.64105784  0.20764180  1  -0.031968  0  -0.078949  -0.159977  0  3.96179  0
C  C130  1  0.64105653  0.64818891  0.79235550  1  -0.031729  0  -0.07895  -0.159938  0  3.961759  0
C  C131  1  0.35894364  0.35181189  0.29235490  1  -0.031746  0  -0.078967  -0.160053  0  3.961843  0
C  C132  1  0.31353680  0.27597572  0.74144567  1  0.516649  0  0.125723  0.170752  0  3.989053  0
C  C133  1  0.68646337  0.72402366  0.24144257  1  0.516648  0  0.125634  0.170642  0  3.989315  0
C  C134  1  0.72402495  0.68646241  0.75855385  1  0.516143  0  0.125789  0.170862  0  3.988957  0
C  C135  1  0.27597522  0.31353767  0.25855415  1  0.516292  0  0.125751  0.17082  0  3.98899  0
C  C136  1  0.25486200  0.35337894  0.81393039  1  0.518584  0  0.067035  0.09894  0  3.878869  0
C  C137  1  0.74513395  0.64661782  0.31392904  1  0.518439  0  0.067042  0.098957  0  3.878904  0
C  C138  1  0.64661974  0.74513539  0.68607057  1  0.518854  0  0.067006  0.098923  0  3.879039  0
C  C139  1  0.35337902  0.25486473  0.18606989  1  0.518909  0  0.067061  0.098992  0  3.879055  0
C  C140  1  0.32342483  0.18540823  0.72380912  1  0.486479  0  0.126577  0.176074  0  3.975554  0
C  C141  1  0.67657885  0.81459297  0.22380657  1  0.486488  0  0.126617  0.17607  0  3.97548  0
C  C142  1  0.81459250  0.67657580  0.77619170  1  0.486615  0  0.126648  0.176121  0  3.975584  0
C  C143  1  0.18540767  0.32342431  0.27619249  1  0.486494  0  0.126606  0.176087  0  3.975588  0
C  C144  1  0.38300126  0.17689662  0.67694913  1  0.023809  0  -0.081109  -0.165437  0  3.958564  0
C  C145  1  0.61700242  0.82310449  0.17694614  1  0.023779  0  -0.081082  -0.165472  0  3.958356  0
C  C146  1  0.82310485  0.61700169  0.82305120  1  0.023933  0  -0.081152  -0.165586  0  3.958685  0
C  C147  1  0.17689673  0.38299899  0.32305205  1  0.023776  0  -0.081122  -0.165577  0  3.958616  0
C  C148  1  0.39049129  0.08940359  0.66467681  1  -0.077447  0  -0.057506  -0.032466  0  3.932076  0
C  C149  1  0.60951380  0.91059864  0.16467482  1  -0.077242  0  -0.057584  -0.032584  0  3.932126  0
C  C150  1  0.91059853  0.60951238  0.83532437  1  -0.077326  0  -0.05751  -0.032448  0  3.932047  0
C  C151  1  0.08940235  0.39048941  0.33532480  1  -0.077177  0  -0.057461  -0.032349  0  3.931858  0
C  C152  1  0.33818976  0.01201344  0.69963563  1  -0.010686  0  -0.008834  -0.073868  0  3.94792  0
C  C153  1  0.66181392  0.98798772  0.19963461  1  -0.010642  0  -0.008845  -0.073799  0  3.947939  0
C  C154  1  0.98798904  0.66181414  0.80036554  1  -0.010728  0  -0.008858  -0.073808  0  3.947929  0
C  C155  1  0.01201254  0.33819047  0.30036503  1  -0.010734  0  -0.008886  -0.073936  0  3.947855  0
C  C156  1  0.27993369  0.02576605  0.74555638  1  0.514318  0  0.069674  0.103255  0  3.87622  0
C  C157  1  0.72006930  0.97423496  0.24555578  1  0.513818  0  0.069697  0.103263  0  3.876103  0
C  C158  1  0.97423574  0.72006835  0.75444437  1  0.5142  0  0.069619  0.103125  0  3.876114  0
C  C159  1  0.02576444  0.27993503  0.25444426  1  0.514318  0  0.069632  0.103195  0  3.876192  0
C  C160  1  0.34085227  0.91473558  0.68966401  1  1.623651  0  0.212574  0.586205  0  4.22166  0
C  C161  1  0.65915282  0.08526603  0.18966628  1  1.623681  0  0.212538  0.586109  0  4.22194  0
C  C162  1  0.08526614  0.65915267  0.81033723  1  1.623645  0  0.212547  0.586145  0  4.221732  0
C  C163  1  0.91473475  0.34085238  0.31033829  1  1.623635  0  0.212574  0.586155  0  4.22155  0
C  C164  1  0.36315291  0.18304296  0.93618574  1  1.634174  0  0.215344  0.5984  0  4.212288  0
C  C165  1  0.63684727  0.81695746  0.43618548  1  1.634174  0  0.215307  0.598347  0  4.212335  0
C  C166  1  0.81695702  0.63684774  0.56381369  1  1.634188  0  0.21532  0.598321  0  4.212399  0
C  C167  1  0.18304315  0.36315262  0.06381498  1  1.63413  0  0.215311  0.598401  0  4.212352  0
C  C168  1  0.49950358  0.19937003  0.00639331  1  0.526156  0  0.068273  0.096748  0  3.881108  0
C  C169  1  0.50049658  0.80062823  0.50639272  1  0.526151  0  0.068334  0.096824  0  3.881029  0
C  C170  1  0.80062991  0.50049779  0.49360778  1  0.526148  0  0.068265  0.096772  0  3.881177  0
C  C171  1  0.19937168  0.49950321  0.99360791  1  0.526161  0  0.068282  0.09678  0  3.881133  0
C  C172  1  0.45623609  0.17173976  0.95001506  1  0.023397  0  -0.006966  -0.072437  0  3.951734  0
C  C173  1  0.54376408  0.82826068  0.45001484  1  0.023379  0  -0.007038  -0.072535  0  3.951827  0
C  C174  1  0.82826056  0.54376476  0.54998522  1  0.023342  0  -0.007003  -0.072473  0  3.951767  0
C  C175  1  0.17173961  0.45623624  0.04998614  1  0.023355  0  -0.006992  -0.07244  0  3.951765  0
C  C176  1  0.50072621  0.13138794  0.90786179  1  -0.056164  0  -0.058004  -0.04067  0  3.936743  0
C  C177  1  0.49927537  0.86861357  0.40786253  1  -0.056194  0  -0.057979  -0.040684  0  3.936775  0
C  C178  1  0.86861162  0.49927410  0.59213889  1  -0.056384  0  -0.058055  -0.040813  0  3.936669  0
C  C179  1  0.13138643  0.50072494  0.09213804  1  -0.056399  0  -0.057997  -0.040782  0  3.936805  0
C  C180  1  0.58540835  0.11971670  0.92318434  1  -0.01656  0  -0.077835  -0.157496  0  3.95342  0
C  C181  1  0.41459253  0.88028261  0.42318466  1  -0.016358  0  -0.077877  -0.157466  0  3.953468  0
C  C182  1  0.88028063  0.41459141  0.57681629  1  -0.016304  0  -0.07787  -0.157461  0  3.953328  0
C  C183  1  0.11971883  0.58540874  0.07681688  1  -0.016371  0  -0.077856  -0.157396  0  3.953233  0
C  C184  1  0.62533995  0.15048978  0.98036196  1  0.496121  0  0.130708  0.178153  0  3.965138  0
C  C185  1  0.37465952  0.84950850  0.48036181  1  0.496174  0  0.130753  0.178185  0  3.965246  0
C  C186  1  0.84950718  0.37465948  0.51963866  1  0.496179  0  0.130744  0.178239  0  3.965144  0
C  C187  1  0.15049368  0.62534104  0.01963837  1  0.496211  0  0.130692  0.178143  0  3.965149  0
C  C188  1  0.83243479  0.18995300  0.07561701  1  0.491443  0  0.062305  0.094369  0  3.89393  0
C  C189  1  0.16756607  0.81004697  0.57561743  1  0.491433  0  0.062321  0.094432  0  3.893855  0
C  C190  1  0.81004388  0.16756684  0.42438342  1  0.509054  0  0.062365  0.094467  0  3.893839  0
C  C191  1  0.18995419  0.83243284  0.92438294  1  0.491176  0  0.062354  0.094469  0  3.893855  0
C  C192  1  0.71665779  0.14469265  0.00066929  1  0.514103  0  0.125121  0.171751  0  3.980257  0
C  C193  1  0.28334237  0.85530627  0.50066881  1  0.513856  0  0.125099  0.171745  0  3.980167  0
C  C194  1  0.85530383  0.28334274  0.49933163  1  0.514016  0  0.125107  0.171729  0  3.980163  0
C  C195  1  0.14469565  0.71665757  0.99933152  1  0.513832  0  0.125091  0.171712  0  3.980167  0
C  C196  1  0.76658469  0.09700337  0.96843981  1  -0.067458  0  -0.078078  -0.151553  0  3.938453  0
C  C197  1  0.23341478  0.90299622  0.46844020  1  -0.067492  0  -0.078078  -0.151574  0  3.938419  0
C  C198  1  0.90299521  0.23341498  0.53155978  1  -0.067501  0  -0.078068  -0.151542  0  3.938387  0
C  C199  1  0.09700425  0.76658508  0.03155918  1  -0.067502  0  -0.078085  -0.151536  0  3.938471  0
C  C200  1  0.85288970  0.09818345  0.99113959  1  0.012293  0  -0.058762  -0.03842  0  3.936448  0
C  C201  1  0.14711118  0.90181599  0.49113955  1  0.012283  0  -0.058736  -0.038367  0  3.936362  0
C  C202  1  0.90181555  0.14711311  0.50885995  1  0.011687  0  -0.05872  -0.038326  0  3.936427  0
C  C203  1  0.09818320  0.85288600  0.00885943  1  0.012136  0  -0.058705  -0.038352  0  3.936514  0
C  C204  1  0.88764318  0.14598761  0.04547567  1  0.008466  0  -0.007071  -0.070174  0  3.934666  0
C  C205  1  0.11235698  0.85401140  0.54547569  1  0.008502  0  -0.007092  -0.070225  0  3.934673  0
C  C206  1  0.85400993  0.11235796  0.45452470  1  -0.008496  0  -0.007074  -0.070147  0  3.93445  0
C  C207  1  0.14598743  0.88764154  0.95452429  1  0.008923  0  -0.007075  -0.070163  0  3.934558  0
C  C208  1  0.98428864  0.15446252  0.06816816  1  1.608686  0  0.214671  0.594608  0  4.205866  0
C  C209  1  0.01571152  0.84553587  0.56816911  1  1.608688  0  0.21473  0.594645  0  4.205878  0
C  C210  1  0.84553621  0.01571168  0.43183125  1  1.608744  0  0.214649  0.594393  0  4.205969  0
C  C211  1  0.15446326  0.98428783  0.93183183  1  1.608726  0  0.214663  0.594601  0  4.205965  0
C  C212  1  0.83742627  0.30447008  0.87061366  1  -0.055799  0  -0.093127  -0.131261  0  3.967957  0
C  C213  1  0.16257391  0.69553088  0.37061343  1  -0.056083  0  -0.093136  -0.131223  0  3.967806  0
C  C214  1  0.69552989  0.16257290  0.62938693  1  -0.055801  0  -0.093157  -0.131254  0  3.967917  0
C  C215  1  0.30447168  0.83742741  0.12938815  1  -0.055936  0  -0.093124  -0.131189  0  3.96799  0
C  C216  1  0.76347110  0.33904567  0.87670879  1  -0.067954  0  -0.099448  -0.098642  0  4.064032  0
C  C217  1  0.23652837  0.66095572  0.37670896  1  -0.067903  0  -0.099453  -0.098666  0  4.064024  0
C  C218  1  0.66095389  0.23652763  0.62329186  1  -0.067934  0  -0.099415  -0.09866  0  4.064043  0
C  C219  1  0.33904487  0.76347370  0.12329301  1  -0.067891  0  -0.099434  -0.098686  0  4.06406  0
C  C220  1  0.76138650  0.39733343  0.92588820  1  -0.027778  0  -0.090406  -0.079188  0  3.998899  0
C  C221  1  0.23861720  0.60266882  0.42588696  1  -0.027768  0  -0.090427  -0.079287  0  3.998763  0
C  C222  1  0.60266749  0.23861281  0.57411203  1  -0.02775  0  -0.090417  -0.079251  0  3.998881  0
C  C223  1  0.39733267  0.76138559  0.07411316  1  -0.027713  0  -0.090474  -0.079358  0  3.998649  0
C  C224  1  0.83527099  0.42294075  0.96793202  1  -0.088242  0  -0.090775  -0.070223  0  4.001163  0
C  C225  1  0.16472989  0.57705931  0.46793305  1  -0.088112  0  -0.090748  -0.070089  0  4.000962  0
C  C226  1  0.57706031  0.16472844  0.53206773  1  -0.088473  0  -0.090772  -0.070203  0  4.001178  0
C  C227  1  0.42293915  0.83527096  0.03206800  1  -0.088121  0  -0.090765  -0.070086  0  4.001117  0
C  C228  1  0.90975669  0.38914445  0.96144022  1  -0.049117  0  -0.08475  -0.118688  0  3.936192  0
C  C229  1  0.09024490  0.61085649  0.46143902  1  -0.049111  0  -0.084804  -0.118806  0  3.936258  0
C  C230  1  0.61085528  0.09024279  0.53856038  1  -0.048877  0  -0.084778  -0.118728  0  3.936219  0
C  C231  1  0.38914417  0.90975596  0.03856073  1  -0.049112  0  -0.084781  -0.118744  0  3.936256  0
C  C232  1  0.91146173  0.32778107  0.91349550  1  -0.010214  0  -0.012381  0.097932  0  4.02924  0
C  C233  1  0.08853704  0.67221751  0.41349619  1  -0.01001  0  -0.012394  0.097915  0  4.029175  0
C  C234  1  0.67221755  0.08853650  0.58650505  1  -0.010239  0  -0.012407  0.097904  0  4.029245  0
C  C235  1  0.32778191  0.91146367  0.08650543  1  -0.010217  0  -0.012385  0.097933  0  4.029181  0
C  C236  1  0.98809464  0.28975828  0.91082818  1  -0.072352  0  -0.069361  -0.056832  0  3.94066  0
C  C237  1  0.01190413  0.71023897  0.41082755  1  -0.072382  0  -0.069383  -0.056845  0  3.94061  0
C  C238  1  0.71024089  0.01190504  0.58917322  1  -0.072499  0  -0.069388  -0.056889  0  3.940661  0
C  C239  1  0.28975927  0.98809604  0.08917321  1  -0.072625  0  -0.069403  -0.056895  0  3.940683  0
C  C240  1  0.98809414  0.21442478  0.87794112  1  -0.033378  0  -0.1018  -0.240622  0  3.940256  0
C  C241  1  0.01190392  0.78557283  0.37794102  1  -0.033335  0  -0.101811  -0.240654  0  3.940273  0
C  C242  1  0.78557431  0.01190508  0.62205932  1  -0.033267  0  -0.101809  -0.240588  0  3.940241  0
C  C243  1  0.21442516  0.98809516  0.12205888  1  -0.033127  0  -0.101794  -0.240637  0  3.940324  0
C  C244  1  0.07023334  0.18326915  0.87376385  1  1.526777  0  0.20055  0.613305  0  4.179285  0
C  C245  1  0.92976542  0.81673001  0.37376351  1  1.526773  0  0.200642  0.613494  0  4.179124  0
C  C246  1  0.81673062  0.92976704  0.62623712  1  1.526775  0  0.200538  0.613272  0  4.179277  0
C  C247  1  0.18326814  0.07023363  0.12623632  1  1.52678  0  0.200542  0.61331  0  4.179294  0
C  C248  1  0.40057274  0.76034919  0.87329307  1  1.499633  0  0.195275  0.61276  0  4.172423  0
C  C249  1  0.59942743  0.23965044  0.37329276  1  1.49965  0  0.19534  0.612804  0  4.1724  0
C  C250  1  0.23965067  0.59943188  0.62670668  1  1.500101  0  0.195309  0.612845  0  4.172445  0
C  C251  1  0.76034878  0.40056705  0.12670647  1  1.500104  0  0.195302  0.612846  0  4.172258  0
C  C252  1  0.48966573  0.83029490  0.85148239  1  0.012917  0  -0.100775  -0.230171  0  3.92152  0
C  C253  1  0.51033303  0.16970422  0.35148250  1  0.01289  0  -0.10078  -0.230153  0  3.921573  0
C  C254  1  0.16970260  0.51033770  0.64851643  1  0.012844  0  -0.100764  -0.230217  0  3.921598  0
C  C255  1  0.83029616  0.48966235  0.14851491  1  0.012838  0  -0.100804  -0.230244  0  3.921585  0
C  C256  1  0.57285373  0.83093462  0.87422595  1  -0.082725  0  -0.081432  -0.087803  0  4.007176  0
C  C257  1  0.42714714  0.16906393  0.37422426  1  -0.082762  0  -0.081462  -0.087885  0  4.007379  0
C  C258  1  0.16906433  0.42715182  0.62577374  1  -0.08273  0  -0.081402  -0.08775  0  4.007191  0
C  C259  1  0.83093373  0.57284728  0.12577321  1  -0.082724  0  -0.081393  -0.087743  0  4.00711  0
C  C260  1  0.66718404  0.88800123  0.85472600  1  -0.047083  0  -0.018309  0.089176  0  4.060646  0
C  C261  1  0.33281472  0.11199855  0.35472566  1  -0.047016  0  -0.018278  0.089268  0  4.060651  0
C  C262  1  0.11199880  0.33282096  0.64527275  1  -0.046894  0  -0.018314  0.08918  0  4.060512  0
C  C263  1  0.88799996  0.66717842  0.14527320  1  -0.046834  0  -0.018301  0.089196  0  4.060397  0
C  C264  1  0.68514210  0.95878872  0.80980337  1  -0.101762  0  -0.091709  -0.136182  0  3.966467  0
C  C265  1  0.31485666  0.04120965  0.30980250  1  -0.10175  0  -0.091676  -0.136139  0  3.96638  0
C  C266  1  0.04121207  0.31486098  0.69019542  1  -0.101679  0  -0.091676  -0.136114  0  3.966333  0
C  C267  1  0.95878668  0.68513452  0.19019586  1  -0.10173  0  -0.091694  -0.136108  0  3.966284  0
C  C268  1  0.77690957  0.00808284  0.79144238  1  -0.01847  0  -0.093084  -0.082968  0  4.034875  0
C  C269  1  0.22308919  0.99191749  0.29144240  1  -0.018458  0  -0.093114  -0.083047  0  4.034894  0
C  C270  1  0.99191705  0.22309382  0.70855761  1  -0.018427  0  -0.093083  -0.082977  0  4.034866  0
C  C271  1  0.00808311  0.77690285  0.20855886  1  -0.018265  0  -0.093068  -0.082965  0  4.03481  0
C  C272  1  0.85308108  0.98827034  0.81681719  1  0.015284  0  -0.084201  -0.065239  0  3.956421  0
C  C273  1  0.14691839  0.01172961  0.31681590  1  0.015326  0  -0.084209  -0.065217  0  3.956376  0
C  C274  1  0.01173086  0.14692166  0.68318105  1  0.015771  0  -0.084165  -0.065156  0  3.956501  0
C  C275  1  0.98827001  0.85307586  0.18318392  1  0.015637  0  -0.084153  -0.065083  0  3.956342  0
C  C276  1  0.83648405  0.91890445  0.86165183  1  -0.060717  0  -0.09027  -0.078159  0  4.008603  0
C  C277  1  0.16351613  0.08109716  0.36165151  1  -0.060499  0  -0.090255  -0.078156  0  4.008627  0
C  C278  1  0.08109552  0.16352136  0.63834638  1  -0.060645  0  -0.090243  -0.078003  0  4.008665  0
C  C279  1  0.91890464  0.83647849  0.13834789  1  -0.060586  0  -0.090264  -0.078124  0  4.008763  0
C  C280  1  0.74468078  0.86960828  0.88039172  1  -0.085267  0  -0.092131  -0.138317  0  3.984402  0
C  C281  1  0.25532010  0.13039227  0.38039049  1  -0.085471  0  -0.092134  -0.138298  0  3.984429  0
C  C282  1  0.13039225  0.25532337  0.61960607  1  -0.085443  0  -0.092091  -0.138361  0  3.9844  0
C  C283  1  0.86960721  0.74467620  0.11960750  1  -0.085474  0  -0.092103  -0.138276  0  3.984426  0
N  N284  1  0.26503671  0.27434221  0.79330603  1  -1.203172  0  -0.306189  -0.243554  0  3.491805  0
N  N285  1  0.73496205  0.72565680  0.29330521  1  -1.203061  0  -0.306162  -0.243507  0  3.491641  0
N  N286  1  0.72565586  0.73496292  0.70669351  1  -1.203187  0  -0.306217  -0.243586  0  3.491937  0
N  N287  1  0.27434360  0.26503681  0.20669331  1  -1.2032  0  -0.306229  -0.243605  0  3.491934  0
N  N288  1  0.27282109  0.10972128  0.75722137  1  -1.231481  0  -0.310197  -0.246581  0  3.498514  0
N  N289  1  0.72718189  0.89027776  0.25721979  1  -1.231039  0  -0.310208  -0.246558  0  3.498414  0
N  N290  1  0.89027893  0.72718014  0.74277852  1  -1.231352  0  -0.310187  -0.246524  0  3.498456  0
N  N291  1  0.10972124  0.27282123  0.24277929  1  -1.23144  0  -0.310146  -0.246508  0  3.498451  0
N  N292  1  0.58163944  0.18956404  0.02049939  1  -1.238623  0  -0.313588  -0.240514  0  3.52653  0
N  N293  1  0.41836072  0.81043491  0.52049929  1  -1.238609  0  -0.313593  -0.240563  0  3.526552  0
N  N294  1  0.81043344  0.41836050  0.47950118  1  -1.238593  0  -0.31356  -0.240601  0  3.526644  0
N  N295  1  0.18956674  0.58163935  0.97950139  1  -1.23862  0  -0.313549  -0.24057  0  3.526723  0
N  N296  1  0.74987614  0.18931051  0.05351679  1  -1.231082  0  -0.313226  -0.259785  0  3.516131  0
N  N297  1  0.25012332  0.81068827  0.55351719  1  -1.230895  0  -0.313213  -0.259819  0  3.51605  0
N  N298  1  0.81068567  0.25012353  0.44648322  1  -1.231125  0  -0.313268  -0.25989  0  3.516195  0
N  N299  1  0.18931381  0.74987667  0.94648313  1  -1.230938  0  -0.313263  -0.259893  0  3.516149  0
O  O300  1  0.26468791  0.57949409  0.76251468  1  -1.173748  0  -0.306192  -0.562069  0  2.421626  0
O  O301  1  0.73531086  0.42050552  0.26251449  1  -1.173927  0  -0.306179  -0.562033  0  2.421809  0
O  O302  1  0.42050116  0.73530024  0.73748550  1  -1.17444  0  -0.306129  -0.562009  0  2.421835  0
O  O303  1  0.57949760  0.26469800  0.23748567  1  -1.17452  0  -0.306159  -0.562082  0  2.421714  0
O  O304  1  0.25831400  0.53098107  0.86108865  1  -1.169526  0  -0.309198  -0.532696  0  2.319949  0
O  O305  1  0.74168336  0.46901825  0.36108850  1  -1.169459  0  -0.30919  -0.532665  0  2.319915  0
O  O306  1  0.46901891  0.74168705  0.63891196  1  -1.169491  0  -0.309177  -0.532697  0  2.320001  0
O  O307  1  0.53098055  0.25831189  0.13891214  1  -1.169527  0  -0.309133  -0.532559  0  2.319981  0
O  O308  1  0.38826132  0.90236406  0.64460820  1  -1.1652  0  -0.319719  -0.539973  0  2.294469  0
O  O309  1  0.61174025  0.09763826  0.14460821  1  -1.165103  0  -0.319719  -0.53996  0  2.294362  0
O  O310  1  0.09763734  0.61174193  0.85539347  1  -1.165173  0  -0.319717  -0.540001  0  2.294524  0
O  O311  1  0.90236355  0.38826387  0.35539320  1  -1.16529  0  -0.319804  -0.540061  0  2.294398  0
O  O312  1  0.29294569  0.85371044  0.72735305  1  -1.180332  0  -0.3086  -0.550108  0  2.372584  0
O  O313  1  0.70705518  0.14628849  0.22735445  1  -1.180444  0  -0.308547  -0.550056  0  2.373  0
O  O314  1  0.14629149  0.70705852  0.77264864  1  -1.180418  0  -0.308571  -0.550085  0  2.372634  0
O  O315  1  0.85370939  0.29294315  0.27265104  1  -1.180312  0  -0.308547  -0.550025  0  2.37257  0
O  O316  1  0.31651589  0.19538672  0.98135508  1  -1.166262  0  -0.305958  -0.55267  0  2.319022  0
O  O317  1  0.68348499  0.80461402  0.48135526  1  -1.166255  0  -0.305981  -0.552705  0  2.319014  0
O  O318  1  0.80461362  0.68348408  0.51864529  1  -1.166273  0  -0.305948  -0.552629  0  2.319091  0
O  O319  1  0.19538654  0.31651554  0.01864562  1  -1.166214  0  -0.305947  -0.552704  0  2.319024  0
O  O320  1  0.34155053  0.17775106  0.88008415  1  -1.179838  0  -0.322363  -0.554077  0  2.37019  0
O  O321  1  0.65844964  0.82224925  0.38008435  1  -1.179845  0  -0.3223  -0.553962  0  2.370218  0
O  O322  1  0.82224828  0.65844950  0.61991574  1  -1.179831  0  -0.322349  -0.554013  0  2.370184  0
O  O323  1  0.17775047  0.34155049  0.11991610  1  -1.179819  0  -0.322326  -0.554015  0  2.370207  0
O  O324  1  0.00462750  0.18315587  0.12282864  1  -1.169609  0  -0.31797  -0.547629  0  2.295179  0
O  O325  1  0.99537196  0.81684437  0.62282883  1  -1.169669  0  -0.317962  -0.547589  0  2.295233  0
O  O326  1  0.81684436  0.99537344  0.37717136  1  -1.169642  0  -0.317966  -0.547521  0  2.295263  0
O  O327  1  0.18315652  0.00462578  0.87717105  1  -1.169634  0  -0.317993  -0.547647  0  2.295193  0
O  O328  1  0.03608525  0.13325300  0.02980032  1  -1.179714  0  -0.310672  -0.560439  0  2.356181  0
O  O329  1  0.96391491  0.86674663  0.52980056  1  -1.179674  0  -0.310724  -0.560503  0  2.356117  0
O  O330  1  0.86674709  0.96391681  0.47019964  1  -1.179686  0  -0.310701  -0.560415  0  2.356198  0
O  O331  1  0.13325379  0.03608326  0.97019937  1  -1.179712  0  -0.310629  -0.560395  0  2.356211  0
O  O332  1  0.07211796  0.12862239  0.82941292  1  -1.141691  0  -0.312817  -0.529412  0  2.212815  0
O  O333  1  0.92788151  0.87137693  0.32941354  1  -1.141673  0  -0.31291  -0.529534  0  2.212813  0
O  O334  1  0.87137709  0.92788285  0.67058756  1  -1.141707  0  -0.312803  -0.529378  0  2.212814  0
O  O335  1  0.12862096  0.07211766  0.17058678  1  -1.141712  0  -0.31282  -0.529413  0  2.212787  0
O  O336  1  0.14053291  0.21449171  0.91005772  1  -1.205315  0  -0.318601  -0.594868  0  2.361472  0
O  O337  1  0.85946515  0.78550728  0.41005783  1  -1.205366  0  -0.318581  -0.594888  0  2.36137  0
O  O338  1  0.78550740  0.85946665  0.58994231  1  -1.205289  0  -0.318583  -0.594846  0  2.361403  0
O  O339  1  0.21449136  0.14053329  0.08994248  1  -1.205306  0  -0.318595  -0.594845  0  2.361443  0
O  O340  1  0.32298450  0.75513107  0.84430988  1  -1.170295  0  -0.329921  -0.592263  0  2.394341  0
O  O341  1  0.67701497  0.24486959  0.34430955  1  -1.170305  0  -0.329965  -0.592299  0  2.394339  0
O  O342  1  0.24486891  0.67701932  0.65569128  1  -1.170394  0  -0.329925  -0.592251  0  2.394297  0
O  O343  1  0.75513126  0.32298056  0.15569100  1  -1.170438  0  -0.329945  -0.59229  0  2.394283  0
O  O344  1  0.39804793  0.70769297  0.91804291  1  -1.154351  0  -0.320713  -0.543608  0  2.119787  0
O  O345  1  0.60195084  0.29230694  0.41804265  1  -1.154337  0  -0.320712  -0.54361  0  2.119809  0
O  O346  1  0.29230786  0.60195601  0.58195909  1  -1.154816  0  -0.32072  -0.543656  0  2.11988  0
O  O347  1  0.70769160  0.39804283  0.08195843  1  -1.154858  0  -0.320702  -0.543634  0  2.119713  0
