# generated using pymatgen
data_NaH5CO4
_symmetry_space_group_name_H-M   'P 1'
_cell_length_a   7.05704962
_cell_length_b   8.00781906
_cell_length_c   8.60548824
_cell_angle_alpha   89.99997591
_cell_angle_beta   90.00004809
_cell_angle_gamma   116.10110451
_symmetry_Int_Tables_number   1
_chemical_formula_structural   NaH5CO4
_chemical_formula_sum   'Na4 H20 C4 O16'
_cell_volume   436.71540259
_cell_formula_units_Z   4
loop_
 _symmetry_equiv_pos_site_id
 _symmetry_equiv_pos_as_xyz
  1  'x, y, z'
loop_
 _atom_site_type_symbol
 _atom_site_label
 _atom_site_symmetry_multiplicity
 _atom_site_fract_x
 _atom_site_fract_y
 _atom_site_fract_z
 _atom_site_occupancy
 _atom_site_pbe_bader_spin_density
 _atom_site_pbe_cm5_charge
 _atom_site_pbe_ddec_charge
 _atom_site_pbe_ddec_spin_density
 _atom_site_pbe_ddec_sum_bond_order
 _atom_site_pbe_magmom
Na  Na0  1  0.23524922  0.00002136  0.00003611  1  0  0.657566  0.850629  0  0.549149  0
Na  Na1  1  0.26475067  0.99997779  0.50003544  1  0  0.657567  0.850644  0  0.549128  0
Na  Na2  1  0.76475017  0.99997758  0.99996425  1  0  0.657565  0.850629  0  0.549148  0
Na  Na3  1  0.73524873  0.00002116  0.49996375  1  0  0.657567  0.850636  0  0.549138  0
H  H4  1  0.73514648  0.47053207  0.13491987  1  0  0.117976  0.0278  0  0.997814  0
H  H5  1  0.76485348  0.52946669  0.63492056  1  0  0.117966  0.027788  0  0.997827  0
H  H6  1  0.26485434  0.52946688  0.86507932  1  0  0.117965  0.027799  0  0.997809  0
H  H7  1  0.23514519  0.47053364  0.36507980  1  0  0.117968  0.0278  0  0.997788  0
H  H8  1  0.28523900  0.26682222  0.70889416  1  0  0.28862  0.362437  0  0.987408  0
H  H9  1  0.21475968  0.73317692  0.20889453  1  0  0.288623  0.362444  0  0.987406  0
H  H10  1  0.01879826  0.73325644  0.29109200  1  0  0.289243  0.363833  0  0.985294  0
H  H11  1  0.48120050  0.26674269  0.79109178  1  0  0.289235  0.363825  0  0.985299  0
H  H12  1  0.71476039  0.73317673  0.29110503  1  0  0.288626  0.362438  0  0.987409  0
H  H13  1  0.78524042  0.26682342  0.79110583  1  0  0.288629  0.362437  0  0.987411  0
H  H14  1  0.98120041  0.26674390  0.70890835  1  0  0.289227  0.363788  0  0.985347  0
H  H15  1  0.51879748  0.73325626  0.20890858  1  0  0.28923  0.363814  0  0.985313  0
H  H16  1  0.08851643  0.17756910  0.22344461  1  0  0.290489  0.379508  0  0.96559  0
H  H17  1  0.41148296  0.82243143  0.72344412  1  0  0.290489  0.379516  0  0.965577  0
H  H18  1  0.91148435  0.82243263  0.77655574  1  0  0.290483  0.379501  0  0.965603  0
H  H19  1  0.58851714  0.17756891  0.27655624  1  0  0.290491  0.379514  0  0.96558  0
H  H20  1  0.16443191  0.32911172  0.09512417  1  0  0.282774  0.372845  0  0.97428  0
H  H21  1  0.33556877  0.67088882  0.59512485  1  0  0.282771  0.372833  0  0.974297  0
H  H22  1  0.83556818  0.67088862  0.90487502  1  0  0.282769  0.372823  0  0.97431  0
H  H23  1  0.66443133  0.32911152  0.40487435  1  0  0.28276  0.372814  0  0.974323  0
C  C24  1  0.68265509  0.36576622  0.04038370  1  0  0.156328  0.493797  0  4.221189  0
C  C25  1  0.81734547  0.63423394  0.54038321  1  0  0.156347  0.493806  0  4.221141  0
C  C26  1  0.31734500  0.63423412  0.95961666  1  0  0.156334  0.49377  0  4.221188  0
C  C27  1  0.18265462  0.36576639  0.45961714  1  0  0.156335  0.493776  0  4.221147  0
O  O28  1  0.59750904  0.19581355  0.07781679  1  0  -0.40161  -0.604083  0  2.294469  0
O  O29  1  0.90249083  0.80418800  0.57781746  1  0  -0.401624  -0.604103  0  2.294423  0
O  O30  1  0.40249105  0.80418679  0.92218240  1  0  -0.401619  -0.604081  0  2.29445  0
O  O31  1  0.09750926  0.19581233  0.42218290  1  0  -0.401618  -0.604092  0  2.294417  0
O  O32  1  0.71328288  0.42697175  0.90116460  1  0  -0.308997  -0.536812  0  2.280361  0
O  O33  1  0.78671592  0.57302700  0.40116392  1  0  -0.308997  -0.536799  0  2.280342  0
O  O34  1  0.28671510  0.57302720  0.09883575  1  0  -0.308985  -0.53679  0  2.280371  0
O  O35  1  0.21328206  0.42697195  0.59883527  1  0  -0.308998  -0.536791  0  2.280392  0
O  O36  1  0.09555486  0.19181576  0.10811240  1  0  -0.719704  -0.891033  0  1.97981  0
O  O37  1  0.40444514  0.80818338  0.60811190  1  0  -0.719694  -0.891023  0  1.979825  0
O  O38  1  0.90444453  0.80818318  0.89188796  1  0  -0.719695  -0.89101  0  1.979854  0
O  O39  1  0.59555496  0.19181696  0.39188845  1  0  -0.719694  -0.89102  0  1.979851  0
O  O40  1  0.34068139  0.18170110  0.75003539  1  0  -0.652673  -0.818909  0  1.940221  0
O  O41  1  0.15931733  0.81829804  0.25003568  1  0  -0.652683  -0.818926  0  1.940232  0
O  O42  1  0.65931800  0.81829785  0.24996497  1  0  -0.652676  -0.818903  0  1.940238  0
O  O43  1  0.84068207  0.18170091  0.74996468  1  0  -0.652676  -0.818873  0  1.940251  0
