# generated using pymatgen
data_HoH14C15O7
_symmetry_space_group_name_H-M   'P 1'
_cell_length_a   7.51043504
_cell_length_b   15.34104742
_cell_length_c   15.40060000
_cell_angle_alpha   62.49429613
_cell_angle_beta   86.98901311
_cell_angle_gamma   87.02670453
_symmetry_Int_Tables_number   1
_chemical_formula_structural   HoH14C15O7
_chemical_formula_sum   'Ho4 H56 C60 O28'
_cell_volume   1570.91640933
_cell_formula_units_Z   4
loop_
 _symmetry_equiv_pos_site_id
 _symmetry_equiv_pos_as_xyz
  1  'x, y, z'
loop_
 _atom_site_type_symbol
 _atom_site_label
 _atom_site_symmetry_multiplicity
 _atom_site_fract_x
 _atom_site_fract_y
 _atom_site_fract_z
 _atom_site_occupancy
 _atom_site_hle17_bader_spin_density
 _atom_site_hle17_ddec_charge
 _atom_site_hle17_ddec_spin_density
 _atom_site_hle17_ddec_sum_bond_order
 _atom_site_hle17_magmom
 _atom_site_hse06_10hf_bader_spin_density
 _atom_site_hse06_10hf_ddec_charge
 _atom_site_hse06_10hf_ddec_spin_density
 _atom_site_hse06_10hf_ddec_sum_bond_order
 _atom_site_hse06_10hf_magmom
 _atom_site_hse06_bader_spin_density
 _atom_site_hse06_ddec_charge
 _atom_site_hse06_ddec_spin_density
 _atom_site_hse06_ddec_sum_bond_order
 _atom_site_hse06_magmom
 _atom_site_pbe_bader_charge
 _atom_site_pbe_bader_spin_density
 _atom_site_pbe_cm5_charge
 _atom_site_pbe_ddec_charge
 _atom_site_pbe_ddec_spin_density
 _atom_site_pbe_ddec_sum_bond_order
 _atom_site_pbe_magmom
Ho  Ho0  1  0.03368064  0.28175510  0.35779843  1  0  2.267873  0  1.615797  0  0  2.119203  0  2.083771  0  0  2.255939  0  1.88502  0  2.175726  0  1.533292  2.080579  0  2.115049  0
Ho  Ho1  1  0.46617085  0.64225520  0.71794124  1  0  2.26771  0  1.616565  0  0  2.118698  0  2.085108  0  0  2.255729  0  1.88577  0  2.175396  0  1.533329  2.080392  0  2.115904  0
Ho  Ho2  1  0.96632069  0.71824512  0.64220299  1  0  2.267909  0  1.615812  0  0  2.119199  0  2.083851  0  0  2.255971  0  1.885036  0  2.175684  0  1.533314  2.080575  0  2.115129  0
Ho  Ho3  1  0.53383043  0.35774576  0.28205855  1  0  2.267708  0  1.616575  0  0  2.118685  0  2.085171  0  0  2.255749  0  1.885784  0  2.175493  0  1.533333  2.080422  0  2.115903  0
H  H4  1  0.17030108  0.13360238  0.54803543  1  0  0.440191  0  0.807707  0  0  0.42393  0  0.859718  0  0  0.432111  0  0.850784  0  0.629349  0  0.332063  0.418294  0  0.866077  0
H  H5  1  0.32905028  0.45130360  0.86576720  1  0  0.4386  0  0.809438  0  0  0.422267  0  0.861726  0  0  0.430431  0  0.853063  0  0.622935  0  0.33146  0.416642  0  0.868052  0
H  H6  1  0.82969912  0.86639417  0.45196447  1  0  0.440165  0  0.807731  0  0  0.423907  0  0.859737  0  0  0.432087  0  0.850815  0  0.629341  0  0.332053  0.418272  0  0.866095  0
H  H7  1  0.67095637  0.54869663  0.13423278  1  0  0.438642  0  0.809353  0  0  0.422311  0  0.861637  0  0  0.430476  0  0.852991  0  0.622942  0  0.33149  0.416686  0  0.867963  0
H  H8  1  0.34391322  0.16737943  0.47488807  1  0  0.425569  0  0.884028  0  0  0.393293  0  0.95085  0  0  0.404802  0  0.934444  0  0.632368  0  0.294816  0.385296  0  0.962383  0
H  H9  1  0.15584963  0.52492078  0.83209163  1  0  0.425737  0  0.883744  0  0  0.393547  0  0.950452  0  0  0.405067  0  0.934031  0  0.647018  0  0.295138  0.385523  0  0.962033  0
H  H10  1  0.65608543  0.83262079  0.52511277  1  0  0.425607  0  0.883971  0  0  0.393301  0  0.950831  0  0  0.404812  0  0.934423  0  0.632367  0  0.294833  0.385304  0  0.962366  0
H  H11  1  0.84414923  0.47507577  0.16790765  1  0  0.425757  0  0.883712  0  0  0.393575  0  0.950403  0  0  0.405094  0  0.933986  0  0.646914  0  0.295147  0.385552  0  0.961985  0
H  H12  1  0.42842332  0.17869237  0.16728431  1  0  0.136141  0  0.923359  0  0  0.150206  0  0.980254  0  0  0.153301  0  0.978353  0  0.112873  0  0.114027  0.148095  0  0.981337  0
H  H13  1  0.07144380  0.83295387  0.82163132  1  0  0.136037  0  0.923015  0  0  0.150328  0  0.979867  0  0  0.153438  0  0.977934  0  0.114229  0  0.113997  0.148227  0  0.980938  0
H  H14  1  0.57157392  0.82130933  0.83271524  1  0  0.136146  0  0.923368  0  0  0.150185  0  0.980284  0  0  0.153278  0  0.978379  0  0.112884  0  0.114011  0.148074  0  0.981366  0
H  H15  1  0.92855752  0.16704635  0.17836945  1  0  0.136027  0  0.923052  0  0  0.150316  0  0.979908  0  0  0.153427  0  0.977977  0  0.114211  0  0.113994  0.148216  0  0.980977  0
H  H16  1  0.50630876  0.10642000  0.28508414  1  0  0.118139  0  0.909717  0  0  0.135002  0  0.962992  0  0  0.13737  0  0.961574  0  0.051187  0  0.112092  0.133311  0  0.963952  0
H  H17  1  0.99426452  0.71451875  0.89373460  1  0  0.118225  0  0.909392  0  0  0.135274  0  0.962632  0  0  0.137623  0  0.961248  0  0.050888  0  0.111842  0.133558  0  0.963621  0
H  H18  1  0.49368977  0.89358243  0.71491633  1  0  0.118205  0  0.909782  0  0  0.135064  0  0.963025  0  0  0.137432  0  0.961608  0  0.051121  0  0.112109  0.133371  0  0.963988  0
H  H19  1  0.00573822  0.28548001  0.10626422  1  0  0.118242  0  0.909408  0  0  0.135284  0  0.962649  0  0  0.137638  0  0.96126  0  0.050868  0  0.111842  0.133571  0  0.963634  0
H  H20  1  0.25345907  0.11332644  0.08875008  1  0  0.084691  0  0.956817  0  0  0.096105  0  1.018256  0  0  0.098879  0  1.017396  0  0.058153  0  0.0952  0.094139  0  1.018907  0
H  H21  1  0.24715832  0.91202386  0.88624011  1  0  0.084422  0  0.957575  0  0  0.096163  0  1.018745  0  0  0.098837  0  1.017977  0  0.052216  0  0.095417  0.094241  0  1.019357  0
H  H22  1  0.74653683  0.88667526  0.91124950  1  0  0.084734  0  0.95679  0  0  0.096154  0  1.018214  0  0  0.098928  0  1.017354  0  0.0582  0  0.095215  0.094186  0  1.01887  0
H  H23  1  0.75284046  0.08797416  0.11376304  1  0  0.084416  0  0.957635  0  0  0.096166  0  1.018784  0  0  0.098841  0  1.018015  0  0.052157  0  0.09542  0.094244  0  1.019395  0
H  H24  1  0.10182022  0.97264874  0.08801377  1  0  0.078669  0  0.959311  0  0  0.090935  0  1.019837  0  0  0.093467  0  1.019059  0  0.055065  0  0.094915  0.089126  0  1.020448  0
H  H25  1  0.39812425  0.91338044  0.02621595  1  0  0.078548  0  0.959635  0  0  0.090434  0  1.020566  0  0  0.093049  0  1.019665  0  0.054104  0  0.094689  0.088584  0  1.021249  0
H  H26  1  0.89817581  0.02735075  0.91198812  1  0  0.078679  0  0.959257  0  0  0.090933  0  1.019801  0  0  0.093465  0  1.019024  0  0.055045  0  0.094908  0.089123  0  1.020414  0
H  H27  1  0.60187332  0.08661537  0.97378955  1  0  0.078492  0  0.959636  0  0  0.090379  0  1.020562  0  0  0.092992  0  1.019665  0  0.054083  0  0.094658  0.088529  0  1.021246  0
H  H28  1  0.07665584  0.81543595  0.24260254  1  0  0.086869  0  0.97885  0  0  0.097428  0  1.039718  0  0  0.099138  0  1.040878  0  0.060568  0  0.095875  0.096169  0  1.039037  0
H  H29  1  0.42249215  0.75851244  0.18327192  1  0  0.087632  0  0.976997  0  0  0.097937  0  1.03798  0  0  0.099667  0  1.039116  0  0.067192  0  0.095961  0.096666  0  1.037309  0
H  H30  1  0.92334019  0.18456354  0.75740130  1  0  0.086913  0  0.978777  0  0  0.09747  0  1.039642  0  0  0.099181  0  1.040802  0  0.060567  0  0.095906  0.096212  0  1.038961  0
H  H31  1  0.57750555  0.24148116  0.81673070  1  0  0.087635  0  0.977033  0  0  0.097907  0  1.038046  0  0  0.099636  0  1.039187  0  0.066919  0  0.09596  0.096636  0  1.037374  0
H  H32  1  0.19045542  0.80064369  0.39506022  1  0  0.105076  0  0.962156  0  0  0.116245  0  1.020795  0  0  0.119927  0  1.018313  0  0.09761  0  0.104419  0.113603  0  1.022677  0
H  H33  1  0.30866639  0.60536940  0.19836955  1  0  0.104686  0  0.963069  0  0  0.115867  0  1.021551  0  0  0.119563  0  1.019052  0  0.066849  0  0.104527  0.113243  0  1.023413  0
H  H34  1  0.80954444  0.19935874  0.60494282  1  0  0.104971  0  0.962228  0  0  0.116168  0  1.020848  0  0  0.119857  0  1.018356  0  0.097618  0  0.104372  0.113526  0  1.022729  0
H  H35  1  0.69133119  0.39462641  0.80163010  1  0  0.1047  0  0.963031  0  0  0.115746  0  1.021661  0  0  0.119438  0  1.019176  0  0.066636  0  0.104489  0.113123  0  1.023522  0
H  H36  1  0.29290754  0.00239038  0.43633305  1  0  0.140758  0  0.913029  0  0  0.157212  0  0.966189  0  0  0.160335  0  0.963839  0  0.102118  0  0.115769  0.155136  0  0.96749  0
H  H37  1  0.20798725  0.56258082  0.99820060  1  0  0.141551  0  0.911941  0  0  0.158028  0  0.964787  0  0  0.161102  0  0.962517  0  0.102722  0  0.116245  0.15598  0  0.966041  0
H  H38  1  0.70710016  0.99761499  0.56366649  1  0  0.140733  0  0.913055  0  0  0.157179  0  0.96623  0  0  0.160303  0  0.963878  0  0.102182  0  0.115741  0.155103  0  0.967532  0
H  H39  1  0.79201153  0.43741720  0.00179865  1  0  0.141571  0  0.911904  0  0  0.158068  0  0.964755  0  0  0.161143  0  0.962485  0  0.10278  0  0.11626  0.156019  0  0.966008  0
H  H40  1  0.50249108  0.95560801  0.41551519  1  0  0.099454  0  0.940918  0  0  0.113807  0  1.001706  0  0  0.116317  0  0.999565  0  0.040293  0  0.098478  0.112078  0  1.002981  0
H  H41  1  0.99805595  0.58363836  0.04440989  1  0  0.099818  0  0.940075  0  0  0.113856  0  1.001399  0  0  0.116395  0  0.999223  0  0.044236  0  0.098505  0.112128  0  1.002658  0
H  H42  1  0.49750632  0.04439075  0.58448441  1  0  0.09944  0  0.940891  0  0  0.1138  0  1.001683  0  0  0.116299  0  0.999552  0  0.040265  0  0.098486  0.112072  0  1.002959  0
H  H43  1  0.00194425  0.41635819  0.95558870  1  0  0.099761  0  0.940056  0  0  0.113848  0  1.001358  0  0  0.116387  0  0.999183  0  0.04419  0  0.098501  0.112117  0  1.002618  0
H  H44  1  0.36741755  0.44032447  0.50779100  1  0  0.123431  0  0.913434  0  0  0.140213  0  0.966565  0  0  0.142586  0  0.965008  0  0.044233  0  0.111646  0.1386  0  0.967427  0
H  H45  1  0.13232626  0.49249737  0.55951277  1  0  0.123884  0  0.913827  0  0  0.140939  0  0.966624  0  0  0.143309  0  0.964977  0  0.041152  0  0.111797  0.139333  0  0.967507  0
H  H46  1  0.63258894  0.55967869  0.49220699  1  0  0.12344  0  0.913474  0  0  0.140209  0  0.966607  0  0  0.142583  0  0.96505  0  0.04431  0  0.111652  0.138604  0  0.967474  0
H  H47  1  0.86768294  0.50750506  0.44048484  1  0  0.123842  0  0.913817  0  0  0.140892  0  0.966636  0  0  0.143261  0  0.964991  0  0.041193  0  0.111776  0.139286  0  0.96752  0
H  H48  1  0.48624679  0.33301626  0.52417652  1  0  0.124484  0  0.914254  0  0  0.138572  0  0.971928  0  0  0.141101  0  0.970718  0  0.055529  0  0.114124  0.136659  0  0.973009  0
H  H49  1  0.01292778  0.47610442  0.66631109  1  0  0.124242  0  0.914598  0  0  0.138464  0  0.972321  0  0  0.140937  0  0.971124  0  0.055147  0  0.114068  0.136559  0  0.973435  0
H  H50  1  0.51376111  0.66698543  0.47582276  1  0  0.12447  0  0.914293  0  0  0.138541  0  0.971976  0  0  0.14107  0  0.970769  0  0.055559  0  0.114123  0.136637  0  0.973061  0
H  H51  1  0.98707879  0.52389728  0.33368692  1  0  0.124233  0  0.914588  0  0  0.138457  0  0.972318  0  0  0.140933  0  0.971119  0  0.055033  0  0.114069  0.136562  0  0.973421  0
H  H52  1  0.42314892  0.17244106  0.66111583  1  0  0.082211  0  0.978455  0  0  0.092983  0  1.042728  0  0  0.094931  0  1.043183  0  0.067728  0  0.093734  0.091584  0  1.042427  0
H  H53  1  0.07649554  0.33912639  0.82657628  1  0  0.082387  0  0.977633  0  0  0.093298  0  1.041585  0  0  0.095334  0  1.04194  0  0.05062  0  0.093752  0.091849  0  1.041338  0
H  H54  1  0.57685236  0.82755990  0.33888201  1  0  0.082251  0  0.978428  0  0  0.093021  0  1.042708  0  0  0.094969  0  1.043164  0  0.067739  0  0.093755  0.091621  0  1.042405  0
H  H55  1  0.92350307  0.66087457  0.17342033  1  0  0.082384  0  0.977629  0  0  0.093319  0  1.041553  0  0  0.095354  0  1.041909  0  0.050587  0  0.093751  0.091871  0  1.041306  0
H  H56  1  0.33829952  0.07862588  0.83637587  1  0  0.083551  0  0.953841  0  0  0.09761  0  1.009835  0  0  0.099895  0  1.009417  0  0.05879  0  0.099353  0.09593  0  1.010256  0
H  H57  1  0.16295086  0.16351262  0.92072310  1  0  0.083819  0  0.95276  0  0  0.098465  0  1.007993  0  0  0.100777  0  1.007535  0  0.061382  0  0.099514  0.096784  0  1.008414  0
H  H58  1  0.66169913  0.92137435  0.16362172  1  0  0.0836  0  0.953845  0  0  0.097644  0  1.009852  0  0  0.099931  0  1.009432  0  0.058754  0  0.099377  0.095971  0  1.010264  0
H  H59  1  0.83704771  0.83648907  0.07927252  1  0  0.083832  0  0.952717  0  0  0.098456  0  1.007977  0  0  0.100766  0  1.007515  0  0.061354  0  0.099485  0.096774  0  1.008399  0
C  C60  1  0.25718621  0.17937544  0.28074315  1  0  0.741528  0  3.788588  0  0  0.699767  0  4.083652  0  0  0.733012  0  4.083488  0  1.537156  0  0.215596  0.676925  0  4.089178  0
C  C61  1  0.24303130  0.71944435  0.82039955  1  0  0.741327  0  3.787257  0  0  0.699321  0  4.0831  0  0  0.732565  0  4.082944  0  1.537892  0  0.21551  0.676486  0  4.088625  0
C  C62  1  0.74281240  0.82062552  0.71925736  1  0  0.741502  0  3.788727  0  0  0.699704  0  4.08381  0  0  0.732947  0  4.083654  0  1.537099  0  0.215543  0.676856  0  4.089343  0
C  C63  1  0.75697277  0.28055440  0.17960248  1  0  0.741317  0  3.787279  0  0  0.699369  0  4.083053  0  0  0.732616  0  4.082895  0  1.537887  0  0.215559  0.676537  0  4.088576  0
C  C64  1  0.38534886  0.12525039  0.24159978  1  0  -0.309485  0  3.701876  0  0  -0.352216  0  3.94431  0  0  -0.35741  0  3.950651  0  -0.057477  0  -0.155122  -0.348123  0  3.938889  0
C  C65  1  0.11501625  0.75841759  0.87471851  1  0  -0.309499  0  3.697717  0  0  -0.353001  0  3.941528  0  0  -0.35818  0  3.94788  0  -0.059807  0  -0.155193  -0.348902  0  3.936095  0
C  C66  1  0.61464834  0.87475204  0.75839943  1  0  -0.309559  0  3.701985  0  0  -0.35226  0  3.94441  0  0  -0.357448  0  3.95075  0  -0.05744  0  -0.155126  -0.348164  0  3.938989  0
C  C67  1  0.88498649  0.24158116  0.12528030  1  0  -0.30953  0  3.697826  0  0  -0.353038  0  3.941617  0  0  -0.358224  0  3.947969  0  -0.05967  0  -0.155204  -0.348942  0  3.936181  0
C  C68  1  0.30578900  0.03706520  0.24258897  1  0  0.063518  0  3.743983  0  0  0.076948  0  3.981371  0  0  0.076425  0  4.006292  0  -0.00738  0  -0.017382  0.077342  0  3.964123  0
C  C69  1  0.19469728  0.75760879  0.96249665  1  0  0.064413  0  3.74159  0  0  0.078069  0  3.979162  0  0  0.077562  0  4.004061  0  0.023168  0  -0.016968  0.078458  0  3.961913  0
C  C70  1  0.69420690  0.96293649  0.75741191  1  0  0.063522  0  3.743967  0  0  0.076964  0  3.981295  0  0  0.07644  0  4.006217  0  -0.007361  0  -0.017356  0.077359  0  3.964045  0
C  C71  1  0.80530021  0.24238849  0.03750622  1  0  0.064492  0  3.741592  0  0  0.078149  0  3.979148  0  0  0.077644  0  4.004047  0  0.023117  0  -0.016948  0.078536  0  3.9619  0
C  C72  1  0.23923983  0.04435766  0.15613367  1  0  -0.13071  0  3.778298  0  0  -0.150312  0  4.029794  0  0  -0.153403  0  4.052477  0  -0.053824  0  -0.098594  -0.148067  0  4.014234  0
C  C73  1  0.26115069  0.84451901  0.95505925  1  0  -0.130478  0  3.7789  0  0  -0.150335  0  4.030241  0  0  -0.153356  0  4.052977  0  0.005055  0  -0.098778  -0.148131  0  4.014664  0
C  C74  1  0.76075879  0.95564330  0.84386684  1  0  -0.130823  0  3.77828  0  0  -0.150434  0  4.029766  0  0  -0.153527  0  4.05245  0  -0.053863  0  -0.098663  -0.14819  0  4.014207  0
C  C75  1  0.73884675  0.15547901  0.04494394  1  0  -0.130499  0  3.778907  0  0  -0.150373  0  4.030256  0  0  -0.153395  0  4.05299  0  0.004939  0  -0.098797  -0.148167  0  4.014679  0
C  C76  1  0.15484732  0.96581950  0.15551219  1  0  -0.082942  0  3.824666  0  0  -0.098698  0  4.079156  0  0  -0.101321  0  4.102176  0  -0.069986  0  -0.100876  -0.096846  0  4.063439  0
C  C77  1  0.34514347  0.84550575  0.03322785  1  0  -0.084067  0  3.826586  0  0  -0.099438  0  4.081032  0  0  -0.102098  0  4.103967  0  -0.127907  0  -0.101257  -0.097566  0  4.065356  0
C  C78  1  0.84515001  0.03418072  0.84448998  1  0  -0.0829  0  3.824532  0  0  -0.098634  0  4.079013  0  0  -0.101256  0  4.10203  0  -0.070055  0  -0.100844  -0.09678  0  4.063294  0
C  C79  1  0.65485831  0.15448639  0.96677858  1  0  -0.083931  0  3.826254  0  0  -0.09929  0  4.080676  0  0  -0.101948  0  4.103607  0  -0.127976  0  -0.101166  -0.097421  0  4.065003  0
C  C80  1  0.14000526  0.87794607  0.24192856  1  0  -0.06395  0  3.798269  0  0  -0.078659  0  4.049629  0  0  -0.080029  0  4.071998  0  -0.041395  0  -0.09674  -0.077615  0  4.034305  0
C  C81  1  0.35960334  0.75898449  0.12098378  1  0  -0.063356  0  3.798379  0  0  -0.077821  0  4.049542  0  0  -0.07919  0  4.07192  0  -0.036996  0  -0.095992  -0.076781  0  4.034241  0
C  C82  1  0.85999069  0.12205488  0.75807526  1  0  -0.063935  0  3.798213  0  0  -0.078656  0  4.049604  0  0  -0.080025  0  4.071971  0  -0.041368  0  -0.096765  -0.077611  0  4.034278  0
C  C83  1  0.64039173  0.24100838  0.87901988  1  0  -0.063439  0  3.798256  0  0  -0.077874  0  4.049428  0  0  -0.079241  0  4.0718  0  -0.036684  0  -0.096069  -0.076834  0  4.034125  0
C  C84  1  0.20651295  0.86966614  0.32833664  1  0  -0.133444  0  3.75178  0  0  -0.154633  0  4.002282  0  0  -0.157047  0  4.02129  0  -0.045568  0  -0.098182  -0.152838  0  3.989  0
C  C85  1  0.29310790  0.67215736  0.12942491  1  0  -0.134019  0  3.753645  0  0  -0.155033  0  4.004051  0  0  -0.157489  0  4.023102  0  -0.012957  0  -0.098568  -0.153233  0  3.990744  0
C  C86  1  0.79348288  0.13033702  0.67166617  1  0  -0.133397  0  3.751824  0  0  -0.154612  0  4.002336  0  0  -0.157029  0  4.021343  0  -0.045653  0  -0.098126  -0.152818  0  3.989054  0
C  C87  1  0.70688713  0.32783625  0.87057712  1  0  -0.133939  0  3.7536  0  0  -0.154858  0  4.004042  0  0  -0.157314  0  4.023092  0  -0.011893  0  -0.098471  -0.153059  0  3.990735  0
C  C88  1  0.28810135  0.94878833  0.33027471  1  0  0.074661  0  3.697407  0  0  0.08829  0  3.93615  0  0  0.088787  0  3.959361  0  -0.040391  0  -0.009713  0.088045  0  3.919966  0
C  C89  1  0.21205682  0.66981992  0.05067576  1  0  0.074554  0  3.697164  0  0  0.08809  0  3.935783  0  0  0.08857  0  3.959045  0  -0.075707  0  -0.00959  0.08785  0  3.919574  0
C  C90  1  0.71189714  0.05121483  0.66972608  1  0  0.074601  0  3.697418  0  0  0.088231  0  3.936161  0  0  0.088729  0  3.959369  0  -0.040296  0  -0.009731  0.087986  0  3.919977  0
C  C91  1  0.78794200  0.33017736  0.94932448  1  0  0.074384  0  3.697086  0  0  0.087978  0  3.935669  0  0  0.088458  0  3.95893  0  -0.076464  0  -0.009624  0.087737  0  3.919458  0
C  C92  1  0.35824879  0.94301128  0.42353000  1  0  -0.316755  0  3.674217  0  0  -0.35977  0  3.915276  0  0  -0.365015  0  3.919747  0  -0.049714  0  -0.158183  -0.355586  0  3.910628  0
C  C93  1  0.14223961  0.57588121  0.05699985  1  0  -0.31766  0  3.673639  0  0  -0.360101  0  3.914582  0  0  -0.365372  0  3.919089  0  -0.054643  0  -0.158445  -0.355906  0  3.909874  0
C  C94  1  0.64174978  0.05699042  0.57646952  1  0  -0.316666  0  3.673987  0  0  -0.359642  0  3.915092  0  0  -0.364863  0  3.919598  0  -0.049996  0  -0.15817  -0.355462  0  3.910442  0
C  C95  1  0.85775908  0.42411828  0.94299744  1  0  -0.317519  0  3.673433  0  0  -0.360112  0  3.914499  0  0  -0.365383  0  3.919009  0  -0.054541  0  -0.158456  -0.355911  0  3.909782  0
C  C96  1  0.31815098  0.84830053  0.51474724  1  0  0.780756  0  3.771614  0  0  0.737834  0  4.066362  0  0  0.773604  0  4.058427  0  1.570608  0  0.24399  0.714016  0  4.073775  0
C  C97  1  0.18208327  0.48495124  0.15191602  1  0  0.781972  0  3.76865  0  0  0.738543  0  4.064114  0  0  0.774343  0  4.0561  0  1.567624  0  0.24442  0.714719  0  4.071551  0
C  C98  1  0.68184476  0.15170411  0.48525295  1  0  0.780786  0  3.771427  0  0  0.737752  0  4.066392  0  0  0.773455  0  4.05856  0  1.570904  0  0.244008  0.71394  0  4.073795  0
C  C99  1  0.81791410  0.51504825  0.84808065  1  0  0.781837  0  3.768768  0  0  0.738464  0  4.064181  0  0  0.77426  0  4.056177  0  1.567643  0  0.244323  0.714639  0  4.071615  0
C  C100  1  0.22733710  0.34685487  0.46953472  1  0  0.726447  0  3.830773  0  0  0.68492  0  4.128361  0  0  0.718148  0  4.127825  0  1.551938  0  0.208669  0.66213  0  4.134187  0
C  C101  1  0.27220030  0.53046622  0.65298039  1  0  0.727589  0  3.83028  0  0  0.68633  0  4.127578  0  0  0.719493  0  4.127073  0  1.557921  0  0.20908  0.663545  0  4.133468  0
C  C102  1  0.77266801  0.65314903  0.53046362  1  0  0.726458  0  3.830813  0  0  0.685001  0  4.128265  0  0  0.718227  0  4.127727  0  1.551904  0  0.208661  0.66222  0  4.134096  0
C  C103  1  0.72780631  0.46953473  0.34701991  1  0  0.727707  0  3.830116  0  0  0.686421  0  4.12746  0  0  0.719583  0  4.126956  0  1.557764  0  0.209158  0.663635  0  4.133357  0
C  C104  1  0.35382015  0.36066700  0.53591798  1  0  -0.296536  0  3.671871  0  0  -0.338066  0  3.913811  0  0  -0.342539  0  3.918974  0  -0.011695  0  -0.150679  -0.334536  0  3.909315  0
C  C105  1  0.14541073  0.46419664  0.63889153  1  0  -0.296968  0  3.673392  0  0  -0.339195  0  3.915955  0  0  -0.343429  0  3.920801  0  -0.009037  0  -0.150784  -0.335762  0  3.91162  0
C  C106  1  0.64618376  0.63933469  0.46408140  1  0  -0.296471  0  3.672  0  0  -0.338033  0  3.91382  0  0  -0.342504  0  3.918982  0  -0.012153  0  -0.150701  -0.334548  0  3.909381  0
C  C107  1  0.85459580  0.53580579  0.36110615  1  0  -0.296897  0  3.673346  0  0  -0.339136  0  3.915933  0  0  -0.343384  0  3.9208  0  -0.008979  0  -0.150775  -0.335709  0  3.911591  0
C  C108  1  0.29846169  0.30925438  0.64300412  1  0  0.078344  0  3.705807  0  0  0.09112  0  3.942765  0  0  0.091548  0  3.965552  0  -0.05312  0  -0.00861  0.090914  0  3.926852  0
C  C109  1  0.20051649  0.35674799  0.69023245  1  0  0.078586  0  3.704955  0  0  0.091039  0  3.942598  0  0  0.091379  0  3.96535  0  -0.003291  0  -0.008663  0.090882  0  3.926687  0
C  C110  1  0.70154497  0.69074584  0.35699327  1  0  0.078116  0  3.706121  0  0  0.091082  0  3.942776  0  0  0.091509  0  3.965559  0  -0.052977  0  -0.008625  0.090887  0  3.92687  0
C  C111  1  0.79949013  0.64325297  0.30976461  1  0  0.07866  0  3.704975  0  0  0.091089  0  3.942549  0  0  0.091433  0  3.965298  0  -0.003036  0  -0.008621  0.090931  0  3.926638  0
C  C112  1  0.34516413  0.20912686  0.69723352  1  0  -0.124966  0  3.751973  0  0  -0.145009  0  4.003579  0  0  -0.147445  0  4.024744  0  -0.006095  0  -0.094946  -0.143213  0  3.989027  0
C  C113  1  0.15445199  0.30270603  0.79016643  1  0  -0.125408  0  3.75203  0  0  -0.145311  0  4.003951  0  0  -0.147803  0  4.025055  0  -0.147182  0  -0.095192  -0.143483  0  3.989439  0
C  C114  1  0.65483578  0.79087483  0.30276336  1  0  -0.125017  0  3.752106  0  0  -0.145133  0  4.003682  0  0  -0.147571  0  4.024848  0  -0.006112  0  -0.095023  -0.143334  0  3.989126  0
C  C115  1  0.84554659  0.69729567  0.20983049  1  0  -0.125436  0  3.751909  0  0  -0.145379  0  4.003837  0  0  -0.147871  0  4.02494  0  -0.147198  0  -0.095233  -0.143548  0  3.98932  0
C  C116  1  0.29823904  0.15610914  0.79633784  1  0  -0.067978  0  3.797649  0  0  -0.083195  0  4.051386  0  0  -0.084694  0  4.072084  0  -0.012609  0  -0.091487  -0.082063  0  4.037238  0
C  C117  1  0.20221001  0.20343437  0.84336339  1  0  -0.069966  0  3.799912  0  0  -0.085755  0  4.054013  0  0  -0.087241  0  4.074703  0  -0.00376  0  -0.092267  -0.084639  0  4.039845  0
C  C118  1  0.70175824  0.84389182  0.20365815  1  0  -0.068015  0  3.797833  0  0  -0.083223  0  4.051592  0  0  -0.084723  0  4.072291  0  -0.012439  0  -0.091501  -0.082094  0  4.037441  0
C  C119  1  0.79778727  0.79656659  0.15663325  1  0  -0.069877  0  3.799869  0  0  -0.085658  0  4.053989  0  0  -0.087139  0  4.074676  0  -0.003841  0  -0.092153  -0.084543  0  4.039825  0
O  O120  1  0.30970721  0.25707708  0.28386961  1  0  -0.854285  0  2.180349  0  0  -0.795094  0  2.445024  0  0  -0.843724  0  2.434755  0  -1.208569  0  -0.471069  -0.775107  0  2.450033  0
O  O121  1  0.19056771  0.71673413  0.74276876  1  0  -0.853512  0  2.175849  0  0  -0.794258  0  2.440389  0  0  -0.842827  0  2.430119  0  -1.208129  0  -0.469154  -0.774261  0  2.445377  0
O  O122  1  0.69028873  0.74292388  0.71613291  1  0  -0.854245  0  2.180341  0  0  -0.795037  0  2.445011  0  0  -0.843666  0  2.434745  0  -1.208398  0  -0.471006  -0.77504  0  2.45002  0
O  O123  1  0.80943628  0.28326609  0.25723324  1  0  -0.853566  0  2.175883  0  0  -0.79432  0  2.440385  0  0  -0.842888  0  2.430117  0  -1.20823  0  -0.469201  -0.774331  0  2.445373  0
O  O124  1  0.10086384  0.15171734  0.30975949  1  0  -0.63696  0  1.961712  0  0  -0.592582  0  2.190831  0  0  -0.62428  0  2.182676  0  -1.163225  0  -0.343865  -0.576211  0  2.195204  0
O  O125  1  0.39921088  0.69012306  0.84792833  1  0  -0.63704  0  1.961603  0  0  -0.592538  0  2.191047  0  0  -0.624237  0  2.182907  0  -1.163457  0  -0.343743  -0.576194  0  2.195413  0
O  O126  1  0.89912789  0.84828729  0.69023560  1  0  -0.636927  0  1.961775  0  0  -0.59253  0  2.190912  0  0  -0.624232  0  2.182758  0  -1.163167  0  -0.34384  -0.576157  0  2.195287  0
O  O127  1  0.60079061  0.30987422  0.15207379  1  0  -0.636947  0  1.961556  0  0  -0.592503  0  2.191023  0  0  -0.624205  0  2.182878  0  -1.163378  0  -0.343722  -0.576166  0  2.195388  0
O  O128  1  0.15571535  0.82934147  0.53657091  1  0  -0.708182  0  2.056294  0  0  -0.657515  0  2.311582  0  0  -0.695382  0  2.295747  0  -1.186994  0  -0.403856  -0.639612  0  2.318968  0
O  O129  1  0.34440182  0.46328563  0.17107351  1  0  -0.708943  0  2.056189  0  0  -0.657984  0  2.311667  0  0  -0.69588  0  2.295775  0  -1.188797  0  -0.403742  -0.640171  0  2.31909  0
O  O130  1  0.84427901  0.17066390  0.46343157  1  0  -0.708149  0  2.056337  0  0  -0.657464  0  2.311685  0  0  -0.695305  0  2.2959  0  -1.186958  0  -0.403833  -0.639562  0  2.319064  0
O  O131  1  0.65559679  0.53671532  0.82892635  1  0  -0.708929  0  2.056261  0  0  -0.65794  0  2.31165  0  0  -0.695828  0  2.295765  0  -1.188824  0  -0.403709  -0.64012  0  2.319074  0
O  O132  1  0.44834511  0.79345344  0.56471107  1  0  -0.739455  0  2.038303  0  0  -0.683276  0  2.283723  0  0  -0.720703  0  2.271175  0  -1.209643  0  -0.361714  -0.664472  0  2.29005  0
O  O133  1  0.05172662  0.43516873  0.20689624  1  0  -0.740141  0  2.037427  0  0  -0.684108  0  2.283541  0  0  -0.721535  0  2.27098  0  -1.20746  0  -0.362299  -0.665253  0  2.289924  0
O  O134  1  0.55164954  0.20654678  0.43528793  1  0  -0.739472  0  2.038207  0  0  -0.683288  0  2.283731  0  0  -0.720691  0  2.271208  0  -1.20974  0  -0.361764  -0.664492  0  2.290053  0
O  O135  1  0.94827225  0.56482782  0.79310174  1  0  -0.740098  0  2.037487  0  0  -0.684071  0  2.283581  0  0  -0.721503  0  2.271018  0  -1.207478  0  -0.362254  -0.665217  0  2.289963  0
O  O136  1  0.07061165  0.31835561  0.49743998  1  0  -0.662171  0  1.938731  0  0  -0.620083  0  2.171703  0  0  -0.651936  0  2.163317  0  -1.180271  0  -0.351427  -0.603507  0  2.176109  0
O  O137  1  0.42875117  0.50224196  0.68146374  1  0  -0.662356  0  1.937188  0  0  -0.620437  0  2.169908  0  0  -0.652318  0  2.161488  0  -1.179496  0  -0.35198  -0.603927  0  2.174356  0
O  O138  1  0.92939488  0.68164681  0.50256224  1  0  -0.662147  0  1.938605  0  0  -0.620109  0  2.171587  0  0  -0.651967  0  2.163194  0  -1.180328  0  -0.351479  -0.603532  0  2.175993  0
O  O139  1  0.57125419  0.49775752  0.31853921  1  0  -0.662424  0  1.937072  0  0  -0.62048  0  2.169798  0  0  -0.652362  0  2.161379  0  -1.17938  0  -0.352011  -0.603977  0  2.174249  0
O  O140  1  0.28473591  0.36273313  0.38282689  1  0  -0.849834  0  2.151186  0  0  -0.793248  0  2.415203  0  0  -0.840298  0  2.403995  0  -1.208509  0  -0.449234  -0.774128  0  2.42093  0
O  O141  1  0.21517619  0.61746982  0.63738751  1  0  -0.850768  0  2.15602  0  0  -0.794105  0  2.420121  0  0  -0.841352  0  2.409222  0  -1.209633  0  -0.450669  -0.774912  0  2.425756  0
O  O142  1  0.71526641  0.63727298  0.61716985  1  0  -0.849875  0  2.151378  0  0  -0.793324  0  2.41538  0  0  -0.840378  0  2.40417  0  -1.208459  0  -0.449188  -0.774199  0  2.421111  0
O  O143  1  0.78482509  0.38253114  0.36261097  1  0  -0.850813  0  2.156087  0  0  -0.794142  0  2.4202  0  0  -0.841395  0  2.409323  0  -1.209566  0  -0.450686  -0.774956  0  2.425838  0
O  O144  1  0.21508098  0.14972254  0.48210175  1  0  -0.883759  0  1.895317  0  0  -0.838024  0  2.081008  0  0  -0.865256  0  2.048451  0  -1.247979  0  -0.616171  -0.8249  0  2.099387  0
O  O145  1  0.28469183  0.51755333  0.84963836  1  0  -0.882563  0  1.896511  0  0  -0.83677  0  2.082201  0  0  -0.864016  0  2.049822  0  -1.25641  0  -0.616191  -0.823675  0  2.100562  0
O  O146  1  0.78492055  0.85027401  0.51789876  1  0  -0.88376  0  1.895281  0  0  -0.838012  0  2.081043  0  0  -0.865238  0  2.048472  0  -1.247955  0  -0.6162  -0.824887  0  2.099422  0
O  O147  1  0.71530816  0.48244690  0.15035985  1  0  -0.882631  0  1.896411  0  0  -0.836835  0  2.082085  0  0  -0.864087  0  2.049731  0  -1.256325  0  -0.61623  -0.823746  0  2.100444  0
