# generated using pymatgen
data_CuH17C22IN3O
_symmetry_space_group_name_H-M   'P 1'
_cell_length_a   12.60209226
_cell_length_b   13.36222226
_cell_length_c   17.38902065
_cell_angle_alpha   69.54570784
_cell_angle_beta   89.54790501
_cell_angle_gamma   64.43721640
_symmetry_Int_Tables_number   1
_chemical_formula_structural   CuH17C22IN3O
_chemical_formula_sum   'Cu4 H68 C88 I4 N12 O4'
_cell_volume   2439.36685182
_cell_formula_units_Z   4
loop_
 _symmetry_equiv_pos_site_id
 _symmetry_equiv_pos_as_xyz
  1  'x, y, z'
loop_
 _atom_site_type_symbol
 _atom_site_label
 _atom_site_symmetry_multiplicity
 _atom_site_fract_x
 _atom_site_fract_y
 _atom_site_fract_z
 _atom_site_occupancy
 _atom_site_pbe_bader_charge
 _atom_site_pbe_bader_spin_density
 _atom_site_pbe_cm5_charge
 _atom_site_pbe_ddec_charge
 _atom_site_pbe_ddec_spin_density
 _atom_site_pbe_ddec_sum_bond_order
 _atom_site_pbe_magmom
Cu  Cu0  1  0.45493615  0.49926360  0.56621285  1  0.519548  0  0.365625  0.209695  0  2.688391  0
Cu  Cu1  1  0.54505980  0.50073615  0.43379168  1  0.519521  0  0.365578  0.209625  0  2.688439  0
Cu  Cu2  1  0.56142340  0.49130389  0.06237488  1  0.510205  0  0.358502  0.210221  0  2.721797  0
Cu  Cu3  1  0.43858257  0.50869299  0.93761945  1  0.51018  0  0.358528  0.2102  0  2.72195  0
H  H4  1  0.09529995  0.90808441  0.41642812  1  0.113259  0  0.107242  0.112992  0  1.036013  0
H  H5  1  0.90469773  0.09190627  0.58357315  1  0.113138  0  0.107222  0.113018  0  1.035978  0
H  H6  1  0.65099820  0.42617956  0.69704530  1  0.089607  0  0.099341  0.07736  0  1.031153  0
H  H7  1  0.34900806  0.57382194  0.30295639  1  0.089563  0  0.099367  0.077439  0  1.031174  0
H  H8  1  0.57508489  0.28971414  0.36808613  1  0.110068  0  0.091512  0.10191  0  1.066509  0
H  H9  1  0.42491937  0.71029002  0.63191197  1  0.110005  0  0.091482  0.101891  0  1.066492  0
H  H10  1  0.74360718  0.27029617  0.83877949  1  0.079401  0  0.09826  0.112865  0  1.02633  0
H  H11  1  0.25639839  0.72969810  0.16122132  1  0.079483  0  0.098276  0.112886  0  1.026369  0
H  H12  1  0.84653515  0.80633841  0.11788049  1  0.044923  0  0.10104  0.105965  0  1.034947  0
H  H13  1  0.15346758  0.19366039  0.88212081  1  0.044945  0  0.100964  0.105877  0  1.034869  0
H  H14  1  0.58921063  0.11630759  0.44149560  1  0.083653  0  0.103624  0.117916  0  1.033206  0
H  H15  1  0.41078654  0.88369296  0.55850238  1  0.083683  0  0.103619  0.117905  0  1.03318  0
H  H16  1  0.87158532  0.08204464  0.27128149  1  0.090492  0  0.101048  0.104422  0  1.048169  0
H  H17  1  0.12842146  0.91795047  0.72871448  1  0.09049  0  0.101062  0.104383  0  1.048135  0
H  H18  1  0.87531171  0.79391627  0.61706484  1  0.047029  0  0.101687  0.105041  0  1.036403  0
H  H19  1  0.12468344  0.20608699  0.38293299  1  0.046969  0  0.101694  0.105051  0  1.036367  0
H  H20  1  0.93014770  0.13376477  0.02103406  1  0.070067  0  0.098967  0.100406  0  1.020585  0
H  H21  1  0.06985064  0.86623671  0.97896596  1  0.070037  0  0.098956  0.100366  0  1.020643  0
H  H22  1  0.39192354  0.10269150  0.66073188  1  0.060999  0  0.100656  0.111491  0  1.021719  0
H  H23  1  0.60807598  0.89731086  0.33926616  1  0.060944  0  0.100644  0.111469  0  1.021634  0
H  H24  1  0.69071897  0.54652744  0.17084334  1  0.074787  0  0.110445  0.079051  0  0.999347  0
H  H25  1  0.30928697  0.45347126  0.82915222  1  0.074701  0  0.110419  0.079049  0  0.999284  0
H  H26  1  0.03946506  0.66122565  0.63120829  1  0.048957  0  0.105391  0.109598  0  1.008561  0
H  H27  1  0.96052965  0.33877683  0.36879780  1  0.049023  0  0.105439  0.109668  0  1.008556  0
H  H28  1  0.56647220  0.88734755  0.90282464  1  0.112055  0  0.10568  0.111119  0  1.03686  0
H  H29  1  0.43352456  0.11265388  0.09717195  1  0.112156  0  0.105627  0.111022  0  1.03692  0
H  H30  1  0.73344983  0.74041890  0.64875808  1  0.081415  0  0.099428  0.099087  0  1.007571  0
H  H31  1  0.26654371  0.25958439  0.35124205  1  0.08131  0  0.099416  0.099058  0  1.007582  0
H  H32  1  0.50225897  0.45014058  0.22694977  1  0.10074  0  0.100523  0.073598  0  1.041906  0
H  H33  1  0.49775414  0.54985630  0.77304509  1  0.100698  0  0.100576  0.073673  0  1.041904  0
H  H34  1  0.30971208  0.75391876  0.44715569  1  0.117941  0  0.108708  0.084041  0  1.010024  0
H  H35  1  0.69028673  0.24607644  0.55284605  1  0.117852  0  0.108685  0.08399  0  1.010108  0
H  H36  1  0.25320453  0.52065677  0.65336183  1  0.060807  0  0.108694  0.074264  0  1.004889  0
H  H37  1  0.74679056  0.47934488  0.34664909  1  0.060679  0  0.108625  0.074221  0  1.004946  0
H  H38  1  0.77339572  0.16922250  0.96505400  1  0.108166  0  0.092154  0.107512  0  1.072204  0
H  H39  1  0.22660024  0.83077721  0.03494767  1  0.108136  0  0.09216  0.1076  0  1.072209  0
H  H40  1  0.51770766  0.12583804  0.55534898  1  0.110853  0  0.085331  0.094264  0  1.064715  0
H  H41  1  0.48229265  0.87416433  0.44465021  1  0.110903  0  0.085331  0.094263  0  1.064762  0
H  H42  1  0.49361693  0.13714783  0.81590519  1  0.06789  0  0.101581  0.100102  0  1.043048  0
H  H43  1  0.50638618  0.86285188  0.18409759  1  0.067813  0  0.101607  0.100177  0  1.042986  0
H  H44  1  0.60882688  0.71764522  0.75844629  1  0.068596  0  0.105333  0.123923  0  1.004545  0
H  H45  1  0.39116468  0.28235894  0.24155131  1  0.068564  0  0.105359  0.123932  0  1.004587  0
H  H46  1  0.78555338  0.25428881  0.13244942  1  0.088896  0  0.097982  0.072188  0  1.04369  0
H  H47  1  0.21444546  0.74570631  0.86754717  1  0.089113  0  0.097915  0.072065  0  1.043752  0
H  H48  1  0.08042353  0.12438163  0.11395190  1  0.084361  0  0.106516  0.119851  0  1.009767  0
H  H49  1  0.91957401  0.87561985  0.88604813  1  0.084347  0  0.106516  0.119851  0  1.00977  0
H  H50  1  0.92944392  0.82168948  0.21035569  1  0.034231  0  0.100407  0.097963  0  1.005836  0
H  H51  1  0.07055318  0.17831472  0.78964474  1  0.03419  0  0.100409  0.097973  0  1.005815  0
H  H52  1  0.26275701  0.03941489  0.18967606  1  0.077248  0  0.095474  0.097918  0  1.033934  0
H  H53  1  0.73723930  0.96058930  0.81032381  1  0.077176  0  0.095475  0.097903  0  1.033897  0
H  H54  1  0.29082774  0.01164515  0.29778894  1  0.086262  0  0.099879  0.111332  0  1.041691  0
H  H55  1  0.70917018  0.98835724  0.70221140  1  0.086214  0  0.099886  0.111359  0  1.041661  0
H  H56  1  0.15137187  0.13056745  0.23478497  1  0.066955  0  0.096737  0.096007  0  0.985931  0
H  H57  1  0.84862449  0.86943314  0.76521531  1  0.066972  0  0.096725  0.095973  0  0.985967  0
H  H58  1  0.76003794  0.69899706  0.15475358  1  0.037992  0  0.102586  0.104321  0  1.011965  0
H  H59  1  0.23996680  0.30100080  0.84524567  1  0.037718  0  0.102587  0.104301  0  1.012001  0
H  H60  1  0.50334045  0.72619646  0.92977182  1  0.105639  0  0.109489  0.079685  0  1.031147  0
H  H61  1  0.49666271  0.27379787  0.07023300  1  0.1057  0  0.109436  0.079609  0  1.031273  0
H  H62  1  0.41350003  0.29730632  0.67158403  1  0.055984  0  0.099314  0.070812  0  1.02964  0
H  H63  1  0.58649750  0.70269519  0.32841771  1  0.055891  0  0.099309  0.070824  0  1.029687  0
H  H64  1  0.08294903  0.81140908  0.30385432  1  0.079694  0  0.108924  0.12601  0  0.994107  0
H  H65  1  0.91705092  0.18859059  0.69614561  1  0.079707  0  0.108925  0.125986  0  0.99411  0
H  H66  1  0.36290238  0.04876584  0.79940652  1  0.0224  0  0.092962  0.089715  0  1.008233  0
H  H67  1  0.63709633  0.95123832  0.20059161  1  0.022951  0  0.09296  0.089708  0  1.008307  0
H  H68  1  0.29919120  0.94874130  0.84245563  1  0.075195  0  0.102553  0.111646  0  1.026858  0
H  H69  1  0.70080469  0.05126558  0.15754350  1  0.075166  0  0.102529  0.111664  0  1.026843  0
H  H70  1  0.26559699  0.03506485  0.73272085  1  0.049599  0  0.097588  0.099307  0  1.002756  0
H  H71  1  0.73439529  0.96494473  0.26727813  1  0.049414  0  0.097583  0.099299  0  1.002805  0
C  C72  1  0.12716754  0.82292575  0.46939961  1  0.036683  0  -0.079207  -0.151017  0  3.930522  0
C  C73  1  0.87283446  0.17706766  0.53060318  1  0.036807  0  -0.079201  -0.15111  0  3.930476  0
C  C74  1  0.61797800  0.36081059  0.72613359  1  0.503284  0  0.034084  0.085867  0  3.934623  0
C  C75  1  0.38202555  0.63918640  0.27386763  1  0.503387  0  0.034024  0.085738  0  3.934191  0
C  C76  1  0.76699194  0.06426270  0.41079414  1  0.515711  0  0.11537  0.202709  0  4.031984  0
C  C77  1  0.23301164  0.93573246  0.58920529  1  0.515684  0  0.115326  0.202647  0  4.03204  0
C  C78  1  0.72809764  0.16869113  0.33089818  1  -0.016963  0  0.006576  0.07447  0  3.958426  0
C  C79  1  0.27190794  0.83130313  0.66910205  1  -0.016523  0  0.006621  0.074501  0  3.958445  0
C  C80  1  0.72009315  0.95163086  0.53710172  1  -0.043582  0  0.008153  0.125276  0  4.009927  0
C  C81  1  0.27990481  0.04836970  0.46289683  1  -0.043062  0  0.008196  0.125333  0  4.009907  0
C  C82  1  0.62476295  0.27583899  0.31797294  1  0.01773  0  -0.087363  -0.158792  0  3.954386  0
C  C83  1  0.37524299  0.72415797  0.68202654  1  0.01769  0  -0.087343  -0.158721  0  3.95431  0
C  C84  1  0.62500021  0.19000829  0.84048120  1  -0.010507  0  0.00768  0.075278  0  3.950458  0
C  C85  1  0.37500052  0.80999316  0.15951709  1  -0.010527  0  0.007588  0.075176  0  3.950527  0
C  C86  1  0.82504679  0.98608411  0.05018719  1  -0.087094  0  0.005246  0.114469  0  4.02264  0
C  C87  1  0.17495036  0.01391649  0.94981366  1  -0.087086  0  0.005223  0.114502  0  4.022593  0
C  C88  1  0.68040307  0.09050875  0.92264397  1  0.508446  0  0.118039  0.207276  0  4.026924  0
C  C89  1  0.31959767  0.90949092  0.07735538  1  0.508682  0  0.11805  0.207351  0  4.026922  0
C  C90  1  0.66876119  0.27345016  0.80558989  1  -0.043924  0  -0.083387  -0.151903  0  3.949953  0
C  C91  1  0.33123954  0.72655129  0.19440782  1  -0.043878  0  -0.083422  -0.151977  0  3.949904  0
C  C92  1  0.91651284  0.97882860  0.10722193  1  -0.018637  0  -0.025954  0.018444  0  4.010552  0
C  C93  1  0.08348508  0.02117380  0.89277899  1  -0.018604  0  -0.025985  0.018419  0  4.010602  0
C  C94  1  0.79736976  0.89045717  0.06473003  1  -0.026919  0  -0.091069  -0.229875  0  3.922216  0
C  C95  1  0.20263058  0.10954165  0.93527301  1  -0.02682  0  -0.090967  -0.229825  0  3.92201  0
C  C96  1  0.68308267  0.05113500  0.46164131  1  -0.008806  0  -0.081846  -0.20868  0  3.891275  0
C  C97  1  0.31691608  0.94886557  0.53835781  1  -0.009051  0  -0.081892  -0.208712  0  3.891333  0
C  C98  1  0.78979220  0.16272524  0.26377265  1  -0.01084  0  -0.08542  -0.157817  0  3.944817  0
C  C99  1  0.21021420  0.83726720  0.73622635  1  -0.009932  0  -0.085416  -0.157811  0  3.944758  0
C  C100  1  0.84180405  0.86963215  0.55736636  1  -0.003516  0  -0.08717  -0.21874  0  3.908764  0
C  C101  1  0.15819192  0.13036930  0.44263138  1  -0.003147  0  -0.087144  -0.218727  0  3.908728  0
C  C102  1  0.96131890  0.06300384  0.08308907  1  -0.017897  0  -0.083292  -0.084905  0  3.982627  0
C  C103  1  0.03867943  0.93699766  0.91691209  1  -0.017797  0  -0.083284  -0.084874  0  3.982584  0
C  C104  1  0.46701354  0.02270376  0.65923088  1  -0.048539  0  -0.111744  -0.222163  0  4.014858  0
C  C105  1  0.53298036  0.97730398  0.34076514  1  -0.048628  0  -0.111722  -0.222121  0  4.014987  0
C  C106  1  0.70767056  0.90232487  0.01004569  1  0.561759  0  0.115228  0.203626  0  4.040849  0
C  C107  1  0.29233095  0.09767659  0.98995316  1  0.561829  0  0.115234  0.203714  0  4.040875  0
C  C108  1  0.49483712  0.90806918  0.71813461  1  0.465674  0  0.08632  0.257705  0  4.052973  0
C  C109  1  0.50515684  0.09193319  0.28186404  1  0.465938  0  0.086315  0.25772  0  4.053042  0
C  C110  1  0.66515419  0.62366762  0.11208857  1  0.491068  0  0.036967  0.084308  0  3.963941  0
C  C111  1  0.33485170  0.37633293  0.88790993  1  0.49126  0  0.037001  0.084216  0  3.963971  0
C  C112  1  0.91965736  0.88662764  0.50208899  1  0.523502  0  0.11499  0.204846  0  4.033665  0
C  C113  1  0.08034461  0.11336933  0.49791052  1  0.523109  0  0.114967  0.20485  0  4.03381  0
C  C114  1  0.63734688  0.93528078  0.59470109  1  -0.021481  0  -0.024219  0.020444  0  4.020723  0
C  C115  1  0.36264827  0.06472247  0.40529616  1  -0.02186  0  -0.024332  0.020345  0  4.020862  0
C  C116  1  0.09489897  0.68756765  0.58847567  1  -0.037364  0  -0.087994  -0.171508  0  3.968754  0
C  C117  1  0.90509859  0.31243030  0.41152935  1  -0.037085  0  -0.088003  -0.171551  0  3.968564  0
C  C118  1  0.59547779  0.81311571  0.96303691  1  0.014614  0  -0.082435  -0.150912  0  3.927268  0
C  C119  1  0.40452335  0.18688483  0.03696047  1  0.014701  0  -0.082405  -0.150791  0  3.927465  0
C  C120  1  0.66037521  0.82036784  0.65231891  1  -0.105207  0  -0.08892  -0.105984  0  4.006083  0
C  C121  1  0.33961675  0.17963544  0.34768065  1  -0.104863  0  -0.088803  -0.105871  0  4.006038  0
C  C122  1  0.58407261  0.36698600  0.23952267  1  0.404417  0  0.030116  0.080655  0  3.941158  0
C  C123  1  0.41594055  0.63300556  0.76047769  1  0.404183  0  0.029982  0.080396  0  3.941127  0
C  C124  1  0.24607481  0.73786244  0.48632203  1  0.436616  0  0.040423  0.090382  0  3.921179  0
C  C125  1  0.75392600  0.26213010  0.51368273  1  0.43647  0  0.040513  0.090529  0  3.921054  0
C  C126  1  0.21484161  0.60771300  0.60127733  1  0.510546  0  0.033191  0.079451  0  3.979027  0
C  C127  1  0.78515634  0.39228410  0.39873080  1  0.510759  0  0.033259  0.079508  0  3.978946  0
C  C128  1  0.04760216  0.79870852  0.52067713  1  -0.047675  0  0.010196  0.081991  0  3.956953  0
C  C129  1  0.95239702  0.20128761  0.47932665  1  -0.047815  0  0.010177  0.081992  0  3.956831  0
C  C130  1  0.76138116  0.08929911  0.97809058  1  0.015679  0  -0.084655  -0.208306  0  3.885673  0
C  C131  1  0.23861521  0.91069970  0.02191134  1  0.015457  0  -0.084631  -0.20841  0  3.885649  0
C  C132  1  0.09193189  0.96681972  0.21571381  1  0.415021  0  0.089063  0.262116  0  4.057528  0
C  C133  1  0.90806885  0.03317996  0.78428669  1  0.415002  0  0.089084  0.262113  0  4.057604  0
C  C134  1  0.53802568  0.03525228  0.59831528  1  -0.053167  0  -0.088089  -0.091823  0  3.979203  0
C  C135  1  0.46197108  0.96474916  0.40168188  1  -0.053178  0  -0.088084  -0.091848  0  3.979273  0
C  C136  1  0.52997459  0.20039208  0.79143470  1  0.013723  0  -0.085222  -0.155753  0  3.973337  0
C  C137  1  0.47002570  0.79961208  0.20856342  1  0.013744  0  -0.08519  -0.155659  0  3.972983  0
C  C138  1  0.59081677  0.80629041  0.71346463  1  0.036871  0  -0.101152  -0.194361  0  3.988751  0
C  C139  1  0.40917596  0.19371644  0.28653222  1  0.036644  0  -0.101232  -0.194443  0  3.988518  0
C  C140  1  0.74260734  0.25779966  0.18690386  1  0.442904  0  0.031518  0.079732  0  3.938556  0
C  C141  1  0.25739667  0.74219281  0.81309630  1  0.441688  0  0.031573  0.07992  0  3.938394  0
C  C142  1  0.04729292  0.05815408  0.13595645  1  -0.047532  0  -0.109249  -0.219878  0  4.002874  0
C  C143  1  0.95270462  0.94184742  0.86404472  1  -0.047611  0  -0.109241  -0.219871  0  4.002866  0
C  C144  1  0.96254049  0.88812086  0.18799625  1  -0.074503  0  -0.089096  -0.106015  0  4.008281  0
C  C145  1  0.03745823  0.11188153  0.81200409  1  -0.074496  0  -0.089109  -0.106023  0  4.008174  0
C  C146  1  0.22246748  0.03975044  0.24598702  1  0.322392  0  -0.143906  -0.178426  0  3.886872  0
C  C147  1  0.77753086  0.96025104  0.75401300  1  0.32256  0  -0.143887  -0.178381  0  3.886795  0
C  C148  1  0.70443013  0.70916702  0.10216593  1  -0.009033  0  -0.090754  -0.17709  0  3.984787  0
C  C149  1  0.29557456  0.29083444  0.89783291  1  -0.008506  0  -0.090805  -0.177048  0  3.98492  0
C  C150  1  0.55987070  0.72429777  0.97794548  1  0.448537  0  0.039156  0.093179  0  3.928339  0
C  C151  1  0.44013598  0.27570281  0.02205531  1  0.448337  0  0.039224  0.09319  0  3.928389  0
C  C152  1  0.67008484  0.80711449  0.02577000  1  -0.032525  0  0.006385  0.076695  0  3.969687  0
C  C153  1  0.32991866  0.19288786  0.97422802  1  -0.033104  0  0.006407  0.076648  0  3.969837  0
C  C154  1  0.48480206  0.28937470  0.71218176  1  0.457352  0  0.025471  0.06449  0  3.964546  0
C  C155  1  0.51519864  0.71062681  0.28781996  1  0.457425  0  0.025408  0.064267  0  3.964642  0
C  C156  1  0.04837361  0.88155142  0.24153571  1  0.06552  0  -0.10024  -0.199937  0  3.999896  0
C  C157  1  0.95162712  0.11844827  0.75846536  1  0.065533  0  -0.100203  -0.199858  0  3.999884  0
C  C158  1  0.33485941  0.98650328  0.78861895  1  0.409861  0  -0.142436  -0.184343  0  3.925164  0
C  C159  1  0.66513530  0.01350268  0.21137928  1  0.409553  0  -0.142441  -0.184435  0  3.925335  0
I  I160  1  0.59315646  0.60846421  0.52435709  1  -0.517037  0  -0.267118  -0.453976  0  1.62318  0
I  I161  1  0.40684024  0.39154086  0.47564195  1  -0.517031  0  -0.267123  -0.453994  0  1.623218  0
I  I162  1  0.67353597  0.42830140  0.94505305  1  -0.507454  0  -0.27358  -0.455865  0  1.663001  0
I  I163  1  0.32646595  0.57170091  0.05494212  1  -0.507504  0  -0.273595  -0.455901  0  1.662923  0
N  N164  1  0.52727909  0.36984469  0.67883326  1  -1.225584  0  -0.366931  -0.190448  0  3.65851  0
N  N165  1  0.47272439  0.63015770  0.32116705  1  -1.225602  0  -0.366792  -0.190201  0  3.658184  0
N  N166  1  0.59424472  0.62978703  0.05136575  1  -1.229482  0  -0.359638  -0.181742  0  3.640841  0
N  N167  1  0.40575959  0.37021352  0.94863276  1  -1.229447  0  -0.359593  -0.181554  0  3.640707  0
N  N168  1  0.65207689  0.99973971  0.93919837  1  -1.217515  0  -0.313079  -0.346126  0  3.317864  0
N  N169  1  0.34792786  0.00025813  0.06079916  1  -1.217628  0  -0.313079  -0.346187  0  3.31795  0
N  N170  1  0.88274254  0.98261657  0.42965447  1  -1.182386  0  -0.310943  -0.33884  0  3.282308  0
N  N171  1  0.11725866  0.01737859  0.57034497  1  -1.182322  0  -0.310922  -0.338825  0  3.282274  0
N  N172  1  0.63922569  0.35820191  0.17351871  1  -1.230809  0  -0.366599  -0.195434  0  3.658798  0
N  N173  1  0.36078147  0.64179235  0.82648151  1  -1.230842  0  -0.366547  -0.195313  0  3.6587  0
N  N174  1  0.29051357  0.63078520  0.55113714  1  -1.224932  0  -0.364463  -0.191494  0  3.674336  0
N  N175  1  0.70948483  0.36920915  0.44886828  1  -1.224986  0  -0.364546  -0.191605  0  3.674232  0
O  O176  1  0.43407191  0.88619909  0.78189931  1  -1.088753  0  -0.178241  -0.15142  0  2.60381  0
O  O177  1  0.56591923  0.11380775  0.21809698  1  -1.088781  0  -0.178175  -0.151265  0  2.603748  0
O  O178  1  0.17676527  0.95369001  0.27135804  1  -1.064098  0  -0.179922  -0.15341  0  2.556012  0
O  O179  1  0.82323626  0.04630966  0.72864188  1  -1.064145  0  -0.179973  -0.153469  0  2.556031  0
