# generated using pymatgen
data_ZnH20C30N6O7
_symmetry_space_group_name_H-M   'P 1'
_cell_length_a   7.47770610
_cell_length_b   10.89046243
_cell_length_c   19.04600000
_cell_angle_alpha   79.95048394
_cell_angle_beta   79.47069572
_cell_angle_gamma   73.21816199
_symmetry_Int_Tables_number   1
_chemical_formula_structural   ZnH20C30N6O7
_chemical_formula_sum   'Zn2 H40 C60 N12 O14'
_cell_volume   1447.70151544
_cell_formula_units_Z   2
loop_
 _symmetry_equiv_pos_site_id
 _symmetry_equiv_pos_as_xyz
  1  'x, y, z'
loop_
 _atom_site_type_symbol
 _atom_site_label
 _atom_site_symmetry_multiplicity
 _atom_site_fract_x
 _atom_site_fract_y
 _atom_site_fract_z
 _atom_site_occupancy
 _atom_site_hle17_bader_spin_density
 _atom_site_hle17_ddec_charge
 _atom_site_hle17_ddec_spin_density
 _atom_site_hle17_ddec_sum_bond_order
 _atom_site_hle17_magmom
 _atom_site_hse06_10hf_bader_spin_density
 _atom_site_hse06_10hf_ddec_charge
 _atom_site_hse06_10hf_ddec_spin_density
 _atom_site_hse06_10hf_ddec_sum_bond_order
 _atom_site_hse06_10hf_magmom
 _atom_site_hse06_bader_spin_density
 _atom_site_hse06_ddec_charge
 _atom_site_hse06_ddec_spin_density
 _atom_site_hse06_ddec_sum_bond_order
 _atom_site_hse06_magmom
 _atom_site_pbe_bader_charge
 _atom_site_pbe_bader_spin_density
 _atom_site_pbe_cm5_charge
 _atom_site_pbe_ddec_charge
 _atom_site_pbe_ddec_spin_density
 _atom_site_pbe_ddec_sum_bond_order
 _atom_site_pbe_magmom
Zn  Zn0  1  0.27702461  0.71770785  0.03369423  1  0  0.932887  0  1.96355  0  0  0.736992  0  2.439948  0  0  0.779645  0  2.391995  0  1.233814  0  0.714689  0.707476  0  2.472644  0
Zn  Zn1  1  0.62126135  0.21198982  0.55301261  1  0  0.931596  0  1.954983  0  0  0.737086  0  2.426324  0  0  0.780153  0  2.378968  0  1.233049  0  0.710153  0.70741  0  2.458457  0
H  H2  1  0.27016975  0.99519478  0.91502140  1  0  0.106777  0  0.965985  0  0  0.114351  0  1.033318  0  0  0.117493  0  1.029197  0  0.162663  0  0.135729  0.111969  0  1.036432  0
H  H3  1  0.84812599  0.81847019  0.02874013  1  0  0.117406  0  0.95193  0  0  0.125734  0  1.0107  0  0  0.128598  0  1.009377  0  0.121497  0  0.122034  0.123596  0  1.0119  0
H  H4  1  0.67797704  0.04796558  0.94636229  1  0  0.128227  0  0.993543  0  0  0.134591  0  1.058577  0  0  0.138191  0  1.056091  0  0.182326  0  0.121238  0.132019  0  1.060418  0
H  H5  1  0.81282735  0.54016210  0.08978678  1  0  0.095168  0  0.955407  0  0  0.104116  0  1.018774  0  0  0.107943  0  1.016319  0  0.087757  0  0.095882  0.101315  0  1.020728  0
H  H6  1  0.13501031  0.09603174  0.78083990  1  0  0.130106  0  0.96609  0  0  0.135155  0  1.037277  0  0  0.136844  0  1.038983  0  0.119182  0  0.115402  0.133881  0  1.036332  0
H  H7  1  0.76298629  0.27491997  0.95706894  1  0  0.132363  0  0.925743  0  0  0.146683  0  0.977636  0  0  0.149909  0  0.976158  0  0.125035  0  0.12494  0.144342  0  0.978906  0
H  H8  1  0.58553648  0.41877994  0.16092018  1  0  0.118515  0  0.992078  0  0  0.125292  0  1.056056  0  0  0.129107  0  1.053407  0  0.166241  0  0.100348  0.122457  0  1.058116  0
H  H9  1  0.68291295  0.25653439  0.26463310  1  0  0.118914  0  0.963555  0  0  0.122296  0  1.036042  0  0  0.12677  0  1.03259  0  0.14405  0  0.102935  0.119088  0  1.038479  0
H  H10  1  0.88396898  0.50852486  0.75479099  1  0  0.14018  0  0.933396  0  0  0.15032  0  0.992594  0  0  0.154124  0  0.990067  0  0.131016  0  0.122906  0.147592  0  0.994445  0
H  H11  1  0.40206602  0.20801751  0.71020947  1  0  0.118101  0  0.960553  0  0  0.123166  0  1.026269  0  0  0.126386  0  1.02287  0  0.225735  0  0.142965  0.120711  0  1.028876  0
H  H12  1  0.89593386  0.42946271  0.62989854  1  0  0.126152  0  0.928549  0  0  0.140372  0  0.978342  0  0  0.143231  0  0.97682  0  0.152093  0  0.133787  0.138238  0  0.979615  0
H  H13  1  0.78909588  0.66639285  0.80997486  1  0  0.13111  0  1.006648  0  0  0.137134  0  1.069211  0  0  0.140858  0  1.06657  0  0.198374  0  0.125606  0.134425  0  1.07119  0
H  H14  1  0.52766973  0.44312930  0.98358005  1  0  0.109355  0  0.929823  0  0  0.120687  0  0.986213  0  0  0.123087  0  0.983407  0  0.184011  0  0.146108  0.118897  0  0.988229  0
H  H15  1  0.96240083  0.08935900  0.19329036  1  0  0.117349  0  0.952939  0  0  0.131552  0  1.002748  0  0  0.134501  0  1.002412  0  0.091726  0  0.108885  0.129435  0  1.003205  0
H  H16  1  0.09650320  0.00374985  0.41068443  1  0  0.126681  0  0.941503  0  0  0.136659  0  1.001618  0  0  0.140857  0  0.998889  0  0.103811  0  0.105553  0.13361  0  1.003742  0
H  H17  1  0.19185165  0.40088184  0.51729208  1  0  0.104204  0  0.952723  0  0  0.114094  0  1.012227  0  0  0.116511  0  1.011596  0  0.121989  0  0.121425  0.112274  0  1.012925  0
H  H18  1  0.54788639  0.82607628  0.90106356  1  0  0.117128  0  0.953313  0  0  0.125599  0  1.013786  0  0  0.128499  0  1.012194  0  0.105277  0  0.123203  0.123465  0  1.015117  0
H  H19  1  0.98763125  0.85638071  0.19306580  1  0  0.101363  0  0.938532  0  0  0.112114  0  0.996779  0  0  0.115824  0  0.993833  0  0.114628  0  0.105245  0.109335  0  0.999047  0
H  H20  1  0.14454428  0.76839224  0.40580387  1  0  0.09026  0  0.941025  0  0  0.102167  0  0.998236  0  0  0.105419  0  0.996069  0  0.068854  0  0.09795  0.099741  0  0.999927  0
H  H21  1  0.69870010  0.92190297  0.49525718  1  0  0.103718  0  0.91791  0  0  0.117834  0  0.970086  0  0  0.120093  0  0.967508  0  0.146872  0  0.146975  0.116104  0  0.972046  0
H  H22  1  0.42252516  0.30491973  0.41739379  1  0  0.109438  0  0.946453  0  0  0.12064  0  1.002545  0  0  0.123118  0  1.001732  0  0.072957  0  0.122423  0.118722  0  1.003364  0
H  H23  1  0.24827221  0.48439893  0.30602722  1  0  0.404468  0  0.901698  0  0  0.370492  0  0.982432  0  0  0.384446  0  0.962801  0  0.658644  0  0.288912  0.360599  0  0.996371  0
H  H24  1  0.39871070  0.14456893  0.32582068  1  0  0.130595  0  1.009323  0  0  0.133106  0  1.077435  0  0  0.137089  0  1.074098  0  0.201076  0  0.129083  0.13013  0  1.08001  0
H  H25  1  0.27389560  0.05910196  0.58689938  1  0  0.094485  0  0.971393  0  0  0.100769  0  1.040668  0  0  0.104172  0  1.039139  0  0.072817  0  0.094236  0.098322  0  1.041854  0
H  H26  1  0.64361411  0.74622779  0.46213222  1  0  0.119815  0  0.942325  0  0  0.131877  0  0.999793  0  0  0.134956  0  0.998493  0  0.085244  0  0.115157  0.129587  0  1.000829  0
H  H27  1  0.49988789  0.00227680  0.26825288  1  0  0.139411  0  0.9768  0  0  0.146152  0  1.041284  0  0  0.150194  0  1.038374  0  0.148301  0  0.120143  0.143184  0  1.043603  0
H  H28  1  0.52286458  0.94881542  0.66749645  1  0  0.105962  0  0.969828  0  0  0.113167  0  1.033452  0  0  0.116468  0  1.031982  0  0.132981  0  0.098692  0.110718  0  1.034758  0
H  H29  1  0.44536398  0.80650297  0.77744127  1  0  0.11428  0  0.979849  0  0  0.118263  0  1.053018  0  0  0.122147  0  1.050576  0  0.124668  0  0.102507  0.115362  0  1.055018  0
H  H30  1  0.61596188  0.58799807  0.27398993  1  0  0.138002  0  0.93285  0  0  0.146974  0  0.994152  0  0  0.149676  0  0.993261  0  0.139568  0  0.123178  0.145109  0  0.994832  0
H  H31  1  0.94969735  0.45878833  0.33767153  1  0  0.133296  0  0.976408  0  0  0.137758  0  1.04269  0  0  0.141191  0  1.040519  0  0.205648  0  0.130282  0.135091  0  1.04471  0
H  H32  1  0.47192344  0.52949964  0.49801138  1  0  0.097449  0  0.928618  0  0  0.108918  0  0.987374  0  0  0.111674  0  0.984095  0  0.119675  0  0.139128  0.106903  0  0.989649  0
H  H33  1  0.44216422  0.63854415  0.18529423  1  0  0.113283  0  0.941522  0  0  0.121482  0  1.005374  0  0  0.123762  0  1.003053  0  0.191758  0  0.14607  0.119582  0  1.007346  0
H  H34  1  0.49726207  0.02389864  0.16116155  1  0  0.146373  0  0.969788  0  0  0.154833  0  1.028026  0  0  0.158996  0  1.024327  0  0.216156  0  0.130973  0.151655  0  1.03101  0
H  H35  1  0.35759566  0.62939150  0.71891196  1  0  0.116872  0  0.950653  0  0  0.130707  0  1.000527  0  0  0.133767  0  0.999973  0  0.073332  0  0.106182  0.128461  0  1.001141  0
H  H36  1  0.05974206  0.59657910  0.93494904  1  0  0.125192  0  0.940201  0  0  0.134207  0  1.001009  0  0  0.138232  0  0.998977  0  0.113907  0  0.108099  0.13126  0  1.002689  0
H  H37  1  0.97182035  0.24184643  0.44312523  1  0  0.1273  0  0.959134  0  0  0.133377  0  1.022519  0  0  0.136687  0  1.02014  0  0.181718  0  0.123925  0.130989  0  1.024299  0
H  H38  1  0.36606772  0.98727145  0.04291314  1  0  0.11368  0  0.945359  0  0  0.124952  0  0.999899  0  0  0.127338  0  0.99912  0  0.104174  0  0.1238  0.123224  0  1.000549  0
H  H39  1  0.50936236  0.39345371  0.73479388  1  0  0.092082  0  0.953336  0  0  0.103344  0  1.013687  0  0  0.106578  0  1.010927  0  0.049859  0  0.100683  0.100954  0  1.015769  0
H  H40  1  0.20618619  0.35806856  0.94865897  1  0  0.103452  0  0.932831  0  0  0.114757  0  0.988563  0  0  0.118449  0  0.985722  0  0.102465  0  0.105941  0.112045  0  0.990725  0
H  H41  1  0.63603053  0.07366031  0.79644623  1  0  0.415638  0  0.886274  0  0  0.378586  0  0.968129  0  0  0.393001  0  0.947906  0  0.669603  0  0.29111  0.368483  0  0.982279  0
C  C42  1  0.13596916  0.97247613  0.93443042  1  0  0.176712  0  3.616948  0  0  0.113611  0  3.881001  0  0  0.127878  0  3.891892  0  0.975007  0  0.148219  0.104547  0  3.87326  0
C  C43  1  0.90924332  0.88958675  0.99331679  1  0  0.005311  0  3.727137  0  0  -0.028446  0  3.990589  0  0  -0.027296  0  4.010504  0  0.457027  0  -0.000538  -0.029256  0  3.977406  0
C  C44  1  0.16278625  0.52086445  0.10998423  1  0  0.644122  0  3.90429  0  0  0.596002  0  4.193163  0  0  0.630282  0  4.185308  0  1.55802  0  0.199187  0.572749  0  4.197542  0
C  C45  1  0.82393824  0.00233967  0.95415530  1  0  -0.052112  0  3.642731  0  0  -0.093063  0  3.897899  0  0  -0.091993  0  3.916314  0  0.263852  0  0.00476  -0.093838  0  3.885694  0
C  C46  1  0.03797158  0.43994817  0.15100367  1  0  -0.054273  0  3.742667  0  0  -0.037577  0  3.974257  0  0  -0.044334  0  3.9962  0  0.015128  0  -0.017877  -0.03339  0  3.959827  0
C  C47  1  0.94800939  0.17495171  0.87270372  1  0  0.230422  0  3.774992  0  0  0.224625  0  4.023451  0  0  0.23174  0  4.044483  0  0.347966  0  0.111304  0.219879  0  4.009276  0
C  C48  1  0.09806197  0.34319586  0.20776438  1  0  -0.132547  0  3.679971  0  0  -0.130541  0  3.924434  0  0  -0.133068  0  3.939564  0  -0.034829  0  -0.008526  -0.128725  0  3.914466  0
C  C49  1  0.85462904  0.46529181  0.13425445  1  0  -0.087665  0  3.754142  0  0  -0.116551  0  4.010761  0  0  -0.117089  0  4.030778  0  -0.048662  0  -0.098902  -0.116477  0  3.997822  0
C  C50  1  0.04542846  0.18255393  0.80301598  1  0  -0.202473  0  3.650213  0  0  -0.237189  0  3.906837  0  0  -0.242536  0  3.926903  0  0.074014  0  -0.077405  -0.233866  0  3.893539  0
C  C51  1  0.82998079  0.28443145  0.90136008  1  0  -0.219702  0  3.672379  0  0  -0.25432  0  3.928363  0  0  -0.260331  0  3.946973  0  -0.00323  0  -0.079336  -0.250395  0  3.915981  0
C  C52  1  0.29223958  0.30189432  0.23126442  1  0  0.688886  0  3.907279  0  0  0.631473  0  4.223486  0  0  0.667252  0  4.210124  0  1.642128  0  0.206652  0.606813  0  4.232168  0
C  C53  1  0.96683049  0.27878975  0.24696710  1  0  0.212833  0  3.78129  0  0  0.199513  0  4.045099  0  0  0.206689  0  4.06224  0  0.305577  0  0.073001  0.194619  0  4.033259  0
C  C54  1  0.72744428  0.39930143  0.17425025  1  0  -0.078364  0  3.77578  0  0  -0.093181  0  4.032926  0  0  -0.094769  0  4.051589  0  -0.062264  0  -0.10257  -0.092205  0  4.020772  0
C  C55  1  0.01896829  0.30403281  0.76187932  1  0  0.215049  0  3.781834  0  0  0.21099  0  4.029341  0  0  0.217011  0  4.051804  0  0.36356  0  0.107033  0.206959  0  4.014164  0
C  C56  1  0.80627814  0.40450692  0.85879682  1  0  0.227194  0  3.791074  0  0  0.220904  0  4.041308  0  0  0.227713  0  4.064209  0  0.324462  0  0.112821  0.21635  0  4.025802  0
C  C57  1  0.78266078  0.30693635  0.23233841  1  0  -0.151026  0  3.749985  0  0  -0.177842  0  4.011725  0  0  -0.178609  0  4.027089  0  -0.00801  0  -0.098067  -0.177626  0  4.00161  0
C  C58  1  0.89911037  0.41516647  0.78820567  1  0  -0.216151  0  3.659044  0  0  -0.249788  0  3.915186  0  0  -0.255653  0  3.934375  0  -0.00663  0  -0.078446  -0.245959  0  3.902359  0
C  C59  1  0.03070355  0.05990958  0.30173495  1  0  0.305273  0  3.758351  0  0  0.292144  0  4.022846  0  0  0.305862  0  4.036262  0  0.401705  0  0.092381  0.282552  0  4.013947  0
C  C60  1  0.30656985  0.26313072  0.67230052  1  0  0.186128  0  3.61653  0  0  0.126168  0  3.88135  0  0  0.140188  0  3.893053  0  0.965992  0  0.155858  0.117282  0  3.872986  0
C  C61  1  0.04474793  0.38162577  0.62901400  1  0  -0.042121  0  3.650531  0  0  -0.083704  0  3.904687  0  0  -0.081718  0  3.922773  0  0.302245  0  0.010775  -0.084932  0  3.892414  0
C  C62  1  0.70294369  0.64273504  0.85993720  1  0  -0.03562  0  3.62908  0  0  -0.079558  0  3.890811  0  0  -0.077286  0  3.908051  0  0.278752  0  0.01  -0.081161  0  3.87948  0
C  C63  1  0.56726981  0.52451661  0.94967536  1  0  0.183653  0  3.620859  0  0  0.121794  0  3.882258  0  0  0.135855  0  3.894867  0  0.947072  0  0.154501  0.11298  0  3.873155  0
C  C64  1  0.99831054  0.01964391  0.24025747  1  0  -0.195757  0  3.755707  0  0  -0.214865  0  4.006486  0  0  -0.221727  0  4.025967  0  0.003533  0  -0.10623  -0.210353  0  3.993451  0
C  C65  1  0.07687949  0.97022835  0.36259515  1  0  -0.198926  0  3.734702  0  0  -0.222747  0  3.999669  0  0  -0.229083  0  4.017711  0  0.026404  0  -0.109796  -0.218545  0  3.987736  0
C  C66  1  0.19307739  0.36664959  0.57421528  1  0  -0.001154  0  3.751329  0  0  -0.035862  0  4.019232  0  0  -0.034791  0  4.040098  0  0.374864  0  -0.000783  -0.036534  0  4.005093  0
C  C67  1  0.57858937  0.72181266  0.90543696  1  0  0.009633  0  3.713044  0  0  -0.024152  0  3.977039  0  0  -0.023369  0  3.996541  0  0.431313  0  0.004142  -0.024621  0  3.964041  0
C  C68  1  0.01386937  0.88986241  0.23994770  1  0  -0.043804  0  3.774048  0  0  -0.068666  0  4.027311  0  0  -0.065456  0  4.045886  0  -0.091706  0  -0.086723  -0.070349  0  4.014486  0
C  C69  1  0.10089348  0.83933084  0.35994002  1  0  -0.05944  0  3.786004  0  0  -0.084442  0  4.043345  0  0  -0.081752  0  4.063111  0  -0.096503  0  -0.093558  -0.086161  0  4.030035  0
C  C70  1  0.06981656  0.79774978  0.29859513  1  0  -0.115318  0  3.825796  0  0  -0.096966  0  4.070057  0  0  -0.107023  0  4.094574  0  -0.008797  0  -0.040946  -0.090483  0  4.053552  0
C  C71  1  0.09579238  0.66079854  0.28978089  1  0  0.623141  0  3.878214  0  0  0.575582  0  4.181203  0  0  0.608432  0  4.172702  0  1.521685  0  0.207555  0.553249  0  4.186297  0
C  C72  1  0.61616675  0.00375372  0.46349348  1  0  0.183613  0  3.615479  0  0  0.122675  0  3.876875  0  0  0.136659  0  3.889049  0  0.978427  0  0.155197  0.11358  0  3.868382  0
C  C73  1  0.47285071  0.20057488  0.42141650  1  0  0.008202  0  3.721125  0  0  -0.025056  0  3.983846  0  0  -0.02455  0  4.00409  0  0.468786  0  0.003554  -0.025291  0  3.970099  0
C  C74  1  0.91870531  0.06052278  0.60659856  1  0  0.634344  0  3.915021  0  0  0.588594  0  4.201525  0  0  0.622397  0  4.194119  0  1.544724  0  0.193901  0.565637  0  4.205946  0
C  C75  1  0.45962938  0.12209402  0.37524301  1  0  -0.021219  0  3.62039  0  0  -0.063933  0  3.879801  0  0  -0.06074  0  3.895437  0  0.287671  0  0.015  -0.065951  0  3.869417  0
C  C76  1  0.05703309  0.98808293  0.65697345  1  0  -0.06317  0  3.744837  0  0  -0.045698  0  3.976484  0  0  -0.052008  0  3.997888  0  0.017073  0  -0.020103  -0.041721  0  3.962247  0
C  C77  1  0.57006312  0.88663872  0.36863916  1  0  0.224568  0  3.788901  0  0  0.218084  0  4.036694  0  0  0.224403  0  4.059985  0  0.354979  0  0.107337  0.213885  0  4.020899  0
C  C78  1  0.00986680  0.90895404  0.72049995  1  0  -0.1356  0  3.676244  0  0  -0.133754  0  3.922171  0  0  -0.135934  0  3.937066  0  0.042405  0  -0.014314  -0.132643  0  3.912515  0
C  C79  1  0.24227356  0.99942920  0.63727920  1  0  -0.103954  0  3.7852  0  0  -0.131798  0  4.041431  0  0  -0.132655  0  4.061838  0  -0.049388  0  -0.102918  -0.131084  0  4.02761  0
C  C80  1  0.61688211  0.76270508  0.40651662  1  0  -0.241105  0  3.72191  0  0  -0.276465  0  3.981035  0  0  -0.282774  0  4.001806  0  0.011005  0  -0.090476  -0.27187  0  3.966753  0
C  C81  1  0.53715535  0.90502913  0.29731860  1  0  -0.210235  0  3.648121  0  0  -0.241495  0  3.899918  0  0  -0.247312  0  3.919074  0  0.093016  0  -0.076781  -0.238136  0  3.887552  0
C  C82  1  0.82064822  0.87793582  0.74204110  1  0  0.686277  0  3.909161  0  0  0.630972  0  4.223019  0  0  0.665904  0  4.211333  0  1.628481  0  0.204667  0.607162  0  4.230211  0
C  C83  1  0.15485412  0.84119464  0.76126381  1  0  0.220239  0  3.764902  0  0  0.205538  0  4.030973  0  0  0.213664  0  4.046497  0  0.316077  0  0.074118  0.199846  0  4.020551  0
C  C84  1  0.38026588  0.93733084  0.68117602  1  0  -0.070932  0  3.789635  0  0  -0.084937  0  4.045511  0  0  -0.086058  0  4.06397  0  -0.061387  0  -0.10234  -0.084352  0  4.033351  0
C  C85  1  0.63291048  0.65783503  0.37078211  1  0  0.207424  0  3.784832  0  0  0.201856  0  4.036156  0  0  0.207278  0  4.058812  0  0.348362  0  0.100857  0.198219  0  4.020761  0
C  C86  1  0.54787126  0.79838620  0.26400708  1  0  0.230525  0  3.748822  0  0  0.224179  0  3.994711  0  0  0.230992  0  4.01548  0  0.258509  0  0.116376  0.219667  0  3.980927  0
C  C87  1  0.33660768  0.85719993  0.74380839  1  0  -0.161137  0  3.758467  0  0  -0.186414  0  4.017708  0  0  -0.187267  0  4.032787  0  -0.043126  0  -0.100255  -0.185766  0  4.00782  0
C  C88  1  0.59955588  0.67286344  0.29984534  1  0  -0.17567  0  3.644774  0  0  -0.211933  0  3.905575  0  0  -0.215028  0  3.921633  0  0.048926  0  -0.069663  -0.210489  0  3.895268  0
C  C89  1  0.19875871  0.62766794  0.82606992  1  0  0.306362  0  3.75221  0  0  0.293123  0  4.016672  0  0  0.307235  0  4.030229  0  0.421034  0  0.09611  0.283635  0  4.007308  0
C  C90  1  0.85804457  0.43901772  0.38684941  1  0  -0.026086  0  3.604841  0  0  -0.067219  0  3.860605  0  0  -0.065261  0  3.877775  0  0.276214  0  0.013889  -0.06879  0  3.84952  0
C  C91  1  0.60661372  0.47932594  0.47059510  1  0  0.14729  0  3.671825  0  0  0.086942  0  3.933269  0  0  0.100396  0  3.945423  0  0.970774  0  0.137744  0.078546  0  3.924409  0
C  C92  1  0.44290869  0.73663023  0.16209630  1  0  0.190159  0  3.607381  0  0  0.126607  0  3.87326  0  0  0.140726  0  3.885862  0  0.964899  0  0.158497  0.117557  0  3.864574  0
C  C93  1  0.47346570  0.93742369  0.14787660  1  0  -0.040544  0  3.61941  0  0  -0.08195  0  3.87196  0  0  -0.079871  0  3.889558  0  0.315545  0  0.01367  -0.083262  0  3.860344  0
C  C94  1  0.32457079  0.57025375  0.76922601  1  0  -0.201463  0  3.744133  0  0  -0.218251  0  3.992844  0  0  -0.225513  0  4.012086  0  -0.082211  0  -0.10917  -0.213573  0  3.979956  0
C  C95  1  0.15606206  0.55084487  0.89091273  1  0  -0.187528  0  3.722555  0  0  -0.212359  0  3.989677  0  0  -0.218838  0  4.007697  0  0.066397  0  -0.103727  -0.207991  0  3.977323  0
C  C96  1  0.86704784  0.33406933  0.43881669  1  0  0.011558  0  3.704031  0  0  -0.025825  0  3.972802  0  0  -0.024047  0  3.991272  0  0.406066  0  0.001566  -0.0271  0  3.960437  0
C  C97  1  0.40419472  0.91906036  0.09000374  1  0  -0.000672  0  3.729869  0  0  -0.029969  0  3.987716  0  0  -0.029881  0  4.009184  0  0.362015  0  0.002611  -0.030059  0  3.973265  0
C  C98  1  0.40850745  0.43777486  0.77819868  1  0  -0.047357  0  3.777081  0  0  -0.075724  0  4.036996  0  0  -0.07172  0  4.055534  0  0.067488  0  -0.091933  -0.078205  0  4.024328  0
C  C99  1  0.23879048  0.41818415  0.89847810  1  0  -0.049692  0  3.75834  0  0  -0.074763  0  4.013659  0  0  -0.071677  0  4.032697  0  -0.152769  0  -0.085835  -0.076423  0  4.000376  0
C  C100  1  0.36715955  0.35924854  0.84248567  1  0  -0.126926  0  3.815281  0  0  -0.110043  0  4.065014  0  0  -0.121287  0  4.0909  0  0.010867  0  -0.043268  -0.102545  0  4.04733  0
C  C101  1  0.45589496  0.21704056  0.85167159  1  0  0.63415  0  3.870698  0  0  0.583018  0  4.176672  0  0  0.616722  0  4.16857  0  1.49494  0  0.212496  0.560064  0  4.181689  0
N  N102  1  0.10287620  0.87260072  0.98089484  1  0  -0.36647  0  3.287952  0  0  -0.287807  0  3.586927  0  0  -0.30617  0  3.598675  0  -1.262504  0  -0.35474  -0.275309  0  3.578538  0
N  N103  1  0.38517467  0.79399316  0.09965590  1  0  -0.37398  0  3.325718  0  0  -0.293001  0  3.628003  0  0  -0.312208  0  3.64048  0  -1.244585  0  -0.356158  -0.280067  0  3.619356  0
N  N104  1  0.49461123  0.64708552  0.96068230  1  0  -0.369106  0  3.341875  0  0  -0.286994  0  3.641461  0  0  -0.306214  0  3.654277  0  -1.239281  0  -0.357721  -0.273946  0  3.632317  0
N  N105  1  0.96940563  0.05361308  0.91693673  1  0  -0.092133  0  3.582986  0  0  -0.001868  0  3.793173  0  0  -0.016648  0  3.817634  0  -1.264617  0  -0.223064  0.007995  0  3.776358  0
N  N106  1  0.11865764  0.31518370  0.69083854  1  0  -0.090364  0  3.591477  0  0  -0.000537  0  3.800798  0  0  -0.015757  0  3.826679  0  -1.288906  0  -0.218716  0.009614  0  3.782897  0
N  N107  1  0.69524112  0.51755758  0.88822343  1  0  -0.095318  0  3.5847  0  0  -0.004707  0  3.79323  0  0  -0.020743  0  3.81987  0  -1.24536  0  -0.219228  0.005945  0  3.774982  0
N  N108  1  0.35563504  0.29353574  0.60207020  1  0  -0.380336  0  3.291276  0  0  -0.301731  0  3.589266  0  0  -0.321262  0  3.602299  0  -1.243427  0  -0.357024  -0.28853  0  3.580047  0
N  N109  1  0.56974811  0.12597444  0.47626487  1  0  -0.371925  0  3.328746  0  0  -0.290287  0  3.626406  0  0  -0.309596  0  3.640009  0  -1.255647  0  -0.357347  -0.277301  0  3.616811  0
N  N110  1  0.70936123  0.35994590  0.49051825  1  0  -0.38829  0  3.334403  0  0  -0.307635  0  3.634589  0  0  -0.32683  0  3.647643  0  -1.26643  0  -0.362154  -0.294479  0  3.625143  0
N  N111  1  0.55071398  0.99733424  0.40211741  1  0  -0.089414  0  3.571594  0  0  0.000344  0  3.780246  0  0  -0.014946  0  3.805747  0  -1.252462  0  -0.216803  0.010538  0  3.762826  0
N  N112  1  0.69317053  0.53039141  0.40783019  1  0  -0.085099  0  3.593265  0  0  0.005617  0  3.801438  0  0  -0.008607  0  3.826693  0  -1.271301  0  -0.221866  0.015364  0  3.783749  0
N  N113  1  0.49833793  0.82071603  0.19342640  1  0  -0.084993  0  3.55391  0  0  0.005017  0  3.762503  0  0  -0.010328  0  3.787825  0  -1.254302  0  -0.212237  0.015265  0  3.745042  0
O  O114  1  0.08220111  0.62335421  0.06888938  1  0  -0.648243  0  2.028978  0  0  -0.572938  0  2.295337  0  0  -0.600447  0  2.279724  0  -1.171169  0  -0.341186  -0.553439  0  2.305121  0
O  O115  1  0.33555697  0.49287357  0.11498256  1  0  -0.619183  0  1.938847  0  0  -0.567427  0  2.165624  0  0  -0.591119  0  2.15596  0  -1.190687  0  -0.316983  -0.550816  0  2.171646  0
O  O116  1  0.40412372  0.20065806  0.20962005  1  0  -0.631827  0  1.885404  0  0  -0.589438  0  2.112206  0  0  -0.613659  0  2.101492  0  -1.189486  0  -0.336229  -0.571762  0  2.119004  0
O  O117  1  0.32450220  0.36222850  0.27757895  1  0  -0.646592  0  1.991824  0  0  -0.585267  0  2.222924  0  0  -0.613148  0  2.211559  0  -1.188701  0  -0.326655  -0.56531  0  2.230354  0
O  O118  1  0.02474619  0.18578826  0.30526974  1  0  -0.305195  0  2.368716  0  0  -0.232578  0  2.594928  0  0  -0.252393  0  2.600391  0  -1.096698  0  -0.150629  -0.218442  0  2.590917  0
O  O119  1  0.97392234  0.07960378  0.54031098  1  0  -0.619873  0  1.910296  0  0  -0.574119  0  2.132914  0  0  -0.596508  0  2.123171  0  -1.189217  0  -0.32669  -0.558433  0  2.138977  0
O  O120  1  0.74383895  0.10533141  0.63471813  1  0  -0.630677  0  2.009534  0  0  -0.553245  0  2.269616  0  0  -0.581188  0  2.254904  0  -1.162497  0  -0.335302  -0.533814  0  2.279034  0
O  O121  1  0.01112960  0.63142552  0.24793633  1  0  -0.562298  0  1.967061  0  0  -0.523559  0  2.193156  0  0  -0.544869  0  2.188946  0  -1.157764  0  -0.296994  -0.50847  0  2.195742  0
O  O122  1  0.22029624  0.57303929  0.32753399  1  0  -0.59545  0  2.054879  0  0  -0.548023  0  2.276094  0  0  -0.569852  0  2.257812  0  -1.193567  0  -0.357292  -0.532064  0  2.288126  0
O  O123  1  0.80598406  0.78474765  0.71478817  1  0  -0.627632  0  1.847991  0  0  -0.588061  0  2.061891  0  0  -0.611899  0  2.052901  0  -1.170598  0  -0.347716  -0.57096  0  2.067336  0
O  O124  1  0.69700811  0.93935423  0.78867827  1  0  -0.646091  0  1.974841  0  0  -0.591328  0  2.207862  0  0  -0.618042  0  2.195286  0  -1.188927  0  -0.332644  -0.572333  0  2.215944  0
O  O125  1  0.10916051  0.75733226  0.82250548  1  0  -0.29146  0  2.346827  0  0  -0.221836  0  2.574056  0  0  -0.241238  0  2.578774  0  -1.099446  0  -0.146606  -0.20821  0  2.570464  0
O  O126  1  0.57624341  0.17618780  0.79481103  1  0  -0.575749  0  2.129691  0  0  -0.519098  0  2.353506  0  0  -0.542664  0  2.336557  0  -1.197922  0  -0.330371  -0.502656  0  2.364843  0
O  O127  1  0.41847580  0.14533206  0.90760854  1  0  -0.59426  0  1.930236  0  0  -0.5552  0  2.152789  0  0  -0.574631  0  2.142163  0  -1.184522  0  -0.317419  -0.541796  0  2.159864  0
