# generated using pymatgen
data_KPH24C12(OF)6
_symmetry_space_group_name_H-M   'P 1'
_cell_length_a   7.72283045
_cell_length_b   10.76237740
_cell_length_c   11.35924470
_cell_angle_alpha   90.00001635
_cell_angle_beta   89.99990043
_cell_angle_gamma   90.00012202
_symmetry_Int_Tables_number   1
_chemical_formula_structural   KPH24C12(OF)6
_chemical_formula_sum   'K2 P2 H48 C24 O12 F12'
_cell_volume   944.13516361
_cell_formula_units_Z   2
loop_
 _symmetry_equiv_pos_site_id
 _symmetry_equiv_pos_as_xyz
  1  'x, y, z'
loop_
 _atom_site_type_symbol
 _atom_site_label
 _atom_site_symmetry_multiplicity
 _atom_site_fract_x
 _atom_site_fract_y
 _atom_site_fract_z
 _atom_site_occupancy
 _atom_site_hle17_bader_spin_density
 _atom_site_hle17_ddec_charge
 _atom_site_hle17_ddec_spin_density
 _atom_site_hle17_ddec_sum_bond_order
 _atom_site_hle17_magmom
 _atom_site_hse06_10hf_bader_spin_density
 _atom_site_hse06_10hf_ddec_charge
 _atom_site_hse06_10hf_ddec_spin_density
 _atom_site_hse06_10hf_ddec_sum_bond_order
 _atom_site_hse06_10hf_magmom
 _atom_site_hse06_bader_spin_density
 _atom_site_hse06_ddec_charge
 _atom_site_hse06_ddec_spin_density
 _atom_site_hse06_ddec_sum_bond_order
 _atom_site_hse06_magmom
 _atom_site_pbe_bader_spin_density
 _atom_site_pbe_cm5_charge
 _atom_site_pbe_ddec_charge
 _atom_site_pbe_ddec_spin_density
 _atom_site_pbe_ddec_sum_bond_order
 _atom_site_pbe_magmom
K  K0  1  0.50000887  0.50000053  0.19739846  1  0  0.911325  0  0.480031  0  0  0.834445  0  0.674532  0  0  0.853019  0  0.649658  0  0  0.819529  0.820743  0  0.692279  0
K  K1  1  0.00000040  0.00000011  0.69740640  1  0  0.911311  0  0.480052  0  0  0.834456  0  0.674498  0  0  0.85304  0  0.64962  0  0  0.819507  0.820744  0  0.692241  0
P  P2  1  0.00000048  0.50000108  0.19958904  1  0  1.854268  0  4.478756  0  0  1.645276  0  5.063937  0  0  1.705501  0  4.98978  0  0  0.372763  1.6031  0  5.115885  0
P  P3  1  0.49999861  0.99999980  0.69958949  1  0  1.854253  0  4.478752  0  0  1.645248  0  5.06395  0  0  1.705476  0  4.989791  0  0  0.372756  1.603081  0  5.115887  0
H  H4  1  0.47048535  0.38976749  0.59473298  1  0  0.050638  0  0.928325  0  0  0.066098  0  0.992451  0  0  0.066562  0  0.991545  0  0  0.097501  0.065586  0  0.993296  0
H  H5  1  0.02951499  0.88976906  0.09473263  1  0  0.050718  0  0.928312  0  0  0.066152  0  0.992447  0  0  0.066605  0  0.991553  0  0  0.097509  0.065638  0  0.99329  0
H  H6  1  0.97048490  0.11023105  0.09473285  1  0  0.050658  0  0.928291  0  0  0.066104  0  0.992443  0  0  0.066554  0  0.991552  0  0  0.097495  0.065588  0  0.993294  0
H  H7  1  0.52951455  0.61023091  0.59473297  1  0  0.050665  0  0.928293  0  0  0.066111  0  0.992443  0  0  0.066559  0  0.991553  0  0  0.097495  0.065595  0  0.99329  0
H  H8  1  0.30829504  0.46319537  0.50552469  1  0  0.049616  0  0.943422  0  0  0.062501  0  1.01398  0  0  0.063486  0  1.012433  0  0  0.097811  0.061621  0  1.015305  0
H  H9  1  0.19170574  0.96319625  0.00552591  1  0  0.049643  0  0.943419  0  0  0.062525  0  1.01397  0  0  0.063508  0  1.012426  0  0  0.097805  0.061642  0  1.015296  0
H  H10  1  0.80829437  0.03680476  0.00552630  1  0  0.049616  0  0.9434  0  0  0.062513  0  1.01396  0  0  0.0635  0  1.012411  0  0  0.097818  0.061631  0  1.015288  0
H  H11  1  0.69170509  0.53680393  0.50552535  1  0  0.04962  0  0.943407  0  0  0.062515  0  1.013967  0  0  0.063503  0  1.012414  0  0  0.09782  0.061634  0  1.015294  0
H  H12  1  0.25902022  0.27769727  0.39681940  1  0  0.069115  0  0.929833  0  0  0.079568  0  0.998443  0  0  0.080787  0  0.997015  0  0  0.103715  0.078588  0  0.999585  0
H  H13  1  0.24098031  0.77769838  0.89681839  1  0  0.069094  0  0.929842  0  0  0.079528  0  0.998492  0  0  0.080747  0  0.997069  0  0  0.103692  0.078547  0  0.999638  0
H  H14  1  0.75901882  0.22230197  0.89681889  1  0  0.06909  0  0.929816  0  0  0.079542  0  0.998443  0  0  0.080762  0  0.997017  0  0  0.103705  0.078561  0  0.999589  0
H  H15  1  0.74098019  0.72230293  0.39681830  1  0  0.069117  0  0.929836  0  0  0.079549  0  0.998482  0  0  0.080767  0  0.997056  0  0  0.103705  0.078568  0  0.999621  0
H  H16  1  0.41361098  0.19839986  0.48686490  1  0  0.068325  0  0.93966  0  0  0.078335  0  1.010086  0  0  0.079355  0  1.008264  0  0  0.099908  0.077475  0  1.011531  0
H  H17  1  0.08639038  0.69839888  0.98686407  1  0  0.068318  0  0.939679  0  0  0.078353  0  1.01008  0  0  0.079373  0  1.008258  0  0  0.099911  0.077492  0  1.011525  0
H  H18  1  0.91360982  0.30160057  0.98686441  1  0  0.068309  0  0.939684  0  0  0.078338  0  1.010088  0  0  0.079359  0  1.008266  0  0  0.099908  0.077474  0  1.011539  0
H  H19  1  0.58638920  0.80160129  0.48686488  1  0  0.068305  0  0.939674  0  0  0.078334  0  1.010075  0  0  0.079354  0  1.008252  0  0  0.099904  0.07747  0  1.011522  0
H  H20  1  0.59859775  0.16700729  0.30372937  1  0  0.043436  0  0.933406  0  0  0.056355  0  1.004973  0  0  0.056848  0  1.004101  0  0  0.099328  0.055881  0  1.00572  0
H  H21  1  0.90140263  0.66700678  0.80372993  1  0  0.0434  0  0.933441  0  0  0.056339  0  1.005002  0  0  0.056831  0  1.004132  0  0  0.099327  0.055866  0  1.005742  0
H  H22  1  0.09859674  0.33299261  0.80372948  1  0  0.043422  0  0.933412  0  0  0.056355  0  1.00498  0  0  0.056845  0  1.004112  0  0  0.099328  0.055873  0  1.005731  0
H  H23  1  0.40140160  0.83299196  0.30372958  1  0  0.043433  0  0.933403  0  0  0.056353  0  1.004977  0  0  0.056847  0  1.0041  0  0  0.099319  0.055875  0  1.005725  0
H  H24  1  0.39403403  0.08879300  0.30303577  1  0  0.040171  0  0.938043  0  0  0.056381  0  1.004733  0  0  0.056218  0  1.004637  0  0  0.096838  0.056354  0  1.004962  0
H  H25  1  0.10596747  0.58879390  0.80303492  1  0  0.040165  0  0.938061  0  0  0.05639  0  1.004747  0  0  0.056229  0  1.004651  0  0  0.096841  0.056357  0  1.004986  0
H  H26  1  0.89403319  0.41120642  0.80303531  1  0  0.040158  0  0.938066  0  0  0.056381  0  1.004755  0  0  0.056218  0  1.004658  0  0  0.096837  0.056347  0  1.00499  0
H  H27  1  0.60596532  0.91120624  0.30303488  1  0  0.040172  0  0.938085  0  0  0.056401  0  1.004753  0  0  0.056236  0  1.004658  0  0  0.09685  0.05637  0  1.004984  0
H  H28  1  0.38833303  0.08907728  0.09074877  1  0  0.040421  0  0.937187  0  0  0.056554  0  1.004198  0  0  0.056346  0  1.004231  0  0  0.09672  0.056552  0  1.004326  0
H  H29  1  0.11166772  0.58907634  0.59074968  1  0  0.040419  0  0.937192  0  0  0.05654  0  1.004199  0  0  0.056333  0  1.004232  0  0  0.096714  0.056541  0  1.00433  0
H  H30  1  0.88833348  0.41092392  0.59074919  1  0  0.040401  0  0.937176  0  0  0.056538  0  1.004201  0  0  0.056331  0  1.004235  0  0  0.09671  0.056536  0  1.004335  0
H  H31  1  0.61166557  0.91092282  0.09074875  1  0  0.040428  0  0.937184  0  0  0.056561  0  1.004194  0  0  0.056354  0  1.004227  0  0  0.096725  0.056564  0  1.004321  0
H  H32  1  0.59472509  0.16468713  0.08835326  1  0  0.042602  0  0.934758  0  0  0.056319  0  1.005253  0  0  0.056947  0  1.004207  0  0  0.099083  0.055717  0  1.006144  0
H  H33  1  0.90527584  0.66468664  0.58835293  1  0  0.042615  0  0.934777  0  0  0.056325  0  1.005257  0  0  0.056953  0  1.00421  0  0  0.099083  0.055722  0  1.006154  0
H  H34  1  0.09472408  0.33531362  0.58835337  1  0  0.042595  0  0.934778  0  0  0.056324  0  1.005267  0  0  0.056952  0  1.004222  0  0  0.099071  0.055723  0  1.006158  0
H  H35  1  0.40527481  0.83531298  0.08835346  1  0  0.042609  0  0.934781  0  0  0.056315  0  1.005284  0  0  0.056943  0  1.004238  0  0  0.09908  0.055715  0  1.006173  0
H  H36  1  0.40865242  0.19905405  0.90671588  1  0  0.068725  0  0.940959  0  0  0.0784  0  1.01185  0  0  0.079525  0  1.009952  0  0  0.099414  0.077457  0  1.013389  0
H  H37  1  0.09134915  0.69905386  0.40671634  1  0  0.068701  0  0.940985  0  0  0.078375  0  1.011881  0  0  0.0795  0  1.009983  0  0  0.099408  0.077436  0  1.013418  0
H  H38  1  0.90865382  0.30094449  0.40671581  1  0  0.068681  0  0.940965  0  0  0.078349  0  1.011876  0  0  0.079475  0  1.009977  0  0  0.099392  0.077405  0  1.013417  0
H  H39  1  0.59134798  0.80094537  0.90671585  1  0  0.068724  0  0.940962  0  0  0.0784  0  1.011853  0  0  0.079526  0  1.009954  0  0  0.099416  0.077458  0  1.013393  0
H  H40  1  0.25623421  0.27927321  0.99774404  1  0  0.067118  0  0.93113  0  0  0.078648  0  0.998816  0  0  0.079726  0  0.997589  0  0  0.103316  0.077777  0  0.9998  0
H  H41  1  0.24376607  0.77927511  0.49774344  1  0  0.067104  0  0.931143  0  0  0.078629  0  0.998843  0  0  0.079707  0  0.997616  0  0  0.103314  0.077758  0  0.999829  0
H  H42  1  0.75623408  0.22072605  0.49774394  1  0  0.067109  0  0.931173  0  0  0.078638  0  0.998857  0  0  0.079715  0  0.997631  0  0  0.10332  0.077764  0  0.999847  0
H  H43  1  0.74376466  0.72072624  0.99774381  1  0  0.067116  0  0.93114  0  0  0.078646  0  0.99883  0  0  0.079724  0  0.997602  0  0  0.103316  0.077775  0  0.999812  0
H  H44  1  0.30748785  0.46622635  0.89125984  1  0  0.050011  0  0.941204  0  0  0.064046  0  1.010342  0  0  0.064917  0  1.00894  0  0  0.098589  0.063246  0  1.011565  0
H  H45  1  0.19251195  0.96622724  0.39126283  1  0  0.050003  0  0.941216  0  0  0.064031  0  1.010349  0  0  0.064901  0  1.008949  0  0  0.098587  0.063228  0  1.011575  0
H  H46  1  0.80748717  0.03377203  0.39126322  1  0  0.05004  0  0.941241  0  0  0.064054  0  1.01036  0  0  0.064926  0  1.008957  0  0  0.098586  0.063242  0  1.011596  0
H  H47  1  0.69251259  0.53377399  0.89125962  1  0  0.050009  0  0.941199  0  0  0.064041  0  1.010341  0  0  0.064912  0  1.008939  0  0  0.09859  0.063242  0  1.011566  0
H  H48  1  0.46516062  0.39092897  0.79963921  1  0  0.049862  0  0.928901  0  0  0.065239  0  0.993391  0  0  0.065722  0  0.992418  0  0  0.096842  0.064751  0  0.994222  0
H  H49  1  0.03483920  0.89092962  0.29963974  1  0  0.049877  0  0.928929  0  0  0.065236  0  0.993423  0  0  0.065718  0  0.992449  0  0  0.096825  0.064747  0  0.994246  0
H  H50  1  0.96516146  0.10906962  0.29963996  1  0  0.049852  0  0.928943  0  0  0.065215  0  0.993419  0  0  0.065698  0  0.992444  0  0  0.096805  0.064723  0  0.994246  0
H  H51  1  0.53483876  0.60906949  0.79963920  1  0  0.049846  0  0.928935  0  0  0.065219  0  0.993422  0  0  0.065702  0  0.992446  0  0  0.09683  0.064733  0  0.994252  0
C  C52  1  0.44771668  0.44079522  0.51156550  1  0  0.057389  0  3.684596  0  0  -0.003256  0  3.960152  0  0  0.002685  0  3.96694  0  0  -0.074617  -0.007148  0  3.95537  0
C  C53  1  0.05228143  0.94079403  0.01156777  1  0  0.057261  0  3.684725  0  0  -0.003332  0  3.960248  0  0  0.002612  0  3.967049  0  0  -0.074614  -0.007223  0  3.955462  0
C  C54  1  0.94771737  0.05920605  0.01156712  1  0  0.057456  0  3.684568  0  0  -0.003213  0  3.960148  0  0  0.002733  0  3.966944  0  0  -0.074601  -0.007109  0  3.95537  0
C  C55  1  0.55228214  0.55920501  0.51156721  1  0  0.057429  0  3.684555  0  0  -0.003245  0  3.960147  0  0  0.002705  0  3.966936  0  0  -0.0746  -0.007136  0  3.955363  0
C  C56  1  0.39744870  0.25462998  0.40648193  1  0  0.0412  0  3.662377  0  0  -0.017796  0  3.939033  0  0  -0.011569  0  3.944002  0  0  -0.078187  -0.021946  0  3.935601  0
C  C57  1  0.10255303  0.75463088  0.90648109  1  0  0.041286  0  3.662337  0  0  -0.017724  0  3.939057  0  0  -0.0115  0  3.944033  0  0  -0.078163  -0.021868  0  3.935623  0
C  C58  1  0.89744737  0.24536947  0.90648143  1  0  0.041274  0  3.662282  0  0  -0.017726  0  3.938976  0  0  -0.011506  0  3.943949  0  0  -0.078154  -0.021875  0  3.935549  0
C  C59  1  0.60255169  0.74537022  0.40648188  1  0  0.04128  0  3.662345  0  0  -0.017717  0  3.939027  0  0  -0.011493  0  3.943996  0  0  -0.078151  -0.021859  0  3.935589  0
C  C60  1  0.45671974  0.18119456  0.30109900  1  0  0.071782  0  3.686044  0  0  0.010307  0  3.960326  0  0  0.016831  0  3.966703  0  0  -0.071937  0.005957  0  3.955892  0
C  C61  1  0.04328204  0.68119444  0.80109910  1  0  0.071807  0  3.686078  0  0  0.010292  0  3.960437  0  0  0.016812  0  3.966819  0  0  -0.071947  0.005943  0  3.956005  0
C  C62  1  0.95671863  0.31880588  0.80109851  1  0  0.071836  0  3.686025  0  0  0.010318  0  3.960364  0  0  0.016846  0  3.966737  0  0  -0.07193  0.005978  0  3.955918  0
C  C63  1  0.54327962  0.81880561  0.30109903  1  0  0.071764  0  3.686092  0  0  0.010276  0  3.960396  0  0  0.016804  0  3.966767  0  0  -0.071945  0.00593  0  3.955957  0
C  C64  1  0.45327956  0.18065933  0.09221627  1  0  0.073214  0  3.685207  0  0  0.010997  0  3.959894  0  0  0.017472  0  3.966357  0  0  -0.07193  0.006724  0  3.955376  0
C  C65  1  0.04672017  0.68065829  0.59221550  1  0  0.073157  0  3.68529  0  0  0.010995  0  3.959911  0  0  0.017469  0  3.966374  0  0  -0.071942  0.006712  0  3.955404  0
C  C66  1  0.95327974  0.31934197  0.59221579  1  0  0.073236  0  3.685178  0  0  0.010976  0  3.959905  0  0  0.017448  0  3.966372  0  0  -0.071927  0.006694  0  3.955394  0
C  C67  1  0.54671904  0.81934078  0.09221631  1  0  0.073173  0  3.685268  0  0  0.010964  0  3.959959  0  0  0.017439  0  3.96642  0  0  -0.071966  0.006681  0  3.95545  0
C  C68  1  0.39414347  0.25498686  0.98739027  1  0  0.042725  0  3.661809  0  0  -0.016552  0  3.937881  0  0  -0.010344  0  3.942937  0  0  -0.077967  -0.020678  0  3.934388  0
C  C69  1  0.10585676  0.75498576  0.48738984  1  0  0.042828  0  3.661669  0  0  -0.016461  0  3.937732  0  0  -0.010258  0  3.942787  0  0  -0.077916  -0.020586  0  3.934237  0
C  C70  1  0.89414212  0.24501354  0.48739018  1  0  0.042851  0  3.661613  0  0  -0.016404  0  3.937699  0  0  -0.010202  0  3.942753  0  0  -0.077922  -0.020525  0  3.934201  0
C  C71  1  0.60585673  0.74501351  0.98739022  1  0  0.042773  0  3.661693  0  0  -0.016507  0  3.937774  0  0  -0.010301  0  3.942828  0  0  -0.077928  -0.020633  0  3.934282  0
C  C72  1  0.44602770  0.44162781  0.88340712  1  0  0.058652  0  3.68692  0  0  -0.0028  0  3.962316  0  0  0.003231  0  3.969126  0  0  -0.074074  -0.006756  0  3.957545  0
C  C73  1  0.05397205  0.94162941  0.38341027  1  0  0.058661  0  3.687037  0  0  -0.002757  0  3.96236  0  0  0.003267  0  3.969175  0  0  -0.074045  -0.006704  0  3.957568  0
C  C74  1  0.94602580  0.05836986  0.38341050  1  0  0.058543  0  3.687161  0  0  -0.002816  0  3.96242  0  0  0.003208  0  3.969233  0  0  -0.074051  -0.006759  0  3.957638  0
C  C75  1  0.55397276  0.55837161  0.88340796  1  0  0.058733  0  3.686948  0  0  -0.002699  0  3.962313  0  0  0.003331  0  3.969124  0  0  -0.074019  -0.006662  0  3.957546  0
O  O76  1  0.49796511  0.36630706  0.41367339  1  0  -0.327576  0  2.269703  0  0  -0.256699  0  2.521911  0  0  -0.272821  0  2.524347  0  0  -0.27588  -0.245247  0  2.519742  0
O  O77  1  0.00203564  0.86630780  0.91367442  1  0  -0.327574  0  2.269709  0  0  -0.256713  0  2.521925  0  0  -0.27283  0  2.524359  0  0  -0.275879  -0.245257  0  2.519744  0
O  O78  1  0.99796474  0.13369255  0.91367461  1  0  -0.327592  0  2.269688  0  0  -0.256731  0  2.52194  0  0  -0.272848  0  2.524371  0  0  -0.275903  -0.245274  0  2.519762  0
O  O79  1  0.50203396  0.63369222  0.41367430  1  0  -0.327599  0  2.269663  0  0  -0.256713  0  2.521879  0  0  -0.272834  0  2.524309  0  0  -0.275874  -0.245261  0  2.519703  0
O  O80  1  0.40944326  0.24645890  0.19686147  1  0  -0.327316  0  2.284524  0  0  -0.255876  0  2.53646  0  0  -0.271162  0  2.537096  0  0  -0.279004  -0.245012  0  2.535522  0
O  O81  1  0.09055639  0.74645792  0.69686064  1  0  -0.327299  0  2.284573  0  0  -0.255867  0  2.536511  0  0  -0.271152  0  2.537147  0  0  -0.278983  -0.245  0  2.535573  0
O  O82  1  0.90944195  0.25354144  0.69686009  1  0  -0.327376  0  2.284555  0  0  -0.25589  0  2.536495  0  0  -0.271179  0  2.537131  0  0  -0.279002  -0.245023  0  2.535551  0
O  O83  1  0.59055507  0.75354124  0.19686055  1  0  -0.327307  0  2.284543  0  0  -0.255864  0  2.536477  0  0  -0.27115  0  2.53711  0  0  -0.27899  -0.244996  0  2.535531  0
O  O84  1  0.49653486  0.36575336  0.98026211  1  0  -0.329369  0  2.271785  0  0  -0.258521  0  2.524393  0  0  -0.274635  0  2.526712  0  0  -0.27547  -0.247105  0  2.522324  0
O  O85  1  0.00346572  0.86575303  0.48026356  1  0  -0.329365  0  2.271709  0  0  -0.258533  0  2.524322  0  0  -0.274635  0  2.526636  0  0  -0.275491  -0.247117  0  2.522247  0
O  O86  1  0.99653318  0.13424627  0.48026375  1  0  -0.329338  0  2.271725  0  0  -0.258543  0  2.524326  0  0  -0.274644  0  2.526638  0  0  -0.275454  -0.247124  0  2.522245  0
O  O87  1  0.50346536  0.63424609  0.98026215  1  0  -0.329405  0  2.271691  0  0  -0.258559  0  2.524294  0  0  -0.274671  0  2.526612  0  0  -0.275508  -0.247139  0  2.522226  0
F  F88  1  0.14989124  0.49092976  0.09731191  1  0  -0.465186  0  1.069408  0  0  -0.418699  0  1.254845  0  0  -0.431696  0  1.233595  0  0  -0.175633  -0.409619  0  1.269724  0
F  F89  1  0.35010809  0.99092733  0.59731165  1  0  -0.465185  0  1.069408  0  0  -0.418704  0  1.254849  0  0  -0.431705  0  1.2336  0  0  -0.175644  -0.409636  0  1.269724  0
F  F90  1  0.64989180  0.00907015  0.59731222  1  0  -0.46516  0  1.069411  0  0  -0.41867  0  1.254844  0  0  -0.431665  0  1.233587  0  0  -0.175625  -0.409605  0  1.26972  0
F  F91  1  0.85010734  0.50907313  0.09731237  1  0  -0.465182  0  1.069414  0  0  -0.418707  0  1.254858  0  0  -0.431702  0  1.233607  0  0  -0.175652  -0.409625  0  1.269735  0
F  F92  1  0.14977833  0.49086289  0.30188889  1  0  -0.463713  0  1.070575  0  0  -0.417017  0  1.255707  0  0  -0.429934  0  1.234547  0  0  -0.173166  -0.407896  0  1.270448  0
F  F93  1  0.35022178  0.99086139  0.80188951  1  0  -0.463731  0  1.070595  0  0  -0.417016  0  1.255707  0  0  -0.429929  0  1.234542  0  0  -0.173162  -0.407907  0  1.270445  0
F  F94  1  0.64977759  0.00913801  0.80189008  1  0  -0.463733  0  1.070569  0  0  -0.417027  0  1.25569  0  0  -0.429952  0  1.234535  0  0  -0.173179  -0.407917  0  1.270429  0
F  F95  1  0.85022103  0.50914006  0.30188936  1  0  -0.463723  0  1.070564  0  0  -0.417011  0  1.255679  0  0  -0.429934  0  1.234523  0  0  -0.173169  -0.407889  0  1.270416  0
F  F96  1  0.01849781  0.65167390  0.19952127  1  0  -0.454723  0  1.050613  0  0  -0.412481  0  1.232981  0  0  -0.423841  0  1.21039  0  0  -0.157378  -0.404323  0  1.248665  0
F  F97  1  0.48150285  0.15167328  0.69952072  1  0  -0.454697  0  1.050617  0  0  -0.41246  0  1.232997  0  0  -0.423816  0  1.2104  0  0  -0.157366  -0.40424  0  1.248589  0
F  F98  1  0.51849549  0.84832608  0.69952255  1  0  -0.454702  0  1.050584  0  0  -0.412461  0  1.232954  0  0  -0.423823  0  1.210362  0  0  -0.15737  -0.404242  0  1.248553  0
F  F99  1  0.98150180  0.34832810  0.19952154  1  0  -0.454688  0  1.050633  0  0  -0.412443  0  1.233006  0  0  -0.423802  0  1.210412  0  0  -0.157347  -0.404215  0  1.248599  0
