# generated using pymatgen
data_SnH17C11NO4
_symmetry_space_group_name_H-M   'P 1'
_cell_length_a   9.44168239
_cell_length_b   9.85373889
_cell_length_c   15.12184684
_cell_angle_alpha   90.00011164
_cell_angle_beta   102.14816997
_cell_angle_gamma   89.99996661
_symmetry_Int_Tables_number   1
_chemical_formula_structural   SnH17C11NO4
_chemical_formula_sum   'Sn4 H68 C44 N4 O16'
_cell_volume   1375.36960876
_cell_formula_units_Z   4
loop_
 _symmetry_equiv_pos_site_id
 _symmetry_equiv_pos_as_xyz
  1  'x, y, z'
loop_
 _atom_site_type_symbol
 _atom_site_label
 _atom_site_symmetry_multiplicity
 _atom_site_fract_x
 _atom_site_fract_y
 _atom_site_fract_z
 _atom_site_occupancy
 _atom_site_hle17_bader_spin_density
 _atom_site_hle17_ddec_charge
 _atom_site_hle17_ddec_spin_density
 _atom_site_hle17_ddec_sum_bond_order
 _atom_site_hle17_magmom
 _atom_site_hse06_10hf_bader_spin_density
 _atom_site_hse06_10hf_ddec_charge
 _atom_site_hse06_10hf_ddec_spin_density
 _atom_site_hse06_10hf_ddec_sum_bond_order
 _atom_site_hse06_10hf_magmom
 _atom_site_hse06_bader_spin_density
 _atom_site_hse06_ddec_charge
 _atom_site_hse06_ddec_spin_density
 _atom_site_hse06_ddec_sum_bond_order
 _atom_site_hse06_magmom
 _atom_site_pbe_bader_spin_density
 _atom_site_pbe_cm5_charge
 _atom_site_pbe_ddec_charge
 _atom_site_pbe_ddec_spin_density
 _atom_site_pbe_ddec_sum_bond_order
 _atom_site_pbe_magmom
Sn  Sn0  1  0.08366229  0.10853860  0.76703063  1  0  1.360489  0  2.88218  0  0  1.229549  0  3.370999  0  0  1.267966  0  3.356874  0  0  0.514745  1.203642  0  3.379862  0
Sn  Sn1  1  0.91633649  0.60853939  0.73296822  1  0  1.360469  0  2.88221  0  0  1.229576  0  3.370992  0  0  1.268  0  3.356866  0  0  0.514748  1.203662  0  3.379861  0
Sn  Sn2  1  0.91633673  0.89146171  0.23296914  1  0  1.360527  0  2.882097  0  0  1.229592  0  3.370911  0  0  1.268023  0  3.356789  0  0  0.514754  1.203692  0  3.379763  0
Sn  Sn3  1  0.08366253  0.39146092  0.26703089  1  0  1.360509  0  2.882133  0  0  1.229594  0  3.37092  0  0  1.268017  0  3.356797  0  0  0.514748  1.203687  0  3.379782  0
H  H4  1  0.35722514  0.00553507  0.81989826  1  0  0.153671  0  0.999748  0  0  0.173496  0  1.055021  0  0  0.175534  0  1.056655  0  0  0.08418  0.172164  0  1.053534  0
H  H5  1  0.64277474  0.50553483  0.68010193  1  0  0.153657  0  0.999751  0  0  0.173487  0  1.055017  0  0  0.175527  0  1.056651  0  0  0.084176  0.172156  0  1.053531  0
H  H6  1  0.64277496  0.99446728  0.18010232  1  0  0.153672  0  0.999781  0  0  0.173498  0  1.055049  0  0  0.175538  0  1.056679  0  0  0.084179  0.172167  0  1.053562  0
H  H7  1  0.35722428  0.49446650  0.31989850  1  0  0.153694  0  0.999758  0  0  0.173519  0  1.055034  0  0  0.17556  0  1.056658  0  0  0.084186  0.172188  0  1.053548  0
H  H8  1  0.24389985  0.88358647  0.75196896  1  0  0.147793  0  1.006382  0  0  0.168315  0  1.062917  0  0  0.170162  0  1.065183  0  0  0.083285  0.166857  0  1.06147  0
H  H9  1  0.75610103  0.38358627  0.74803184  1  0  0.147795  0  1.006388  0  0  0.168319  0  1.062919  0  0  0.170166  0  1.065185  0  0  0.083298  0.166861  0  1.061473  0
H  H10  1  0.75610133  0.11641486  0.24803176  1  0  0.147813  0  1.006437  0  0  0.168336  0  1.062958  0  0  0.170184  0  1.065225  0  0  0.083298  0.166877  0  1.061511  0
H  H11  1  0.24389690  0.61641404  0.25196911  1  0  0.14784  0  1.00642  0  0  0.168357  0  1.062943  0  0  0.170204  0  1.06521  0  0  0.083308  0.1669  0  1.061496  0
H  H12  1  0.23340805  0.90546362  0.86692201  1  0  0.145156  0  0.998338  0  0  0.162847  0  1.057697  0  0  0.165278  0  1.0587  0  0  0.081217  0.161006  0  1.05705  0
H  H13  1  0.76659284  0.40546307  0.63307882  1  0  0.145154  0  0.998311  0  0  0.162852  0  1.057668  0  0  0.165285  0  1.058667  0  0  0.081211  0.161012  0  1.057019  0
H  H14  1  0.76659097  0.09453872  0.13307842  1  0  0.145149  0  0.998355  0  0  0.16284  0  1.057715  0  0  0.16527  0  1.058719  0  0  0.081199  0.160998  0  1.057069  0
H  H15  1  0.23340835  0.59453826  0.36692256  1  0  0.145165  0  0.99838  0  0  0.162858  0  1.057726  0  0  0.165287  0  1.05873  0  0  0.081226  0.161017  0  1.05708  0
H  H16  1  0.94720630  0.25103228  0.62040215  1  0  0.152208  0  0.999643  0  0  0.170244  0  1.057627  0  0  0.172653  0  1.058757  0  0  0.083818  0.16848  0  1.057077  0
H  H17  1  0.05279354  0.75103196  0.87959768  1  0  0.152201  0  0.99965  0  0  0.170236  0  1.057633  0  0  0.172645  0  1.058764  0  0  0.083814  0.168472  0  1.057082  0
H  H18  1  0.05279381  0.74896905  0.37959710  1  0  0.152234  0  0.999658  0  0  0.170269  0  1.057638  0  0  0.172678  0  1.058769  0  0  0.083812  0.168505  0  1.05709  0
H  H19  1  0.94720657  0.24896937  0.12040223  1  0  0.15222  0  0.99965  0  0  0.170252  0  1.057636  0  0  0.172662  0  1.058766  0  0  0.08382  0.168488  0  1.057086  0
H  H20  1  0.00752063  0.09269563  0.58364801  1  0  0.159272  0  0.991921  0  0  0.174702  0  1.050712  0  0  0.178219  0  1.05006  0  0  0.085229  0.17203  0  1.05153  0
H  H21  1  0.99247923  0.59269693  0.91635097  1  0  0.159258  0  0.991935  0  0  0.17469  0  1.050726  0  0  0.178208  0  1.050074  0  0  0.085233  0.17202  0  1.051544  0
H  H22  1  0.99247947  0.90730367  0.41635124  1  0  0.159324  0  0.991892  0  0  0.174759  0  1.050674  0  0  0.178277  0  1.050021  0  0  0.085245  0.172089  0  1.051492  0
H  H23  1  0.00752087  0.40730339  0.08364895  1  0  0.159277  0  0.991927  0  0  0.174707  0  1.050722  0  0  0.178224  0  1.050071  0  0  0.085233  0.172036  0  1.051542  0
H  H24  1  0.13431126  0.22954218  0.61674951  1  0  0.159931  0  0.99541  0  0  0.175667  0  1.054437  0  0  0.178849  0  1.054575  0  0  0.085127  0.173132  0  1.054722  0
H  H25  1  0.86568966  0.72954345  0.88325044  1  0  0.159927  0  0.995407  0  0  0.175664  0  1.054431  0  0  0.178845  0  1.054572  0  0  0.085129  0.17313  0  1.054716  0
H  H26  1  0.86568884  0.77045712  0.38324974  1  0  0.16002  0  0.995335  0  0  0.175765  0  1.054331  0  0  0.178944  0  1.054472  0  0  0.085176  0.173231  0  1.054616  0
H  H27  1  0.13431153  0.27045788  0.11674962  1  0  0.159944  0  0.995393  0  0  0.175694  0  1.054394  0  0  0.178874  0  1.054535  0  0  0.085144  0.173158  0  1.054681  0
H  H28  1  0.02380296  0.22718416  0.91716495  1  0  0.159911  0  0.985309  0  0  0.178468  0  1.039916  0  0  0.181382  0  1.040481  0  0  0.08653  0.176345  0  1.03971  0
H  H29  1  0.97619796  0.72718447  0.58283499  1  0  0.1599  0  0.985286  0  0  0.178456  0  1.039904  0  0  0.18137  0  1.040469  0  0  0.086514  0.176332  0  1.039696  0
H  H30  1  0.97619822  0.77281412  0.08283577  1  0  0.15996  0  0.985278  0  0  0.178516  0  1.039884  0  0  0.181431  0  1.040447  0  0  0.086545  0.176392  0  1.039678  0
H  H31  1  0.02380106  0.27281178  0.41716411  1  0  0.159965  0  0.985265  0  0  0.178524  0  1.039865  0  0  0.181439  0  1.040428  0  0  0.086543  0.176399  0  1.039659  0
H  H32  1  0.94480854  0.06034975  0.90329001  1  0  0.147801  0  0.987757  0  0  0.166825  0  1.043001  0  0  0.169315  0  1.043715  0  0  0.081644  0.164804  0  1.043059  0
H  H33  1  0.05519133  0.56034960  0.59670959  1  0  0.147784  0  0.987767  0  0  0.166808  0  1.043015  0  0  0.169298  0  1.043727  0  0  0.081639  0.164788  0  1.043071  0
H  H34  1  0.05519373  0.93964853  0.09671019  1  0  0.147793  0  0.987752  0  0  0.166814  0  1.042998  0  0  0.169305  0  1.04371  0  0  0.081636  0.164794  0  1.043056  0
H  H35  1  0.94480552  0.43964564  0.40328990  1  0  0.147825  0  0.987768  0  0  0.166842  0  1.043015  0  0  0.169332  0  1.043727  0  0  0.081648  0.164821  0  1.043074  0
H  H36  1  0.85835244  0.19909701  0.83665883  1  0  0.143816  0  1.022966  0  0  0.161208  0  1.084469  0  0  0.163088  0  1.086425  0  0  0.081144  0.159698  0  1.08348  0
H  H37  1  0.14164740  0.69909701  0.66334226  1  0  0.143791  0  1.023003  0  0  0.161195  0  1.084497  0  0  0.163074  0  1.086454  0  0  0.081137  0.159684  0  1.083507  0
H  H38  1  0.14164767  0.80090127  0.16334241  1  0  0.143799  0  1.022971  0  0  0.161169  0  1.084504  0  0  0.163048  0  1.086462  0  0  0.081119  0.159658  0  1.083516  0
H  H39  1  0.85835053  0.30089925  0.33665736  1  0  0.143797  0  1.022956  0  0  0.161181  0  1.08448  0  0  0.163059  0  1.086436  0  0  0.081116  0.15967  0  1.083489  0
H  H40  1  0.54139995  0.70701785  0.73339144  1  0  0.137383  0  0.969934  0  0  0.143719  0  1.033106  0  0  0.148786  0  1.030376  0  0  0.107639  0.140115  0  1.035077  0
H  H41  1  0.45859881  0.20701990  0.76660753  1  0  0.137347  0  0.969933  0  0  0.143704  0  1.033082  0  0  0.14877  0  1.030356  0  0  0.107643  0.140099  0  1.035056  0
H  H42  1  0.45860232  0.29297942  0.26660942  1  0  0.137382  0  0.969946  0  0  0.14372  0  1.033115  0  0  0.148783  0  1.030389  0  0  0.107642  0.140116  0  1.035085  0
H  H43  1  0.54140130  0.79298245  0.23339106  1  0  0.137366  0  0.969948  0  0  0.143699  0  1.033126  0  0  0.148767  0  1.030396  0  0  0.107625  0.140094  0  1.035098  0
H  H44  1  0.36301524  0.51389927  0.69243591  1  0  0.101023  0  0.95291  0  0  0.111931  0  1.010541  0  0  0.115247  0  1.007379  0  0  0.108032  0.1095  0  1.012823  0
H  H45  1  0.63698247  0.01390032  0.80756334  1  0  0.100946  0  0.952922  0  0  0.111871  0  1.01054  0  0  0.115186  0  1.007377  0  0  0.108015  0.109439  0  1.012825  0
H  H46  1  0.63698487  0.48609902  0.30756466  1  0  0.101033  0  0.952832  0  0  0.11194  0  1.010471  0  0  0.115254  0  1.007311  0  0  0.108028  0.109507  0  1.012755  0
H  H47  1  0.36301655  0.98610101  0.19243643  1  0  0.100959  0  0.952872  0  0  0.111864  0  1.010518  0  0  0.115177  0  1.007356  0  0  0.107989  0.109431  0  1.012801  0
H  H48  1  0.41137370  0.58637643  0.09132878  1  0  0.0883  0  0.961513  0  0  0.100108  0  1.034933  0  0  0.100032  0  1.035883  0  0  0.097455  0.099967  0  1.034535  0
H  H49  1  0.58862670  0.08637680  0.40867101  1  0  0.088291  0  0.961539  0  0  0.100095  0  1.034968  0  0  0.100017  0  1.035921  0  0  0.097452  0.099953  0  1.034567  0
H  H50  1  0.58862640  0.41362287  0.90867113  1  0  0.088303  0  0.961519  0  0  0.100111  0  1.03494  0  0  0.100034  0  1.035891  0  0  0.097455  0.09997  0  1.034544  0
H  H51  1  0.41137448  0.91362352  0.59132904  1  0  0.08829  0  0.961515  0  0  0.100098  0  1.034941  0  0  0.100022  0  1.035889  0  0  0.097452  0.099957  0  1.034541  0
H  H52  1  0.22995646  0.53867277  0.09838409  1  0  0.090344  0  0.95054  0  0  0.11214  0  1.009244  0  0  0.112026  0  1.010061  0  0  0.105433  0.112083  0  1.008767  0
H  H53  1  0.77004395  0.03867302  0.40161564  1  0  0.090328  0  0.950544  0  0  0.112123  0  1.00926  0  0  0.112008  0  1.010077  0  0  0.105424  0.112065  0  1.008782  0
H  H54  1  0.77004472  0.46132755  0.90161597  1  0  0.090346  0  0.950553  0  0  0.112145  0  1.009252  0  0  0.112031  0  1.010068  0  0  0.105441  0.11209  0  1.008773  0
H  H55  1  0.22995724  0.96132730  0.59838441  1  0  0.090325  0  0.95056  0  0  0.112122  0  1.009264  0  0  0.112006  0  1.010084  0  0  0.105424  0.112065  0  1.008786  0
H  H56  1  0.26363305  0.69869824  0.04952083  1  0  0.082853  0  0.939962  0  0  0.100646  0  1.004744  0  0  0.101355  0  1.003581  0  0  0.097365  0.100173  0  1.005389  0
H  H57  1  0.73636842  0.19869865  0.45047924  1  0  0.082866  0  0.939932  0  0  0.100664  0  1.004711  0  0  0.101373  0  1.003548  0  0  0.097366  0.100186  0  1.005362  0
H  H58  1  0.73636813  0.30130106  0.95047922  1  0  0.082863  0  0.939945  0  0  0.100655  0  1.004727  0  0  0.101365  0  1.003564  0  0  0.097364  0.100183  0  1.005375  0
H  H59  1  0.26363277  0.80130166  0.54952081  1  0  0.082867  0  0.939932  0  0  0.100658  0  1.004718  0  0  0.101369  0  1.003554  0  0  0.097377  0.100185  0  1.005365  0
H  H60  1  0.54446957  0.89330849  0.00837292  1  0  0.083565  0  0.948386  0  0  0.099765  0  1.016301  0  0  0.100512  0  1.015307  0  0  0.098506  0.099148  0  1.017026  0
H  H61  1  0.45552969  0.39330918  0.49162645  1  0  0.083619  0  0.948417  0  0  0.099825  0  1.016318  0  0  0.100565  0  1.015333  0  0  0.098548  0.099209  0  1.017044  0
H  H62  1  0.45553162  0.10669182  0.99162647  1  0  0.083566  0  0.948388  0  0  0.099781  0  1.016296  0  0  0.100519  0  1.015311  0  0  0.098524  0.099172  0  1.017015  0
H  H63  1  0.54447041  0.60669215  0.50837280  1  0  0.083593  0  0.948384  0  0  0.099796  0  1.016292  0  0  0.100542  0  1.015299  0  0  0.098516  0.09918  0  1.017018  0
H  H64  1  0.72227232  0.93418780  0.99051989  1  0  0.084155  0  0.933582  0  0  0.106487  0  0.991261  0  0  0.106793  0  0.990941  0  0  0.102879  0.106136  0  0.991663  0
H  H65  1  0.27772639  0.43418816  0.50947937  1  0  0.084153  0  0.933576  0  0  0.106484  0  0.991265  0  0  0.106789  0  0.990945  0  0  0.102864  0.106134  0  0.991666  0
H  H66  1  0.27772778  0.06581252  0.00948002  1  0  0.084159  0  0.933595  0  0  0.106486  0  0.991282  0  0  0.106792  0  0.99096  0  0  0.102867  0.106135  0  0.991684  0
H  H67  1  0.72227263  0.56581216  0.49051974  1  0  0.084169  0  0.933565  0  0  0.106504  0  0.991244  0  0  0.106809  0  0.990924  0  0  0.102878  0.106153  0  0.991646  0
H  H68  1  0.68357335  0.76819557  0.02959088  1  0  0.099305  0  0.963934  0  0  0.109077  0  1.038507  0  0  0.110866  0  1.03685  0  0  0.10074  0.107789  0  1.039633  0
H  H69  1  0.31642702  0.26819526  0.47040781  1  0  0.099391  0  0.963913  0  0  0.10916  0  1.038482  0  0  0.11095  0  1.036823  0  0  0.100776  0.107872  0  1.039605  0
H  H70  1  0.31642676  0.23180576  0.97040837  1  0  0.099414  0  0.963911  0  0  0.109185  0  1.038469  0  0  0.110975  0  1.036811  0  0  0.100782  0.107898  0  1.039596  0
H  H71  1  0.68357308  0.73180506  0.52959144  1  0  0.099368  0  0.96394  0  0  0.109141  0  1.038502  0  0  0.11093  0  1.036845  0  0  0.10076  0.107854  0  1.039627  0
C  C72  1  0.24997828  0.95843327  0.80614593  1  0  -0.712331  0  3.51615  0  0  -0.752845  0  3.743927  0  0  -0.767007  0  3.752922  0  0  -0.340771  -0.742641  0  3.736984  0
C  C73  1  0.75002152  0.45843392  0.69385350  1  0  -0.712319  0  3.516137  0  0  -0.752856  0  3.743923  0  0  -0.767022  0  3.752913  0  0  -0.340772  -0.742648  0  3.736978  0
C  C74  1  0.75002074  0.04156806  0.19385384  1  0  -0.712377  0  3.516246  0  0  -0.752889  0  3.744014  0  0  -0.767053  0  3.753011  0  0  -0.340779  -0.742687  0  3.73707  0
C  C75  1  0.24997859  0.54156842  0.30614642  1  0  -0.712432  0  3.516237  0  0  -0.752946  0  3.744001  0  0  -0.767107  0  3.752999  0  0  -0.340814  -0.742744  0  3.737059  0
C  C76  1  0.03724373  0.17883356  0.62953201  1  0  -0.712387  0  3.518999  0  0  -0.753779  0  3.751969  0  0  -0.76726  0  3.757568  0  0  -0.336024  -0.744196  0  3.748501  0
C  C77  1  0.96275612  0.67883473  0.87046773  1  0  -0.712359  0  3.518961  0  0  -0.75376  0  3.751942  0  0  -0.767244  0  3.757546  0  0  -0.336031  -0.744177  0  3.748472  0
C  C78  1  0.96275638  0.82116473  0.37046856  1  0  -0.712567  0  3.518925  0  0  -0.753973  0  3.751891  0  0  -0.767457  0  3.757497  0  0  -0.336086  -0.744396  0  3.748427  0
C  C79  1  0.03724399  0.32116558  0.12953152  1  0  -0.712416  0  3.518996  0  0  -0.753824  0  3.751966  0  0  -0.767306  0  3.757571  0  0  -0.336051  -0.744242  0  3.748502  0
C  C80  1  0.96277373  0.15474940  0.86875101  1  0  -0.717627  0  3.541802  0  0  -0.758926  0  3.773636  0  0  -0.772516  0  3.780776  0  0  -0.336723  -0.749531  0  3.769136  0
C  C81  1  0.03722613  0.65474936  0.63124870  1  0  -0.717571  0  3.541814  0  0  -0.75889  0  3.773644  0  0  -0.772481  0  3.780784  0  0  -0.336704  -0.749491  0  3.769137  0
C  C82  1  0.03722746  0.84524889  0.13124904  1  0  -0.717646  0  3.541745  0  0  -0.758917  0  3.77358  0  0  -0.772509  0  3.780723  0  0  -0.336709  -0.749523  0  3.76908  0
C  C83  1  0.96277398  0.34524994  0.36875187  1  0  -0.717682  0  3.541755  0  0  -0.758967  0  3.773594  0  0  -0.772557  0  3.780735  0  0  -0.336715  -0.749571  0  3.769092  0
C  C84  1  0.20083889  0.39637353  0.80196948  1  0  0.713296  0  3.82892  0  0  0.651038  0  4.134266  0  0  0.688482  0  4.121502  0  0  0.242792  0.625737  0  4.141825  0
C  C85  1  0.79915442  0.89637022  0.69802836  1  0  0.713528  0  3.828859  0  0  0.651143  0  4.134384  0  0  0.68859  0  4.121615  0  0  0.242795  0.625839  0  4.141942  0
C  C86  1  0.79915580  0.60362882  0.19803038  1  0  0.71349  0  3.828888  0  0  0.65109  0  4.134434  0  0  0.688534  0  4.121669  0  0  0.242784  0.625786  0  4.141992  0
C  C87  1  0.20084461  0.10362908  0.30197009  1  0  0.71346  0  3.828939  0  0  0.651083  0  4.134456  0  0  0.688528  0  4.121688  0  0  0.242768  0.625779  0  4.142011  0
C  C88  1  0.30758410  0.51040842  0.82341065  1  0  -0.25487  0  3.765286  0  0  -0.242714  0  4.025208  0  0  -0.256817  0  4.042969  0  0  -0.036591  -0.233625  0  4.013734  0
C  C89  1  0.69241253  0.01040702  0.67658779  1  0  -0.254886  0  3.765269  0  0  -0.242688  0  4.025228  0  0  -0.256796  0  4.042991  0  0  -0.036522  -0.233596  0  4.013751  0
C  C90  1  0.69241384  0.48959190  0.17658964  1  0  -0.254916  0  3.765397  0  0  -0.242723  0  4.025342  0  0  -0.25682  0  4.043095  0  0  -0.036594  -0.233632  0  4.013862  0
C  C91  1  0.30758649  0.98959329  0.32341132  1  0  -0.254963  0  3.765335  0  0  -0.242755  0  4.02527  0  0  -0.256856  0  4.04302  0  0  -0.036581  -0.233664  0  4.013788  0
C  C92  1  0.33932633  0.57090334  0.90955281  1  0  0.429622  0  3.836747  0  0  0.394082  0  4.113655  0  0  0.415662  0  4.121966  0  0  0.214731  0.378763  0  4.109177  0
C  C93  1  0.66067245  0.07090272  0.59044599  1  0  0.42969  0  3.836682  0  0  0.39408  0  4.113635  0  0  0.415661  0  4.121944  0  0  0.214728  0.378761  0  4.109154  0
C  C94  1  0.66067269  0.42909596  0.09044762  1  0  0.429617  0  3.836794  0  0  0.394059  0  4.113703  0  0  0.415638  0  4.122013  0  0  0.214702  0.378741  0  4.109221  0
C  C95  1  0.33932765  0.92909658  0.40955260  1  0  0.429681  0  3.83675  0  0  0.394101  0  4.113677  0  0  0.415682  0  4.121985  0  0  0.214747  0.378783  0  4.109193  0
C  C96  1  0.50519932  0.71544025  0.86982914  1  0  0.457911  0  3.829649  0  0  0.431646  0  4.100549  0  0  0.453301  0  4.108499  0  0  0.213893  0.41653  0  4.094411  0
C  C97  1  0.49480052  0.21544085  0.63017131  1  0  0.457922  0  3.829626  0  0  0.431616  0  4.100544  0  0  0.453271  0  4.108491  0  0  0.21391  0.416504  0  4.094403  0
C  C98  1  0.49480187  0.28455803  0.13017092  1  0  0.457844  0  3.829549  0  0  0.431577  0  4.100447  0  0  0.453229  0  4.108399  0  0  0.213851  0.416463  0  4.094305  0
C  C99  1  0.50520067  0.78455946  0.36982875  1  0  0.457855  0  3.829688  0  0  0.431596  0  4.100581  0  0  0.453249  0  4.108532  0  0  0.213884  0.416481  0  4.094438  0
C  C100  1  0.48116602  0.66564684  0.78116529  1  0  -0.269935  0  3.737415  0  0  -0.292731  0  4.000326  0  0  -0.304073  0  4.017266  0  0  -0.115143  -0.285122  0  3.987988  0
C  C101  1  0.51883383  0.16564668  0.71883444  1  0  -0.269952  0  3.737413  0  0  -0.292768  0  4.000355  0  0  -0.304112  0  4.017293  0  0  -0.115174  -0.28516  0  3.988018  0
C  C102  1  0.51883625  0.33435043  0.21883557  1  0  -0.269935  0  3.737413  0  0  -0.292737  0  4.000328  0  0  -0.304073  0  4.017273  0  0  -0.115139  -0.285124  0  3.987977  0
C  C103  1  0.48116627  0.83435363  0.28116482  1  0  -0.269952  0  3.737459  0  0  -0.29275  0  4.000373  0  0  -0.304093  0  4.017313  0  0  -0.115156  -0.285142  0  3.988029  0
C  C104  1  0.38186235  0.56032438  0.75935339  1  0  0.001665  0  3.777187  0  0  -0.024958  0  4.032851  0  0  -0.01643  0  4.047761  0  0  -0.074246  -0.029619  0  4.021937  0
C  C105  1  0.61813644  0.06032423  0.74064606  1  0  0.001787  0  3.777187  0  0  -0.024853  0  4.032853  0  0  -0.016322  0  4.047763  0  0  -0.074237  -0.029517  0  4.021945  0
C  C106  1  0.61813776  0.43967593  0.24064652  1  0  0.001678  0  3.777191  0  0  -0.024944  0  4.032848  0  0  -0.016419  0  4.047757  0  0  -0.074231  -0.029606  0  4.021931  0
C  C107  1  0.38186367  0.93967507  0.25935385  1  0  0.001794  0  3.777116  0  0  -0.024833  0  4.032754  0  0  -0.016303  0  4.047661  0  0  -0.074189  -0.029495  0  4.021839  0
C  C108  1  0.29635722  0.59177944  0.05833756  1  0  -0.063669  0  3.616161  0  0  -0.163731  0  3.881497  0  0  -0.155679  0  3.884522  0  0  -0.140278  -0.168956  0  3.879318  0
C  C109  1  0.70364319  0.09177883  0.44166290  1  0  -0.063595  0  3.616145  0  0  -0.163703  0  3.881484  0  0  -0.155649  0  3.884509  0  0  -0.140266  -0.168924  0  3.879304  0
C  C110  1  0.70364289  0.40822088  0.94166301  1  0  -0.063671  0  3.616218  0  0  -0.163749  0  3.881553  0  0  -0.155696  0  3.884576  0  0  -0.140275  -0.168973  0  3.879378  0
C  C111  1  0.29635692  0.90822149  0.55833768  1  0  -0.063613  0  3.616122  0  0  -0.163691  0  3.881459  0  0  -0.155639  0  3.884481  0  0  -0.140264  -0.168917  0  3.87928  0
C  C112  1  0.64041904  0.85439576  0.98648620  1  0  -0.071901  0  3.629811  0  0  -0.173297  0  3.903192  0  0  -0.165495  0  3.904675  0  0  -0.142292  -0.178536  0  3.902353  0
C  C113  1  0.35958077  0.35439609  0.51351244  1  0  -0.072036  0  3.629968  0  0  -0.173477  0  3.903338  0  0  -0.165669  0  3.90482  0  0  -0.142343  -0.178711  0  3.9025  0
C  C114  1  0.35958106  0.14560556  0.01351371  1  0  -0.072033  0  3.629868  0  0  -0.17344  0  3.903262  0  0  -0.16563  0  3.904747  0  0  -0.142321  -0.178687  0  3.902421  0
C  C115  1  0.64041933  0.64560524  0.48648615  1  0  -0.072028  0  3.629883  0  0  -0.173431  0  3.903264  0  0  -0.165628  0  3.904745  0  0  -0.142311  -0.178668  0  3.902426  0
N  N116  1  0.43566733  0.67044425  0.93223631  1  0  -0.506169  0  3.090266  0  0  -0.46745  0  3.357791  0  0  -0.485518  0  3.367497  0  0  -0.339204  -0.455103  0  3.351377  0
N  N117  1  0.56433252  0.17044462  0.56776342  1  0  -0.506141  0  3.090232  0  0  -0.467422  0  3.357804  0  0  -0.485494  0  3.367508  0  0  -0.339192  -0.455077  0  3.351385  0
N  N118  1  0.56433386  0.32955505  0.06776309  1  0  -0.5061  0  3.090166  0  0  -0.467376  0  3.357695  0  0  -0.485445  0  3.367401  0  0  -0.33916  -0.455034  0  3.351282  0
N  N119  1  0.43566759  0.82955569  0.43223583  1  0  -0.506148  0  3.090271  0  0  -0.46742  0  3.357798  0  0  -0.48549  0  3.367504  0  0  -0.339195  -0.455077  0  3.351384  0
O  O120  1  0.25166931  0.27545496  0.81119668  1  0  -0.6111  0  2.013778  0  0  -0.539202  0  2.251335  0  0  -0.566338  0  2.243156  0  0  -0.269145  -0.520612  0  2.256026  0
O  O121  1  0.74832618  0.77545064  0.68880261  1  0  -0.61122  0  2.013676  0  0  -0.539298  0  2.25131  0  0  -0.566434  0  2.243123  0  0  -0.26919  -0.520718  0  2.256023  0
O  O122  1  0.74832754  0.72454738  0.18880280  1  0  -0.611135  0  2.013679  0  0  -0.539213  0  2.251326  0  0  -0.566352  0  2.243146  0  0  -0.269143  -0.520635  0  2.256041  0
O  O123  1  0.25167284  0.22454765  0.31119716  1  0  -0.61113  0  2.013659  0  0  -0.539227  0  2.251306  0  0  -0.566363  0  2.24312  0  0  -0.269152  -0.520648  0  2.256018  0
O  O124  1  0.06659958  0.41953326  0.77514058  1  0  -0.6257  0  2.033713  0  0  -0.550066  0  2.271266  0  0  -0.577964  0  2.265043  0  0  -0.266778  -0.530875  0  2.275085  0
O  O125  1  0.93339589  0.91952894  0.72485757  1  0  -0.62586  0  2.033759  0  0  -0.550133  0  2.271335  0  0  -0.578024  0  2.265088  0  0  -0.266792  -0.530939  0  2.275153  0
O  O126  1  0.93339727  0.58047111  0.22486023  1  0  -0.625875  0  2.033799  0  0  -0.550134  0  2.271363  0  0  -0.57803  0  2.265129  0  0  -0.266792  -0.53094  0  2.275181  0
O  O127  1  0.06660314  0.08047036  0.27514088  1  0  -0.625842  0  2.033767  0  0  -0.550119  0  2.271338  0  0  -0.57802  0  2.265111  0  0  -0.266794  -0.530928  0  2.275154  0
O  O128  1  0.26863102  0.52286484  0.97241227  1  0  -0.271582  0  2.311667  0  0  -0.195842  0  2.552538  0  0  -0.214773  0  2.553336  0  0  -0.178645  -0.182483  0  2.551738  0
O  O129  1  0.73137102  0.02286297  0.52758822  1  0  -0.271722  0  2.31167  0  0  -0.195873  0  2.552498  0  0  -0.214805  0  2.553295  0  0  -0.178662  -0.182516  0  2.551694  0
O  O130  1  0.73136908  0.47713548  0.02758830  1  0  -0.271612  0  2.311728  0  0  -0.195837  0  2.552584  0  0  -0.21477  0  2.553382  0  0  -0.178643  -0.182482  0  2.551783  0
O  O131  1  0.26863125  0.97713531  0.47241197  1  0  -0.271655  0  2.311684  0  0  -0.195871  0  2.552543  0  0  -0.214804  0  2.55334  0  0  -0.178662  -0.182515  0  2.551739  0
O  O132  1  0.60581155  0.81506539  0.89271962  1  0  -0.282161  0  2.317679  0  0  -0.206414  0  2.556855  0  0  -0.225635  0  2.557424  0  0  -0.180531  -0.192783  0  2.556132  0
O  O133  1  0.39418936  0.31506598  0.60727911  1  0  -0.282176  0  2.317768  0  0  -0.206335  0  2.556909  0  0  -0.225549  0  2.557466  0  0  -0.180538  -0.192713  0  2.55619  0
O  O134  1  0.39418964  0.18493493  0.10728043  1  0  -0.282129  0  2.317708  0  0  -0.206376  0  2.556891  0  0  -0.225596  0  2.557459  0  0  -0.180528  -0.192746  0  2.556168  0
O  O135  1  0.60581183  0.68493434  0.39271962  1  0  -0.2821  0  2.317706  0  0  -0.206352  0  2.556884  0  0  -0.225573  0  2.557452  0  0  -0.180522  -0.192723  0  2.556157  0
