# generated using pymatgen
data_CuH7C5O7
_symmetry_space_group_name_H-M   'P 1'
_cell_length_a   9.36211415
_cell_length_b   10.80972871
_cell_length_c   10.80988055
_cell_angle_alpha   111.86902146
_cell_angle_beta   105.63416643
_cell_angle_gamma   105.63292959
_symmetry_Int_Tables_number   1
_chemical_formula_structural   CuH7C5O7
_chemical_formula_sum   'Cu4 H28 C20 O28'
_cell_volume   890.03924214
_cell_formula_units_Z   4
loop_
 _symmetry_equiv_pos_site_id
 _symmetry_equiv_pos_as_xyz
  1  'x, y, z'
loop_
 _atom_site_type_symbol
 _atom_site_label
 _atom_site_symmetry_multiplicity
 _atom_site_fract_x
 _atom_site_fract_y
 _atom_site_fract_z
 _atom_site_occupancy
 _atom_site_pbe_cm5_charge
 _atom_site_pbe_ddec_charge
 _atom_site_pbe_ddec_spin_density
 _atom_site_pbe_ddec_sum_bond_order
 _atom_site_pbe_magmom
Cu  Cu0  1  0.64577288  0.20053572  0.32892472  1  0.707334  0.995121  0.781235  2.040255  0.617
Cu  Cu1  1  0.85424099  0.67107407  0.79947053  1  0.707368  0.995068  -0.781251  2.040167  -0.618
Cu  Cu2  1  0.35422618  0.79946261  0.67107448  1  0.707329  0.995115  0.781241  2.040306  0.617
Cu  Cu3  1  0.14576274  0.32892767  0.20052817  1  0.707371  0.995096  -0.781249  2.040259  -0.617
H  H4  1  0.79180924  0.92859982  0.50798622  1  0.113403  0.122628  -6.5e-05  0.98305  0.0
H  H5  1  0.70820507  0.49200970  0.07141890  1  0.113418  0.1226  6.6e-05  0.983059  0.0
H  H6  1  0.20818522  0.07140148  0.49200293  1  0.113379  0.122619  -6.5e-05  0.983031  0.0
H  H7  1  0.29180077  0.50798574  0.92858806  1  0.113388  0.122617  6.6e-05  0.982931  0.0
H  H8  1  0.39377248  0.14467416  0.11296161  1  0.295659  0.401509  0.000488  0.940484  0.0
H  H9  1  0.10623761  0.88703739  0.85532597  1  0.295637  0.401442  -0.000488  0.940584  0.0
H  H10  1  0.60622704  0.85532527  0.88703809  1  0.295656  0.401586  0.000488  0.940398  0.0
H  H11  1  0.89376996  0.11296022  0.14467200  1  0.295652  0.401463  -0.000488  0.940555  0.0
H  H12  1  0.41145269  0.99304204  0.08950313  1  0.328301  0.413986  0.000468  0.863293  0.001
H  H13  1  0.08854929  0.91049405  0.00695268  1  0.328329  0.413956  -0.000468  0.863274  -0.001
H  H14  1  0.58854471  0.00695731  0.91050071  1  0.328297  0.414024  0.000468  0.863283  0.001
H  H15  1  0.91145752  0.08950996  0.99304476  1  0.328292  0.413916  -0.000468  0.863352  -0.001
H  H16  1  0.95907816  0.33256455  0.44849848  1  0.29868  0.395751  0.000182  0.933926  0.001
H  H17  1  0.54092705  0.55150268  0.66744263  1  0.298693  0.395804  -0.000182  0.933874  -0.001
H  H18  1  0.04091521  0.66742816  0.55149645  1  0.298649  0.395712  0.000182  0.933986  0.001
H  H19  1  0.45907557  0.44849583  0.33256295  1  0.298685  0.395772  -0.000183  0.933902  -0.001
H  H20  1  0.89657911  0.37514341  0.58104518  1  0.294451  0.406538  0.000788  0.921228  0.001
H  H21  1  0.60342576  0.41895623  0.62485321  1  0.294465  0.406497  -0.000788  0.921298  -0.001
H  H22  1  0.10341595  0.62484509  0.41895223  1  0.294442  0.406439  0.000789  0.921362  0.001
H  H23  1  0.39657763  0.58104444  0.37514871  1  0.294439  0.406464  -0.000789  0.921334  -0.001
H  H24  1  0.43271049  0.21648540  0.45105980  1  0.286119  0.377161  -5.8e-05  0.978535  0.0
H  H25  1  0.06728471  0.54892858  0.78351135  1  0.286164  0.377164  5.8e-05  0.978549  0.0
H  H26  1  0.56728643  0.78352141  0.54893843  1  0.286128  0.377189  -5.8e-05  0.978509  0.0
H  H27  1  0.93271268  0.45106540  0.21649048  1  0.286138  0.377154  5.8e-05  0.978554  0.0
H  H28  1  0.54140287  0.17931410  0.56309884  1  0.325565  0.407431  -4.1e-05  0.867344  0.0
H  H29  1  0.95858120  0.43688705  0.82067641  1  0.325574  0.407304  4.1e-05  0.867386  0.0
H  H30  1  0.45858150  0.82068358  0.43689696  1  0.325529  0.407319  -4.1e-05  0.86743  0.0
H  H31  1  0.04141020  0.56310343  0.17931911  1  0.325544  0.407291  4.1e-05  0.867467  0.0
C  C32  1  0.75763270  0.83872161  0.28243343  1  -0.002086  -0.0248  0.004753  3.928346  0.006
C  C33  1  0.74238633  0.71756889  0.16125492  1  -0.002355  -0.025141  -0.00475  3.92919  -0.006
C  C34  1  0.24236582  0.16127024  0.71756043  1  -0.002216  -0.0252  0.004751  3.928708  0.006
C  C35  1  0.25761375  0.28242728  0.83873257  1  -0.002234  -0.024903  -0.004748  3.928952  -0.006
C  C36  1  0.77141712  0.83226424  0.41123415  1  -0.076559  -0.117097  0.00085  3.943074  0.001
C  C37  1  0.72860310  0.58878511  0.16774673  1  -0.076545  -0.117054  -0.000851  3.942901  -0.001
C  C38  1  0.22857756  0.16773710  0.58876247  1  -0.076546  -0.11701  0.000851  3.942956  0.001
C  C39  1  0.27140249  0.41121565  0.83225386  1  -0.076539  -0.11705  -0.000851  3.942946  -0.001
C  C40  1  0.76400882  0.70498512  0.42018849  1  -0.009562  -0.043382  -0.005504  3.945729  -0.006
C  C41  1  0.73600628  0.57985308  0.29504674  1  -0.009338  -0.043044  0.005504  3.944805  0.006
C  C42  1  0.23598804  0.29502386  0.57981610  1  -0.009526  -0.043311  -0.005506  3.945549  -0.006
C  C43  1  0.26400107  0.42015422  0.70496223  1  -0.0094  -0.043264  0.005505  3.945189  0.006
C  C44  1  0.76073933  0.97460533  0.27315074  1  0.215523  0.602249  0.000478  4.208569  -0.003
C  C45  1  0.73929156  0.72684617  0.02541286  1  0.215477  0.602457  -0.000483  4.209862  0.003
C  C46  1  0.23925614  0.02539500  0.72684936  1  0.215704  0.602584  0.000478  4.208973  -0.003
C  C47  1  0.26072103  0.27314738  0.97458651  1  0.215525  0.602411  -0.000482  4.209443  0.003
C  C48  1  0.78785021  0.71221495  0.56564845  1  0.209223  0.568497  0.000595  4.199649  0.003
C  C49  1  0.71215105  0.43434704  0.28780643  1  0.20935  0.568491  -0.000599  4.198972  -0.003
C  C50  1  0.21214100  0.28779697  0.43434863  1  0.209308  0.568612  0.000595  4.199633  0.003
C  C51  1  0.28785124  0.56565577  0.71220439  1  0.209304  0.568537  -0.000598  4.198749  -0.003
O  O52  1  0.86534247  0.03570340  0.23853623  1  -0.309518  -0.548267  -0.000168  2.241303  0.0
O  O53  1  0.63470622  0.76145979  0.96430479  1  -0.309578  -0.548487  0.000166  2.24149  0.0
O  O54  1  0.13467771  0.96430335  0.76146604  1  -0.309608  -0.548328  -0.00017  2.24183  0.0
O  O55  1  0.36530570  0.23854018  0.03569685  1  -0.309559  -0.548395  0.000168  2.241714  0.0
O  O56  1  0.65026730  0.01321386  0.30290299  1  -0.333382  -0.570679  0.06801  2.320189  0.096
O  O57  1  0.84973199  0.69709686  0.98680047  1  -0.333291  -0.570596  -0.067971  2.320799  -0.096
O  O58  1  0.34972882  0.98678323  0.69708770  1  -0.333454  -0.570828  0.06802  2.320049  0.096
O  O59  1  0.15026444  0.30290029  0.01320050  1  -0.333373  -0.570688  -0.067992  2.320338  -0.096
O  O60  1  0.72388806  0.77937503  0.64019814  1  -0.30904  -0.552119  0.000127  2.258907  -0.001
O  O61  1  0.77613244  0.35980894  0.22064311  1  -0.309089  -0.552174  -0.000129  2.258644  0.001
O  O62  1  0.27611337  0.22064271  0.35980425  1  -0.309126  -0.552252  0.000127  2.258743  -0.001
O  O63  1  0.22386965  0.64019384  0.77936118  1  -0.309034  -0.552146  -0.000129  2.258563  0.001
O  O64  1  0.87594204  0.65222464  0.61205045  1  -0.310036  -0.531553  -0.054051  2.32395  -0.076
O  O65  1  0.62404569  0.38796773  0.34780526  1  -0.310088  -0.531594  0.054033  2.32394  0.076
O  O66  1  0.12404966  0.34778519  0.38795428  1  -0.310035  -0.531545  -0.054038  2.324249  -0.076
O  O67  1  0.37595999  0.61204060  0.65220838  1  -0.310077  -0.531576  0.054033  2.32386  0.076
O  O68  1  0.42441872  0.08653373  0.16271392  1  -0.569303  -0.757698  0.044499  2.172006  0.061
O  O69  1  0.07560051  0.83728784  0.91347353  1  -0.569292  -0.75758  -0.044499  2.171985  -0.061
O  O70  1  0.57557867  0.91346562  0.83728993  1  -0.5693  -0.757812  0.044499  2.172022  0.061
O  O71  1  0.92440647  0.16271620  0.08652952  1  -0.569277  -0.757564  -0.044501  2.172006  -0.061
O  O72  1  0.87229123  0.30085065  0.48016570  1  -0.588707  -0.778076  0.044582  2.218568  0.061
O  O73  1  0.62771409  0.51983304  0.69914767  1  -0.588746  -0.778089  -0.044581  2.218623  -0.061
O  O74  1  0.12770637  0.69913582  0.51983334  1  -0.588664  -0.777935  0.044571  2.218689  0.061
O  O75  1  0.37228633  0.48016321  0.30085102  1  -0.588722  -0.778029  -0.044575  2.218624  -0.061
O  O76  1  0.54923834  0.23924794  0.51471922  1  -0.566079  -0.767186  -0.002613  2.091284  -0.003
O  O77  1  0.95075842  0.48526981  0.76074145  1  -0.566099  -0.767023  0.002614  2.091426  0.003
O  O78  1  0.45075575  0.76074910  0.48527842  1  -0.566051  -0.76709  -0.002612  2.091364  -0.003
O  O79  1  0.04923721  0.51472300  0.23925400  1  -0.566059  -0.767011  0.002614  2.091493  0.003
