# generated using pymatgen
data_CuH7C8N3O4
_symmetry_space_group_name_H-M   'P 1'
_cell_length_a   9.16584510
_cell_length_b   9.95178250
_cell_length_c   10.23993433
_cell_angle_alpha   95.45884359
_cell_angle_beta   89.99941766
_cell_angle_gamma   89.99979623
_symmetry_Int_Tables_number   1
_chemical_formula_structural   CuH7C8N3O4
_chemical_formula_sum   'Cu4 H28 C32 N12 O16'
_cell_volume   929.81481869
_cell_formula_units_Z   4
loop_
 _symmetry_equiv_pos_site_id
 _symmetry_equiv_pos_as_xyz
  1  'x, y, z'
loop_
 _atom_site_type_symbol
 _atom_site_label
 _atom_site_symmetry_multiplicity
 _atom_site_fract_x
 _atom_site_fract_y
 _atom_site_fract_z
 _atom_site_occupancy
 _atom_site_hle17_ddec_charge
 _atom_site_hle17_ddec_spin_density
 _atom_site_hle17_ddec_sum_bond_order
 _atom_site_hle17_magmom
 _atom_site_hse06_10hf_ddec_charge
 _atom_site_hse06_10hf_ddec_spin_density
 _atom_site_hse06_10hf_ddec_sum_bond_order
 _atom_site_hse06_10hf_magmom
 _atom_site_hse06_ddec_charge
 _atom_site_hse06_ddec_spin_density
 _atom_site_hse06_ddec_sum_bond_order
 _atom_site_hse06_magmom
 _atom_site_pbe_cm5_charge
 _atom_site_pbe_ddec_charge
 _atom_site_pbe_ddec_spin_density
 _atom_site_pbe_ddec_sum_bond_order
 _atom_site_pbe_magmom
Cu  Cu0  1  0.82938489  0.90861585  0.77398630  1  0.928514  -0.719537  1.778661  -0.523  0.934079  -0.819517  2.163098  -0.657  1.045191  -0.896302  2.066916  -0.753  0.724556  0.869101  -0.756263  2.215361  -0.587
Cu  Cu1  1  0.32938486  0.09138164  0.72601299  1  0.928528  -0.719513  1.778637  -0.523  0.93412  -0.819501  2.163009  -0.657  1.045218  -0.896288  2.066914  -0.753  0.724539  0.869154  -0.75625  2.215283  -0.587
Cu  Cu2  1  0.17061565  0.09138480  0.22601770  1  0.928586  0.719516  1.778509  0.523  0.934055  0.819506  2.163003  0.657  1.045253  0.896286  2.066774  0.753  0.724482  0.869102  0.756252  2.215301  0.587
Cu  Cu3  1  0.67061677  0.90861600  0.27398682  1  0.928477  0.719525  1.778641  0.523  0.934  0.819502  2.163066  0.657  1.045157  0.896284  2.066916  0.753  0.724485  0.869057  0.756261  2.215347  0.587
H  H4  1  0.39499881  0.69748650  0.76142931  1  0.118998  0.000432  0.953744  0.001  0.124689  0.000242  1.018054  0.0  0.127614  0.000195  1.0175  0.0  0.105957  0.122653  0.000237  1.018267  0.0
H  H5  1  0.89500270  0.30251376  0.73856671  1  0.118991  0.000433  0.953775  0.001  0.124685  0.000241  1.018077  0.0  0.127606  0.000195  1.017526  0.0  0.105947  0.122648  0.000237  1.018291  0.0
H  H6  1  0.60500064  0.30251718  0.23857693  1  0.118985  -0.000426  0.953721  -0.001  0.124655  -0.000242  1.018044  0.0  0.127561  -0.000195  1.01751  0.0  0.105947  0.122619  -0.000238  1.018256  0.0
H  H7  1  0.10500438  0.69748087  0.26142792  1  0.119021  -0.000424  0.953718  -0.001  0.124706  -0.000242  1.018011  0.0  0.127629  -0.000194  1.017458  0.0  0.105983  0.12267  -0.000238  1.018224  0.0
H  H8  1  0.17958689  0.40835750  0.71242264  1  0.082031  -0.000545  0.972773  0.0  0.089746  -0.000366  1.037634  0.0  0.092576  -0.000186  1.03462  0.0  0.113553  0.088104  -0.000483  1.039139  0.0
H  H9  1  0.67958364  0.59163961  0.78757798  1  0.082014  -0.000544  0.972778  0.0  0.089772  -0.000366  1.037579  0.0  0.092602  -0.000186  1.034567  0.0  0.113556  0.08813  -0.000483  1.039082  0.0
H  H10  1  0.82041583  0.59164618  0.28758068  1  0.081947  0.000549  0.972799  0.0  0.089719  0.000366  1.037605  0.0  0.09255  0.000186  1.03459  0.0  0.113548  0.088077  0.000483  1.039108  0.0
H  H11  1  0.32041908  0.40836005  0.21242203  1  0.081972  0.000539  0.972828  0.0  0.089715  0.000366  1.037647  0.0  0.092547  0.000186  1.034632  0.0  0.113533  0.088077  0.000483  1.039145  0.0
H  H12  1  0.16955580  0.56500313  0.53097554  1  0.117617  3.1e-05  0.958319  0.0  0.126533  -4.1e-05  1.018182  0.0  0.130162  -3.5e-05  1.01874  0.0  0.105841  0.123915  -6.7e-05  1.018136  0.0
H  H13  1  0.66955002  0.43499100  0.96902390  1  0.117636  3.1e-05  0.958316  0.0  0.126569  -4.1e-05  1.018154  0.0  0.130197  -3.5e-05  1.018715  0.0  0.10587  0.123954  -6.7e-05  1.018106  0.0
H  H14  1  0.83043819  0.43499855  0.46902661  1  0.11759  -3.3e-05  0.958292  0.0  0.126503  4e-05  1.018165  0.0  0.130134  3.5e-05  1.018721  0.0  0.105828  0.123886  6.7e-05  1.018121  0.0
H  H15  1  0.33044943  0.56500563  0.03097679  1  0.117638  -2.4e-05  0.958338  0.0  0.126559  4e-05  1.018191  0.0  0.130187  3.5e-05  1.018749  0.0  0.105856  0.123947  6.7e-05  1.018146  0.0
H  H16  1  0.00098045  0.76735886  0.56894080  1  0.08582  -0.000365  0.937575  -0.001  0.094131  -0.000249  1.001181  0.0  0.096289  -0.000144  0.998771  0.0  0.11888  0.092493  -0.00046  1.002943  -0.001
H  H17  1  0.50097698  0.23263699  0.93105740  1  0.085847  -0.000362  0.937465  -0.001  0.094157  -0.000249  1.00109  0.0  0.096315  -0.000144  0.998678  0.0  0.118903  0.092522  -0.00046  1.002853  -0.001
H  H18  1  0.99900918  0.23264182  0.43105734  1  0.085824  0.000364  0.937643  0.001  0.094099  0.000249  1.001289  0.0  0.096258  0.000143  0.998877  0.0  0.118865  0.092465  0.00046  1.003049  0.001
H  H19  1  0.49902247  0.76735965  0.06894133  1  0.085905  0.000351  0.937469  0.001  0.094194  0.000249  1.001105  0.0  0.096353  0.000143  0.998692  0.0  0.118912  0.092559  0.00046  1.002869  0.001
H  H20  1  0.83347962  0.75369168  0.98807713  1  0.34797  0.000278  0.896603  0.0  0.322962  0.000274  0.972331  0.0  0.332151  0.000238  0.963596  0.0  0.301284  0.316206  0.000303  0.979002  0.0
H  H21  1  0.33348359  0.24631085  0.51192260  1  0.347983  0.000278  0.896615  0.0  0.32297  0.000274  0.972358  0.0  0.332159  0.000238  0.963619  0.0  0.301286  0.31621  0.000303  0.979029  0.0
H  H22  1  0.16651656  0.24631102  0.01192023  1  0.347891  -0.000278  0.896628  0.0  0.322906  -0.000274  0.97234  0.0  0.332094  -0.000238  0.96361  0.0  0.301254  0.316147  -0.000303  0.979013  0.0
H  H23  1  0.66651804  0.75368981  0.48807945  1  0.34796  -0.000279  0.896539  0.0  0.322931  -0.000274  0.972313  0.0  0.33212  -0.000238  0.963578  0.0  0.301266  0.31617  -0.000303  0.978987  0.0
H  H24  1  0.91386632  0.60357537  0.03896041  1  0.323894  0.000108  0.93915  0.0  0.296272  8.7e-05  1.019745  0.0  0.305745  5e-05  1.011741  0.0  0.291634  0.289504  0.000191  1.025392  0.0
H  H25  1  0.41387006  0.39642644  0.46104102  1  0.323843  0.000109  0.939223  0.0  0.296216  8.7e-05  1.019826  0.0  0.305688  5e-05  1.011821  0.0  0.291614  0.289445  0.000191  1.025472  0.0
H  H26  1  0.08613094  0.39643237  0.96103939  1  0.323849  -0.000108  0.939146  0.0  0.296166  -8.7e-05  1.01982  0.0  0.30564  -5e-05  1.01182  0.0  0.291589  0.289397  -0.000191  1.025466  0.0
H  H27  1  0.58613047  0.60357119  0.53895976  1  0.323879  -0.000109  0.939146  0.0  0.296214  -8.7e-05  1.01979  0.0  0.305686  -5e-05  1.011785  0.0  0.291623  0.289445  -0.000191  1.025437  0.0
H  H28  1  0.19272086  0.76121091  0.89918158  1  0.114856  -0.001048  0.96352  -0.001  0.123891  -0.00055  1.02311  -0.001  0.126229  -0.000293  1.02346  0.0  0.106614  0.122216  -0.000727  1.023087  -0.001
H  H29  1  0.69272439  0.23879323  0.60081470  1  0.114839  -0.001027  0.963455  -0.001  0.123879  -0.000549  1.023065  -0.001  0.126215  -0.000293  1.023414  0.0  0.106593  0.122203  -0.000727  1.02304  -0.001
H  H30  1  0.80727204  0.23880090  0.10080884  1  0.114888  0.001027  0.963519  0.001  0.123845  0.00055  1.023205  0.001  0.126177  0.000292  1.023561  0.0  0.106619  0.122169  0.000727  1.023179  0.001
H  H31  1  0.30727615  0.76119632  0.39918921  1  0.114887  0.00103  0.963496  0.001  0.123872  0.00055  1.023147  0.001  0.1262  0.000293  1.023505  0.0  0.106629  0.122195  0.000727  1.02312  0.001
C  C32  1  0.24870291  0.96683994  0.96681012  1  0.694313  -0.000784  3.864392  -0.002  0.658789  0.000423  4.159826  0.0  0.698876  0.00018  4.151225  0.0  0.209112  0.630717  0.000565  4.166738  0.0
C  C33  1  0.74870147  0.03315688  0.53318886  1  0.694066  -0.000754  3.864859  -0.002  0.658681  0.000424  4.16008  0.0  0.698753  0.000181  4.151498  0.0  0.209062  0.630624  0.000565  4.166968  0.0
C  C34  1  0.75129872  0.03316785  0.03317504  1  0.693966  0.000742  3.865019  0.002  0.658657  -0.000421  4.160106  0.0  0.698726  -0.000181  4.151529  0.0  0.209041  0.630616  -0.000564  4.16698  0.0
C  C35  1  0.25130671  0.96683567  0.46682120  1  0.693951  0.000764  3.865097  0.002  0.658731  -0.00042  4.160023  0.0  0.698797  -0.000179  4.151444  0.0  0.209086  0.630691  -0.000563  4.166888  0.0
C  C36  1  0.38951712  0.80083730  0.80749053  1  -0.169031  -0.00596  3.66267  -0.007  -0.190838  -0.003763  3.925501  -0.005  -0.195717  -0.002404  3.938082  -0.003  -0.085329  -0.187666  -0.004392  3.917703  -0.005
C  C37  1  0.88951977  0.19916298  0.69250750  1  -0.168967  -0.005871  3.662648  -0.007  -0.190797  -0.003764  3.925489  -0.005  -0.195678  -0.002408  3.938063  -0.003  -0.085306  -0.187625  -0.004392  3.917686  -0.005
C  C38  1  0.61048232  0.19916437  0.19251161  1  -0.169052  0.005801  3.66289  0.007  -0.190803  0.003764  3.925729  0.005  -0.195668  0.002405  3.938307  0.003  -0.085339  -0.187632  0.00439  3.917927  0.005
C  C39  1  0.11048514  0.80083466  0.30749231  1  -0.169162  0.005818  3.663054  0.007  -0.190918  0.003764  3.925904  0.005  -0.195801  0.002406  3.938474  0.003  -0.085395  -0.187749  0.004392  3.918103  0.005
C  C40  1  0.52204605  0.88233056  0.78724504  1  0.695744  0.00821  3.816688  0.015  0.665523  -0.000248  4.102022  0.004  0.707832  0.000305  4.094808  0.004  0.217822  0.635645  -0.000826  4.108297  0.005
C  C41  1  0.02204388  0.11766418  0.71275483  1  0.695629  0.008212  3.817036  0.015  0.665472  -0.000249  4.102269  0.004  0.7078  0.000306  4.095026  0.004  0.217761  0.635587  -0.000825  4.108541  0.005
C  C42  1  0.47796322  0.11767009  0.21275897  1  0.695969  -0.008225  3.816638  -0.015  0.665635  0.000249  4.102045  -0.004  0.707964  -0.000305  4.094805  -0.004  0.217837  0.635756  0.000825  4.108323  -0.005
C  C43  1  0.97796211  0.88232841  0.28724352  1  0.696082  -0.008219  3.816552  -0.015  0.665719  0.000248  4.102  -0.004  0.708053  -0.000306  4.094751  -0.004  0.217826  0.635837  0.000825  4.108273  -0.005
C  C44  1  0.95932063  0.63915785  0.85109997  1  0.610733  0.000331  3.840066  0.0  0.57053  -0.00054  4.116334  -0.001  0.596982  -0.00024  4.125315  0.0  0.342622  0.552936  -0.000775  4.109682  -0.001
C  C45  1  0.45932041  0.36084213  0.64889935  1  0.610746  0.000343  3.839961  0.0  0.570612  -0.000539  4.116123  -0.001  0.597066  -0.000241  4.125098  0.0  0.342624  0.553021  -0.000775  4.109467  -0.001
C  C46  1  0.04067773  0.36084282  0.14889915  1  0.610875  -0.000351  3.840039  0.0  0.570731  0.000539  4.116165  0.001  0.59719  0.000243  4.125139  0.0  0.342675  0.553136  0.000775  4.10951  0.001
C  C47  1  0.54068340  0.63916055  0.35110289  1  0.61083  -0.00031  3.83994  0.0  0.570607  0.000539  4.116235  0.001  0.597066  0.000245  4.125209  0.0  0.342688  0.553015  0.000775  4.109575  0.001
C  C48  1  0.11600386  0.50139842  0.72254947  1  0.187974  0.002267  3.73318  0.002  0.155532  0.000817  3.988695  0.001  0.170983  0.000894  3.999394  0.001  0.057433  0.145276  0.000549  3.980762  0.0
C  C49  1  0.61600109  0.49859694  0.77745058  1  0.187999  0.002243  3.733235  0.002  0.155549  0.000817  3.988726  0.001  0.170998  0.000895  3.999423  0.001  0.057449  0.145293  0.000549  3.980796  0.0
C  C50  1  0.88399559  0.49860527  0.27745287  1  0.188085  -0.002295  3.73299  -0.002  0.155602  -0.000815  3.988522  -0.001  0.171053  -0.000892  3.99922  -0.001  0.057421  0.145345  -0.000549  3.980586  0.0
C  C51  1  0.38400163  0.50140070  0.22254923  1  0.188054  -0.002182  3.733138  -0.002  0.155617  -0.000815  3.98863  -0.001  0.171067  -0.000894  3.999325  -0.001  0.057476  0.145359  -0.000549  3.980695  0.0
C  C52  1  0.10852323  0.58576752  0.62162580  1  -0.232579  -0.002874  3.764768  -0.003  -0.243943  -0.001188  4.021169  -0.001  -0.259111  -0.000963  4.04198  -0.001  -0.109981  -0.234562  -0.001662  4.007509  -0.002
C  C53  1  0.60851638  0.41422989  0.87837353  1  -0.232673  -0.002855  3.764956  -0.003  -0.244069  -0.001188  4.021386  -0.001  -0.259236  -0.000963  4.042194  -0.001  -0.110032  -0.234688  -0.001661  4.007733  -0.002
C  C54  1  0.89147512  0.41423414  0.37837732  1  -0.232677  0.002889  3.764645  0.003  -0.244042  0.001187  4.021054  0.001  -0.259213  0.000961  4.041866  0.001  -0.11003  -0.23466  0.001662  4.007393  0.002
C  C55  1  0.39148198  0.58576978  0.12162354  1  -0.232717  0.002771  3.764746  0.003  -0.244098  0.001187  4.021157  0.001  -0.259263  0.000962  4.041961  0.001  -0.110058  -0.23472  0.001662  4.007506  0.002
C  C56  1  0.01665903  0.69660833  0.64275080  1  0.215979  0.002727  3.691209  0.003  0.183058  0.001027  3.94803  0.001  0.199626  0.0012  3.961778  0.002  0.065705  0.17269  0.000916  3.938844  0.001
C  C57  1  0.51665830  0.30338947  0.85724745  1  0.216001  0.002712  3.691176  0.003  0.183085  0.001027  3.947999  0.001  0.199652  0.0012  3.961746  0.002  0.065689  0.172716  0.000916  3.93882  0.001
C  C58  1  0.98333606  0.30339032  0.35724911  1  0.216099  -0.002726  3.691496  -0.003  0.183197  -0.001025  3.948286  -0.001  0.199768  -0.001197  3.962034  -0.002  0.06578  0.172828  -0.000915  3.939102  -0.001
C  C59  1  0.48334333  0.69661020  0.14274864  1  0.215968  -0.002614  3.691181  -0.003  0.183078  -0.001025  3.948006  -0.001  0.199648  -0.001199  3.961754  -0.002  0.065704  0.172707  -0.000916  3.93883  -0.001
C  C60  1  0.27468705  0.83740222  0.88408019  1  -0.151567  0.000722  3.643963  0.001  -0.178283  0.000119  3.910397  0.0  -0.184412  0.00063  3.924818  0.001  -0.081989  -0.17494  -0.001598  3.902126  -0.001
C  C61  1  0.77468853  0.16259651  0.61591971  1  -0.151518  0.000585  3.643774  0.001  -0.17832  0.000121  3.910212  0.0  -0.184439  0.000628  3.924632  0.001  -0.082007  -0.174983  -0.001599  3.901933  -0.001
C  C62  1  0.72530694  0.16260554  0.11591375  1  -0.151526  -0.000528  3.644084  -0.001  -0.178245  -0.000123  3.910416  0.0  -0.18436  -0.000629  3.924827  -0.001  -0.081977  -0.174914  0.001597  3.902136  0.001
C  C63  1  0.22531092  0.83739707  0.38408557  1  -0.15154  -0.000547  3.644236  -0.001  -0.178304  -0.000122  3.910537  0.0  -0.184417  -0.000631  3.924959  -0.001  -0.082003  -0.174976  0.001596  3.902253  0.001
N  N64  1  0.94142850  0.72363040  0.75466678  1  -0.475524  -0.027863  3.179885  -0.035  -0.429289  -0.021539  3.47708  -0.029  -0.462272  -0.017468  3.485019  -0.025  -0.354032  -0.409213  -0.024048  3.471322  -0.031
N  N65  1  0.44142861  0.27636865  0.74533164  1  -0.475544  -0.027854  3.179864  -0.035  -0.429332  -0.021535  3.477014  -0.029  -0.462314  -0.017468  3.484966  -0.025  -0.354011  -0.409259  -0.024044  3.471261  -0.031
N  N66  1  0.05856441  0.27637126  0.24533732  1  -0.475705  0.027866  3.180023  0.035  -0.429425  0.021536  3.477131  0.029  -0.462428  0.017467  3.485081  0.025  -0.354052  -0.409354  0.024047  3.471385  0.031
N  N67  1  0.55857193  0.72363103  0.25466348  1  -0.475564  0.027813  3.179816  0.035  -0.429338  0.021541  3.477027  0.029  -0.462337  0.01747  3.484987  0.025  -0.354055  -0.409271  0.024053  3.471277  0.031
N  N68  1  0.89225572  0.66675223  0.96684482  1  -0.678364  0.001437  3.081411  0.002  -0.638933  0.000789  3.326096  0.001  -0.661969  0.0007  3.319059  0.001  -0.561501  -0.622615  0.000916  3.330787  0.001
N  N69  1  0.39225802  0.33324904  0.53315523  1  -0.678326  0.001422  3.081437  0.002  -0.638904  0.00079  3.326082  0.001  -0.661935  0.000702  3.31904  0.001  -0.561499  -0.622579  0.000917  3.330766  0.001
N  N70  1  0.10773936  0.33325247  0.03315957  1  -0.67825  -0.001431  3.081487  -0.002  -0.638832  -0.000789  3.326174  -0.001  -0.661875  -0.000703  3.319149  -0.001  -0.561447  -0.622513  -0.000916  3.330858  -0.001
N  N71  1  0.60773924  0.66674962  0.46684174  1  -0.67828  -0.001411  3.08146  -0.002  -0.638805  -0.000789  3.326231  -0.001  -0.661843  -0.000704  3.319202  -0.001  -0.561465  -0.622488  -0.000917  3.330915  -0.001
N  N72  1  0.04355377  0.52592558  0.83558272  1  -0.466776  -0.005356  3.024688  -0.006  -0.409448  -0.002613  3.277378  -0.003  -0.429841  -0.001808  3.286032  -0.002  -0.325991  -0.395627  -0.004167  3.27091  -0.005
N  N73  1  0.54355347  0.47407513  0.66441850  1  -0.46678  -0.005344  3.024657  -0.006  -0.409488  -0.002613  3.277323  -0.003  -0.429881  -0.001807  3.285975  -0.002  -0.325993  -0.395669  -0.004166  3.270855  -0.005
N  N74  1  0.95644241  0.47408316  0.16442011  1  -0.466819  0.005372  3.024596  0.006  -0.409553  0.002612  3.277296  0.003  -0.42994  0.001805  3.28593  0.002  -0.326  -0.395734  0.004167  3.270827  0.005
N  N75  1  0.45644925  0.52592252  0.33558033  1  -0.466836  0.005297  3.024601  0.006  -0.409539  0.002613  3.277321  0.003  -0.429935  0.001806  3.285973  0.002  -0.326026  -0.395719  0.004168  3.270848  0.005
O  O76  1  0.27636298  0.08165622  0.92804562  1  -0.624031  -0.030574  2.058137  -0.041  -0.589618  -0.01921  2.316585  -0.028  -0.628017  -0.012754  2.304926  -0.02  -0.313777  -0.564117  -0.024804  2.323633  -0.035
O  O77  1  0.77636854  0.91834251  0.57195329  1  -0.623926  -0.030567  2.058505  -0.041  -0.5895  -0.019205  2.316807  -0.028  -0.627905  -0.012752  2.305176  -0.02  -0.313687  -0.564006  -0.024799  2.323841  -0.035
O  O78  1  0.72363320  0.91834953  0.07194618  1  -0.623811  0.030575  2.057991  0.041  -0.589476  0.019203  2.316328  0.028  -0.627888  0.012751  2.304704  0.02  -0.313654  -0.563992  0.024796  2.323357  0.035
O  O79  1  0.22363418  0.08165106  0.42805394  1  -0.623814  0.030564  2.058166  0.041  -0.589492  0.019207  2.316407  0.028  -0.627937  0.012753  2.304835  0.02  -0.313679  -0.564004  0.024803  2.323431  0.035
O  O80  1  0.19497481  0.94830849  0.07874531  1  -0.589956  0.067394  2.071231  0.09  -0.566661  0.037833  2.349218  0.057  -0.611307  0.028025  2.336823  0.045  -0.318912  -0.537773  0.042202  2.356597  0.06
O  O81  1  0.69497434  0.05169223  0.42125215  1  -0.589896  0.067378  2.071374  0.09  -0.566645  0.037836  2.34929  0.057  -0.611284  0.028028  2.33692  0.045  -0.318936  -0.537767  0.042207  2.35666  0.06
O  O82  1  0.80502027  0.05169828  0.92124268  1  -0.589845  -0.067374  2.071706  -0.09  -0.566636  -0.037835  2.349563  -0.057  -0.611255  -0.028024  2.337172  -0.045  -0.318933  -0.537754  -0.042206  2.356918  -0.06
O  O83  1  0.30503820  0.94829835  0.57874698  1  -0.589845  -0.067368  2.071692  -0.09  -0.566661  -0.037833  2.349508  -0.057  -0.61127  -0.028024  2.337119  -0.045  -0.318927  -0.537784  -0.042205  2.356866  -0.06
O  O84  1  0.51747876  0.00525104  0.76352327  1  -0.56375  -0.091236  2.092828  -0.121  -0.547318  -0.057514  2.368834  -0.083  -0.597107  -0.041817  2.36317  -0.064  -0.300838  -0.515147  -0.069091  2.372627  -0.096
O  O85  1  0.01747508  0.99474775  0.73647995  1  -0.563674  -0.091212  2.093016  -0.121  -0.547243  -0.057509  2.369003  -0.083  -0.59704  -0.04181  2.363314  -0.064  -0.300788  -0.515062  -0.069089  2.372781  -0.096
O  O86  1  0.48252723  0.99474759  0.23648151  1  -0.56389  0.091224  2.092758  0.121  -0.547389  0.057517  2.368821  0.083  -0.597201  0.04182  2.363156  0.064  -0.30089  -0.515213  0.069091  2.372595  0.096
O  O87  1  0.98252655  0.00524988  0.26352279  1  -0.56398  0.091224  2.092782  0.121  -0.547438  0.057514  2.368824  0.083  -0.597255  0.041817  2.363142  0.064  -0.300891  -0.515273  0.069095  2.372624  0.096
O  O88  1  0.64190305  0.81755547  0.79648029  1  -0.572825  -0.09651  2.068528  -0.127  -0.551396  -0.062595  2.344635  -0.09  -0.6005  -0.046222  2.335452  -0.07  -0.308643  -0.519787  -0.073508  2.34996  -0.102
O  O89  1  0.14190073  0.18244080  0.70351570  1  -0.572876  -0.096512  2.068672  -0.127  -0.551399  -0.062595  2.344648  -0.09  -0.600505  -0.046222  2.335464  -0.07  -0.308634  -0.519802  -0.073512  2.349997  -0.102
O  O90  1  0.35810076  0.18244417  0.20352557  1  -0.572914  0.096517  2.068476  0.127  -0.551383  0.062592  2.344565  0.09  -0.600509  0.046222  2.335376  0.07  -0.308572  -0.51979  0.073504  2.349921  0.102
O  O91  1  0.85809981  0.81755383  0.29647796  1  -0.572936  0.09651  2.068437  0.127  -0.551412  0.062594  2.344546  0.09  -0.600538  0.046224  2.335365  0.07  -0.308583  -0.519807  0.07351  2.349868  0.102
