# generated using pymatgen
data_Cd3H38C42S2(N4O9)2
_symmetry_space_group_name_H-M   'P 1'
_cell_length_a   11.80115789
_cell_length_b   14.91938630
_cell_length_c   16.76208898
_cell_angle_alpha   89.99945424
_cell_angle_beta   108.53389996
_cell_angle_gamma   89.99967192
_symmetry_Int_Tables_number   1
_chemical_formula_structural   Cd3H38C42S2(N4O9)2
_chemical_formula_sum   'Cd6 H76 C84 S4 N16 O36'
_cell_volume   2798.17095460
_cell_formula_units_Z   2
loop_
 _symmetry_equiv_pos_site_id
 _symmetry_equiv_pos_as_xyz
  1  'x, y, z'
loop_
 _atom_site_type_symbol
 _atom_site_label
 _atom_site_symmetry_multiplicity
 _atom_site_fract_x
 _atom_site_fract_y
 _atom_site_fract_z
 _atom_site_occupancy
 _atom_site_pbe_bader_charge
 _atom_site_pbe_bader_spin_density
 _atom_site_pbe_cm5_charge
 _atom_site_pbe_ddec_charge
 _atom_site_pbe_ddec_spin_density
 _atom_site_pbe_ddec_sum_bond_order
 _atom_site_pbe_magmom
Cd  Cd0  1  0.17656730  0.73651674  0.57834002  1  1.279725  0  0.776809  0.886413  0  2.198743  0
Cd  Cd1  1  0.32343623  0.23651276  0.92166700  1  1.279468  0  0.77676  0.886347  0  2.198728  0
Cd  Cd2  1  0.82343258  0.26348925  0.42166572  1  1.27945  0  0.776791  0.886296  0  2.198919  0
Cd  Cd3  1  0.67656266  0.76348518  0.07833495  1  1.279668  0  0.776748  0.886254  0  2.198834  0
Cd  Cd4  1  0.99999773  0.99999458  0.50000123  1  1.34097  0  0.769989  1.082676  0  2.148254  0
Cd  Cd5  1  0.50000234  0.49999931  0.99999938  1  1.341062  0  0.769952  1.082688  0  2.148141  0
H  H6  1  0.46005469  0.50484107  0.69057410  1  0.042979  0  0.113286  0.106346  0  0.978269  0
H  H7  1  0.03994952  0.00484296  0.80942075  1  0.043074  0  0.113295  0.106375  0  0.978264  0
H  H8  1  0.53994311  0.49515754  0.30941927  1  0.042982  0  0.11326  0.106303  0  0.97826  0
H  H9  1  0.96006062  0.99514828  0.19056808  1  0.042862  0  0.113177  0.106176  0  0.978367  0
H  H10  1  0.36788517  0.49165675  0.75561213  1  0.209622  0  0.123899  0.145241  0  1.025205  0
H  H11  1  0.13212938  0.99165446  0.74438729  1  0.209456  0  0.123876  0.145207  0  1.025185  0
H  H12  1  0.63211981  0.50834454  0.24438396  1  0.209347  0  0.123848  0.145119  0  1.025199  0
H  H13  1  0.86789250  0.00833410  0.25560941  1  0.20971  0  0.123874  0.145214  0  1.025086  0
H  H14  1  0.23565983  0.35455638  0.72924527  1  0.262799  0  0.156684  0.143305  0  1.001852  0
H  H15  1  0.26435286  0.85456258  0.77075732  1  0.262804  0  0.156719  0.143411  0  1.001748  0
H  H16  1  0.76434248  0.64544223  0.27075084  1  0.262691  0  0.156695  0.14337  0  1.00174  0
H  H17  1  0.73566745  0.14543402  0.22924800  1  0.263063  0  0.156666  0.143319  0  1.001797  0
H  H18  1  0.15828863  0.19495306  0.68297798  1  0.171128  0  0.129325  0.162193  0  0.981747  0
H  H19  1  0.34170531  0.69495170  0.81701662  1  0.17104  0  0.129351  0.162207  0  0.98173  0
H  H20  1  0.84172982  0.80504421  0.31702396  1  0.17109  0  0.129305  0.162204  0  0.981638  0
H  H21  1  0.65828544  0.30503886  0.18297942  1  0.170876  0  0.129344  0.162217  0  0.981707  0
H  H22  1  0.20598730  0.14494059  0.60324877  1  0.117894  0  0.118911  0.125178  0  1.008357  0
H  H23  1  0.29400907  0.64493928  0.89674797  1  0.11783  0  0.118917  0.125147  0  1.008321  0
H  H24  1  0.79399984  0.85506740  0.39674471  1  0.118072  0  0.118932  0.125208  0  1.008188  0
H  H25  1  0.70600152  0.35506268  0.10325945  1  0.117772  0  0.118914  0.125149  0  1.008308  0
H  H26  1  0.23199312  0.19160004  0.46370451  1  0.092164  0  0.113394  0.129963  0  0.99714  0
H  H27  1  0.26799504  0.69160002  0.03629092  1  0.092181  0  0.113426  0.130004  0  0.997158  0
H  H28  1  0.76799128  0.80840126  0.53628601  1  0.091981  0  0.113424  0.130029  0  0.997105  0
H  H29  1  0.73203061  0.30840663  0.96371434  1  0.092302  0  0.113407  0.13001  0  0.997061  0
H  H30  1  0.41163394  0.50149409  0.52313415  1  0.065466  0  0.108524  0.115601  0  1.021932  0
H  H31  1  0.08836317  0.00149329  0.97685981  1  0.065459  0  0.108525  0.115661  0  1.021962  0
H  H32  1  0.58836834  0.49850184  0.47686077  1  0.065477  0  0.108539  0.115667  0  1.021943  0
H  H33  1  0.91164095  0.99849795  0.02313728  1  0.065605  0  0.108558  0.115678  0  1.021974  0
H  H34  1  0.40516423  0.41874810  0.39184937  1  0.065512  0  0.100534  0.096008  0  1.007666  0
H  H35  1  0.09482473  0.91874678  0.10814369  1  0.065565  0  0.100541  0.096132  0  1.007724  0
H  H36  1  0.59483808  0.58124448  0.60814675  1  0.06477  0  0.100553  0.096158  0  1.007622  0
H  H37  1  0.90515521  0.08124245  0.89184648  1  0.064514  0  0.100529  0.096145  0  1.007631  0
H  H38  1  0.31731372  0.26769801  0.36295173  1  0.080918  0  0.104728  0.105037  0  0.995042  0
H  H39  1  0.18267794  0.76769731  0.13704200  1  0.081029  0  0.104745  0.105038  0  0.994958  0
H  H40  1  0.68269125  0.73229725  0.63704376  1  0.080981  0  0.104711  0.105031  0  0.995  0
H  H41  1  0.81732264  0.23230197  0.86295613  1  0.080946  0  0.104808  0.105102  0  0.995024  0
H  H42  1  0.10169269  0.61106404  0.70154362  1  0.18264  0  0.123515  0.114812  0  1.026043  0
H  H43  1  0.39830412  0.11106640  0.79845471  1  0.18267  0  0.123523  0.114902  0  1.025968  0
H  H44  1  0.89830343  0.38894194  0.29845357  1  0.182544  0  0.12348  0.114768  0  1.026021  0
H  H45  1  0.60168578  0.88894763  0.20154295  1  0.182489  0  0.123443  0.114733  0  1.026084  0
H  H46  1  0.99520258  0.87340222  0.63275478  1  0.143624  0  0.112333  0.088724  0  1.049097  0
H  H47  1  0.50480812  0.37339829  0.86725575  1  0.143507  0  0.112366  0.088732  0  1.049144  0
H  H48  1  0.00477597  0.12659773  0.36725120  1  0.143497  0  0.112373  0.088715  0  1.049115  0
H  H49  1  0.49521142  0.62660502  0.13275417  1  0.143931  0  0.112325  0.088701  0  1.049184  0
H  H50  1  0.88876505  0.88287146  0.73730385  1  0.089522  0  0.107564  0.112212  0  1.010481  0
H  H51  1  0.61125089  0.38286883  0.76270772  1  0.089528  0  0.107529  0.112158  0  1.010552  0
H  H52  1  0.11120802  0.11711843  0.26269619  1  0.089852  0  0.107527  0.112223  0  1.01045  0
H  H53  1  0.38876056  0.61713380  0.23729870  1  0.089655  0  0.107557  0.112216  0  1.010491  0
H  H54  1  0.00742684  0.61066084  0.81154227  1  0.136063  0  0.114227  0.130499  0  1.005025  0
H  H55  1  0.49257356  0.11067198  0.68845742  1  0.1357  0  0.114155  0.130416  0  1.005055  0
H  H56  1  0.99257388  0.38933107  0.18846127  1  0.135539  0  0.114193  0.130443  0  1.005046  0
H  H57  1  0.50741180  0.88934272  0.31153628  1  0.136056  0  0.114219  0.130534  0  1.005178  0
H  H58  1  0.74937660  0.85243257  0.79200307  1  0.090336  0  0.112252  0.120843  0  0.993238  0
H  H59  1  0.75063695  0.35242921  0.70800466  1  0.090419  0  0.112201  0.120767  0  0.993273  0
H  H60  1  0.25060803  0.14755129  0.20799704  1  0.090067  0  0.112263  0.120804  0  0.993202  0
H  H61  1  0.24936910  0.64757208  0.29199882  1  0.090497  0  0.112212  0.12074  0  0.993276  0
H  H62  1  0.99935419  0.65257784  0.93403978  1  0.103439  0  0.114023  0.128529  0  0.996564  0
H  H63  1  0.50065624  0.15258587  0.56596185  1  0.103781  0  0.114009  0.128461  0  0.996603  0
H  H64  1  0.00064838  0.34742077  0.06596713  1  0.103535  0  0.114077  0.128572  0  0.996547  0
H  H65  1  0.49934093  0.84742749  0.43404212  1  0.103594  0  0.113978  0.12843  0  0.99662  0
H  H66  1  0.89622577  0.66217976  0.04320088  1  0.148656  0  0.12188  0.105767  0  1.00004  0
H  H67  1  0.60377499  0.16219988  0.45679468  1  0.14941  0  0.121851  0.105671  0  1.000064  0
H  H68  1  0.10377225  0.33781282  0.95680149  1  0.149046  0  0.121867  0.105686  0  1.000031  0
H  H69  1  0.39620683  0.83781549  0.54319947  1  0.149051  0  0.121846  0.105721  0  1.000076  0
H  H70  1  0.66121864  0.85552477  0.90893109  1  0.134302  0  0.128922  0.112844  0  0.970391  0
H  H71  1  0.83879678  0.35552627  0.59108179  1  0.134144  0  0.1289  0.112864  0  0.970288  0
H  H72  1  0.33877414  0.14446244  0.09107493  1  0.134449  0  0.128927  0.112858  0  0.970382  0
H  H73  1  0.16120569  0.64447971  0.40892093  1  0.134213  0  0.128922  0.112832  0  0.97029  0
H  H74  1  0.13743519  0.94586348  0.40779472  1  0.61303  0  0.310904  0.396608  0  0.890766  0
H  H75  1  0.36257230  0.44585883  0.09220562  1  0.613008  0  0.310836  0.396518  0  0.890813  0
H  H76  1  0.86258220  0.05413982  0.59219983  1  0.6133  0  0.310841  0.39653  0  0.890842  0
H  H77  1  0.63742405  0.55413576  0.90780116  1  0.613109  0  0.310896  0.396584  0  0.890724  0
H  H78  1  0.22223041  0.00116785  0.48433317  1  0.649302  0  0.277151  0.381423  0  0.969236  0
H  H79  1  0.27777536  0.50116868  0.01567243  1  0.649379  0  0.277099  0.381383  0  0.969283  0
H  H80  1  0.77776935  0.99883813  0.51566778  1  0.649304  0  0.277131  0.381335  0  0.969322  0
H  H81  1  0.72223788  0.49883261  0.98433437  1  0.649275  0  0.277183  0.381459  0  0.969185  0
C  C82  1  0.29901075  0.58360695  0.65287215  1  1.610378  0  0.185142  0.58296  0  4.248801  0
C  C83  1  0.20097817  0.08361238  0.84711757  1  1.611256  0  0.184945  0.582573  0  4.248883  0
C  C84  1  0.70099046  0.41639099  0.34711538  1  1.611103  0  0.185053  0.582641  0  4.248651  0
C  C85  1  0.79901621  0.91638288  0.15288163  1  1.611378  0  0.185023  0.582598  0  4.248793  0
C  C86  1  0.36700313  0.49822171  0.69009912  1  0.22311  0  -0.054022  -0.212656  0  3.861051  0
C  C87  1  0.13300065  0.99822073  0.80989914  1  0.223034  0  -0.054035  -0.212655  0  3.860926  0
C  C88  1  0.63299378  0.50177623  0.30989405  1  0.223111  0  -0.053967  -0.212433  0  3.860833  0
C  C89  1  0.86701318  0.00177252  0.19009525  1  0.222928  0  -0.053978  -0.212394  0  3.860994  0
C  C90  1  0.26007874  0.35173882  0.67177487  1  0.995912  0  0.208576  0.127071  0  3.727505  0
C  C91  1  0.23992501  0.85174184  0.82822405  1  0.995872  0  0.208511  0.126828  0  3.727658  0
C  C92  1  0.73992446  0.64825778  0.32822144  1  0.996161  0  0.208561  0.126978  0  3.727882  0
C  C93  1  0.76008003  0.14825141  0.17177443  1  0.995994  0  0.208557  0.127042  0  3.727427  0
C  C94  1  0.16356528  0.20485259  0.61902861  1  0.245016  0  -0.050269  -0.220674  0  3.820862  0
C  C95  1  0.33642856  0.70485057  0.88096649  1  0.245086  0  -0.050345  -0.220645  0  3.820424  0
C  C96  1  0.83643537  0.79515272  0.38097253  1  0.245064  0  -0.050277  -0.220799  0  3.820395  0
C  C97  1  0.66357022  0.29515005  0.11903067  1  0.245134  0  -0.050279  -0.220664  0  3.82075  0
C  C98  1  0.03810140  0.21898851  0.55655669  1  1.589081  0  0.202983  0.609688  0  4.181432  0
C  C99  1  0.46189401  0.71899999  0.94343683  1  1.589883  0  0.203021  0.609946  0  4.181033  0
C  C100  1  0.96189227  0.78099937  0.44344953  1  1.589123  0  0.20319  0.610348  0  4.181287  0
C  C101  1  0.53811168  0.28100398  0.05655225  1  1.589285  0  0.203157  0.610122  0  4.181146  0
C  C102  1  0.27150133  0.25813545  0.47685028  1  0.044929  0  -0.083031  -0.143015  0  3.96247  0
C  C103  1  0.22850581  0.75813576  0.02315399  1  0.045126  0  -0.0831  -0.143203  0  3.96296  0
C  C104  1  0.72849581  0.74186115  0.52315249  1  0.045262  0  -0.083157  -0.143295  0  3.962601  0
C  C105  1  0.77150639  0.24186017  0.97684662  1  0.044872  0  -0.083139  -0.143117  0  3.962751  0
C  C106  1  0.37578650  0.43383394  0.51133428  1  -0.032781  0  -0.08722  -0.151762  0  3.986034  0
C  C107  1  0.12421807  0.93383980  0.98866531  1  -0.032012  0  -0.087208  -0.151806  0  3.98632  0
C  C108  1  0.62422003  0.56615595  0.48865259  1  -0.032644  0  -0.087174  -0.151743  0  3.986389  0
C  C109  1  0.87577985  0.06615546  0.01133286  1  -0.03232  0  -0.087178  -0.151775  0  3.986542  0
C  C110  1  0.32828234  0.39059002  0.56733534  1  0.352603  0  0.105713  0.099628  0  3.996026  0
C  C111  1  0.17171934  0.89059961  0.93267056  1  0.352448  0  0.105644  0.09953  0  3.996196  0
C  C112  1  0.67171541  0.60940524  0.43265622  1  0.352726  0  0.105602  0.099467  0  3.996131  0
C  C113  1  0.82828492  0.10940370  0.06733253  1  0.351999  0  0.10568  0.099712  0  3.996195  0
C  C114  1  0.27687764  0.30471605  0.55013223  1  0.36473  0  0.103599  0.095105  0  3.998381  0
C  C115  1  0.22311787  0.80471718  0.94987012  1  0.364831  0  0.10373  0.095336  0  3.997993  0
C  C116  1  0.72311490  0.69528323  0.44986420  1  0.364105  0  0.103706  0.095287  0  3.998143  0
C  C117  1  0.77688817  0.19528277  0.05013276  1  0.364849  0  0.103736  0.095165  0  3.998366  0
C  C118  1  0.37028617  0.38745241  0.43803369  1  0.038919  0  -0.08991  -0.079892  0  4.014729  0
C  C119  1  0.12971314  0.88745075  0.06196780  1  0.038925  0  -0.089953  -0.080108  0  4.014849  0
C  C120  1  0.62970793  0.61253614  0.56195412  1  0.040167  0  -0.089926  -0.080123  0  4.014841  0
C  C121  1  0.87028936  0.11254250  0.93803612  1  0.039979  0  -0.089997  -0.080174  0  4.015215  0
C  C122  1  0.31952504  0.30121114  0.42119249  1  -0.079947  0  -0.087314  -0.075427  0  4.007339  0
C  C123  1  0.18047684  0.80121442  0.07879956  1  -0.080286  0  -0.087305  -0.075318  0  4.007781  0
C  C124  1  0.68047098  0.69878144  0.57880110  1  -0.080134  0  -0.087289  -0.075292  0  4.007402  0
C  C125  1  0.81953173  0.19878754  0.92119789  1  -0.080004  0  -0.087385  -0.07547  0  4.007772  0
C  C126  1  0.05437551  0.67066507  0.71101970  1  0.469927  0  0.05334  0.105029  0  3.906915  0
C  C127  1  0.44562515  0.17066999  0.78898310  1  0.47004  0  0.053173  0.104675  0  3.907041  0
C  C128  1  0.94562075  0.32933823  0.28898348  1  0.469801  0  0.053418  0.105125  0  3.906895  0
C  C129  1  0.55436660  0.82935006  0.21101733  1  0.469864  0  0.05335  0.105131  0  3.906529  0
C  C130  1  0.99340209  0.81606185  0.67235616  1  0.482051  0  0.042011  0.086366  0  3.975746  0
C  C131  1  0.50660922  0.31606303  0.82765141  1  0.482505  0  0.04205  0.086472  0  3.97615  0
C  C132  1  0.00658538  0.18393341  0.32765112  1  0.481486  0  0.041994  0.08646  0  3.975546  0
C  C133  1  0.49340216  0.68394296  0.17235201  1  0.481411  0  0.042084  0.086517  0  3.975516  0
C  C134  1  0.93460280  0.82087755  0.73202789  1  -0.07054  0  -0.087418  -0.183934  0  3.967438  0
C  C135  1  0.56540307  0.32087574  0.76797789  1  -0.070925  0  -0.087369  -0.183867  0  3.967765  0
C  C136  1  0.06538456  0.17911838  0.26797459  1  -0.071286  0  -0.087499  -0.184083  0  3.967404  0
C  C137  1  0.43459667  0.67913024  0.23202246  1  -0.071248  0  -0.087423  -0.183985  0  3.967335  0
C  C138  1  0.99996446  0.67090452  0.77343579  1  -0.003999  0  -0.075815  -0.158718  0  3.901504  0
C  C139  1  0.50003680  0.17090882  0.72656314  1  -0.003453  0  -0.075714  -0.158481  0  3.901062  0
C  C140  1  0.00003270  0.32909275  0.22656759  1  -0.003176  0  -0.07585  -0.15867  0  3.901095  0
C  C141  1  0.49994774  0.82910052  0.27343337  1  -0.004052  0  -0.075854  -0.158872  0  3.901449  0
C  C142  1  0.93917563  0.74776030  0.78576147  1  -0.051464  0  0.008267  0.089345  0  4.003294  0
C  C143  1  0.56083015  0.24776579  0.71424133  1  -0.05145  0  0.008183  0.089206  0  4.003325  0
C  C144  1  0.06082070  0.25223362  0.21424471  1  -0.051477  0  0.00826  0.089311  0  4.003124  0
C  C145  1  0.43916069  0.75224488  0.28575831  1  -0.051851  0  0.008313  0.089319  0  4.003188  0
C  C146  1  0.88323552  0.75209671  0.85292242  1  0.038657  0  0.00901  0.097787  0  3.996466  0
C  C147  1  0.61677380  0.25210199  0.64708229  1  0.038453  0  0.008965  0.09775  0  3.996626  0
C  C148  1  0.11676346  0.24789788  0.14708313  1  0.038683  0  0.009088  0.097869  0  3.996406  0
C  C149  1  0.38321614  0.74791136  0.35291716  1  0.038959  0  0.008818  0.097725  0  3.996516  0
C  C150  1  0.78717914  0.81016302  0.84708450  1  -0.075623  0  -0.084085  -0.181066  0  3.95407  0
C  C151  1  0.71281881  0.31016579  0.65291909  1  -0.075706  0  -0.084022  -0.18095  0  3.954207  0
C  C152  1  0.21281101  0.18982687  0.15292335  1  -0.075002  0  -0.084135  -0.180906  0  3.953775  0
C  C153  1  0.28717297  0.68983952  0.34708255  1  -0.075537  0  -0.083992  -0.180899  0  3.953998  0
C  C154  1  0.92424969  0.69824884  0.92508851  1  -0.059544  0  -0.077632  -0.169102  0  3.927509  0
C  C155  1  0.57575309  0.19826179  0.57491289  1  -0.060529  0  -0.077493  -0.168965  0  3.927391  0
C  C156  1  0.07574844  0.30174575  0.07491806  1  -0.059785  0  -0.077596  -0.169136  0  3.927446  0
C  C157  1  0.42424043  0.80175090  0.42508732  1  -0.060232  0  -0.077469  -0.168817  0  3.927414  0
C  C158  1  0.86868061  0.70371870  0.98671081  1  0.477954  0  0.051889  0.101327  0  3.935259  0
C  C159  1  0.63132302  0.20373741  0.51329192  1  0.47849  0  0.051867  0.101398  0  3.935433  0
C  C160  1  0.13131759  0.29627589  0.01329875  1  0.478118  0  0.051897  0.10151  0  3.935229  0
C  C161  1  0.36866332  0.79628264  0.48670558  1  0.47821  0  0.05187  0.101234  0  3.935294  0
C  C162  1  0.73670670  0.81209451  0.91147644  1  0.480259  0  0.05255  0.099103  0  3.947999  0
C  C163  1  0.76330732  0.31209840  0.58853114  1  0.48036  0  0.052599  0.099104  0  3.947692  0
C  C164  1  0.26328691  0.18789337  0.08852737  1  0.479798  0  0.052517  0.099046  0  3.947756  0
C  C165  1  0.23669067  0.68791294  0.41147002  1  0.480216  0  0.052666  0.099236  0  3.947913  0
S  S166  1  0.27636298  0.95934839  0.64178338  1  3.745772  0  0.540725  1.397605  0  6.448504  0
S  S167  1  0.22363701  0.45934555  0.85822277  1  3.745931  0  0.540765  1.397737  0  6.448449  0
S  S168  1  0.72364481  0.04066162  0.35821868  1  3.74557  0  0.540782  1.3977  0  6.448829  0
S  S169  1  0.77636371  0.54065574  0.14178077  1  3.745547  0  0.540837  1.397924  0  6.448147  0
N  N170  1  0.31748253  0.41674553  0.64442553  1  -1.21406  0  -0.218582  0.028913  0  3.746153  0
N  N171  1  0.18252498  0.91674651  0.85557662  1  -1.214285  0  -0.218568  0.029007  0  3.746083  0
N  N172  1  0.68251511  0.58325308  0.35556124  1  -1.21408  0  -0.218606  0.02896  0  3.746361  0
N  N173  1  0.81749090  0.08325076  0.14442895  1  -1.214083  0  -0.218528  0.028811  0  3.746253  0
N  N174  1  0.23680474  0.28284826  0.61748388  1  -1.208559  0  -0.222832  0.021825  0  3.770116  0
N  N175  1  0.26318644  0.78284925  0.88251296  1  -1.209044  0  -0.222828  0.021879  0  3.769818  0
N  N176  1  0.76318866  0.71715035  0.38251153  1  -1.208786  0  -0.222833  0.021815  0  3.770064  0
N  N177  1  0.73681236  0.21714936  0.11748480  1  -1.2087  0  -0.22283  0.02185  0  3.769982  0
N  N178  1  0.05339669  0.74249872  0.66233027  1  -1.250306  0  -0.32871  -0.243667  0  3.514758  0
N  N179  1  0.44661105  0.24250043  0.83766985  1  -1.250594  0  -0.328679  -0.243632  0  3.515178  0
N  N180  1  0.94660039  0.25750793  0.33767011  1  -1.249459  0  -0.328684  -0.24374  0  3.514929  0
N  N181  1  0.55339403  0.75751292  0.16233044  1  -1.249128  0  -0.32864  -0.24368  0  3.514513  0
N  N182  1  0.77653150  0.75940221  0.97979808  1  -1.220426  0  -0.32804  -0.233708  0  3.517673  0
N  N183  1  0.72346524  0.25941372  0.52020449  1  -1.220664  0  -0.328079  -0.23376  0  3.517875  0
N  N184  1  0.22346033  0.24058769  0.02020595  1  -1.220576  0  -0.328076  -0.233953  0  3.517759  0
N  N185  1  0.27652557  0.74059428  0.47979395  1  -1.220583  0  -0.328109  -0.233853  0  3.517814  0
O  O186  1  0.14526498  0.98346104  0.62417194  1  -1.324297  0  -0.389427  -0.712167  0  2.30403  0
O  O187  1  0.35473458  0.48345673  0.87582854  1  -1.324353  0  -0.389459  -0.712281  0  2.304061  0
O  O188  1  0.85473932  0.01654025  0.37583295  1  -1.324501  0  -0.38943  -0.712249  0  2.304223  0
O  O189  1  0.64526691  0.51654054  0.12417039  1  -1.32428  0  -0.389475  -0.712383  0  2.304122  0
O  O190  1  0.28723522  0.85927521  0.64199375  1  -1.302497  0  -0.38312  -0.679801  0  2.29915  0
O  O191  1  0.21277123  0.35927176  0.85801046  1  -1.302456  0  -0.383165  -0.679868  0  2.299022  0
O  O192  1  0.71278161  0.14073345  0.35801441  1  -1.302279  0  -0.383139  -0.679852  0  2.299325  0
O  O193  1  0.78722680  0.64072685  0.14199250  1  -1.302505  0  -0.383143  -0.679852  0  2.299222  0
O  O194  1  0.31822316  0.99906476  0.57387584  1  -1.345002  0  -0.38262  -0.683027  0  2.138944  0
O  O195  1  0.18178361  0.49906005  0.92613618  1  -1.345087  0  -0.382672  -0.683079  0  2.138754  0
O  O196  1  0.68178014  0.00094591  0.42612407  1  -1.344829  0  -0.382686  -0.683044  0  2.138973  0
O  O197  1  0.81822791  0.50094124  0.07387323  1  -1.345049  0  -0.382666  -0.683082  0  2.138741  0
O  O198  1  0.34469948  0.99385792  0.72477090  1  -1.353654  0  -0.365024  -0.638883  0  2.150293  0
O  O199  1  0.15529572  0.49385629  0.77523811  1  -1.353685  0  -0.364918  -0.638778  0  2.150553  0
O  O200  1  0.65530302  0.00615611  0.27523302  1  -1.353662  0  -0.364996  -0.638786  0  2.150339  0
O  O201  1  0.84470508  0.50614635  0.22476902  1  -1.353422  0  -0.365011  -0.638898  0  2.150243  0
O  O202  1  0.00203718  0.29788403  0.53880903  1  -1.148656  0  -0.311149  -0.519517  0  2.168722  0
O  O203  1  0.49794581  0.79788711  0.96118713  1  -1.148387  0  -0.311115  -0.519624  0  2.168956  0
O  O204  1  0.99795142  0.70211324  0.46120803  1  -1.148271  0  -0.31114  -0.519708  0  2.16916  0
O  O205  1  0.50205463  0.20211485  0.03880501  1  -1.148342  0  -0.311146  -0.519642  0  2.168845  0
O  O206  1  0.21060531  0.57804428  0.58618475  1  -1.155073  0  -0.333522  -0.543367  0  2.148436  0
O  O207  1  0.28939799  0.07805663  0.91380867  1  -1.155504  0  -0.333472  -0.54328  0  2.148409  0
O  O208  1  0.78940235  0.42195433  0.41381191  1  -1.155642  0  -0.333629  -0.543424  0  2.148059  0
O  O209  1  0.71061052  0.92194399  0.08618637  1  -1.155542  0  -0.333501  -0.543306  0  2.148436  0
O  O210  1  0.33811600  0.65556068  0.69250104  1  -1.176567  0  -0.347173  -0.573207  0  2.127905  0
O  O211  1  0.16188703  0.15555733  0.80748212  1  -1.177012  0  -0.347008  -0.57291  0  2.127971  0
O  O212  1  0.66187911  0.34444598  0.30749116  1  -1.176797  0  -0.346972  -0.572859  0  2.128076  0
O  O213  1  0.83812774  0.84443592  0.19251426  1  -1.177046  0  -0.347005  -0.572892  0  2.127811  0
O  O214  1  0.97531229  0.14979533  0.52482695  1  -1.191416  0  -0.345033  -0.625224  0  2.334087  0
O  O215  1  0.52469088  0.64979844  0.97516719  1  -1.192345  0  -0.345035  -0.625399  0  2.333755  0
O  O216  1  0.02468332  0.85019859  0.47518624  1  -1.191923  0  -0.345201  -0.625721  0  2.33399  0
O  O217  1  0.47531477  0.35020218  0.02482009  1  -1.191852  0  -0.345146  -0.62555  0  2.33394  0
O  O218  1  0.15020167  0.00646946  0.43069726  1  -1.244383  0  -0.585666  -0.761653  0  1.986568  0
O  O219  1  0.34980409  0.50646804  0.06931008  1  -1.244478  0  -0.58557  -0.761531  0  1.986526  0
O  O220  1  0.84979811  0.99353250  0.56930429  1  -1.24466  0  -0.585591  -0.761513  0  1.986652  0
O  O221  1  0.65020826  0.49352856  0.93069653  1  -1.244429  0  -0.585716  -0.761702  0  1.986447  0
