# generated using pymatgen
data_ZnH22C34N5O4
_symmetry_space_group_name_H-M   'P 1'
_cell_length_a   10.89541497
_cell_length_b   16.50878077
_cell_length_c   17.66925722
_cell_angle_alpha   89.14942196
_cell_angle_beta   90.71739721
_cell_angle_gamma   89.74655598
_symmetry_Int_Tables_number   1
_chemical_formula_structural   ZnH22C34N5O4
_chemical_formula_sum   'Zn2 H44 C68 N10 O8'
_cell_volume   3177.53653031
_cell_formula_units_Z   2
loop_
 _symmetry_equiv_pos_site_id
 _symmetry_equiv_pos_as_xyz
  1  'x, y, z'
loop_
 _atom_site_type_symbol
 _atom_site_label
 _atom_site_symmetry_multiplicity
 _atom_site_fract_x
 _atom_site_fract_y
 _atom_site_fract_z
 _atom_site_occupancy
 _atom_site_pbe_bader_charge
 _atom_site_pbe_bader_spin_density
 _atom_site_pbe_cm5_charge
 _atom_site_pbe_ddec_charge
 _atom_site_pbe_ddec_spin_density
 _atom_site_pbe_ddec_sum_bond_order
 _atom_site_pbe_magmom
Zn  Zn0  1  0.50179337  0.58630019  0.50050118  1  1.298015  0  0.677993  0.827707  0  2.440669  0
Zn  Zn1  1  0.49821730  0.41370435  0.49949588  1  1.295011  0  0.677989  0.827767  0  2.440505  0
H  H2  1  0.25203435  0.32473571  0.19141656  1  0.090268  0  0.117795  0.121345  0  0.973563  0
H  H3  1  0.74797355  0.67524506  0.80861467  1  0.089892  0  0.117866  0.121411  0  0.973369  0
H  H4  1  0.55288201  0.37595187  0.12581878  1  0.112398  0  0.118528  0.128292  0  0.967201  0
H  H5  1  0.44712871  0.62404236  0.87418177  1  0.112588  0  0.118527  0.128224  0  0.967332  0
H  H6  1  0.32952595  0.71353881  0.54983209  1  0.196626  0  0.13179  0.118977  0  1.006126  0
H  H7  1  0.67047009  0.28646395  0.45015578  1  0.196564  0  0.131774  0.119017  0  1.006074  0
H  H8  1  0.68487097  0.71280286  0.46955665  1  0.143749  0  0.129368  0.106229  0  1.003556  0
H  H9  1  0.31513051  0.28720168  0.53044144  1  0.143711  0  0.12942  0.106265  0  1.003596  0
H  H10  1  0.11233864  0.30462505  0.41804867  1  0.034075  0  0.101695  0.095693  0  1.012478  0
H  H11  1  0.88765802  0.69538844  0.58198155  1  0.034355  0  0.101547  0.095544  0  1.012302  0
H  H12  1  0.20416353  0.23991222  0.30557195  1  0.049459  0  0.10866  0.107465  0  0.981703  0
H  H13  1  0.79583322  0.76008245  0.69446582  1  0.04931  0  0.108663  0.107475  0  0.981723  0
H  H14  1  0.51809148  0.63829322  0.25981278  1  0.098783  0  0.113761  0.125336  0  0.988681  0
H  H15  1  0.48190731  0.36171075  0.74017398  1  0.098859  0  0.113847  0.125464  0  0.988667  0
H  H16  1  0.56548429  0.38002629  0.26769935  1  0.125633  0  0.110884  0.118737  0  0.992969  0
H  H17  1  0.43453461  0.61997945  0.73230117  1  0.125082  0  0.110897  0.118721  0  0.992905  0
H  H18  1  0.91946261  0.91950100  0.36160588  1  0.014735  0  0.08927  0.121054  0  0.993196  0
H  H19  1  0.98009583  0.91448532  0.45524631  1  0.043938  0  0.085879  0.119129  0  1.010093  0
H  H20  1  0.02012830  0.83911134  0.38916166  1  0.009962  0  0.085772  0.111048  0  1.009503  0
H  H21  1  0.86349531  0.78589642  0.47988154  1  0.02875  0  0.086503  0.070238  0  0.996419  0
H  H22  1  0.80593088  0.78762505  0.38607566  1  0.003844  0  0.091192  0.077011  0  0.986923  0
H  H23  1  0.70046541  0.92118005  0.41062760  1  0.067694  0  0.104903  0.113665  0  0.961628  0
H  H24  1  0.75674561  0.91975686  0.50316760  1  0.071296  0  0.104758  0.113486  0  0.959143  0
H  H25  1  0.01990285  0.08551917  0.54476195  1  0.042671  0  0.085864  0.119039  0  1.010229  0
H  H26  1  0.08055832  0.08047809  0.63839493  1  0.014525  0  0.089248  0.121022  0  0.993139  0
H  H27  1  0.97988875  0.16087429  0.61086847  1  0.010116  0  0.085879  0.111065  0  1.009501  0
H  H28  1  0.19408712  0.21236365  0.61394427  1  0.003466  0  0.091198  0.077008  0  0.986907  0
H  H29  1  0.13649683  0.21411103  0.52014360  1  0.028918  0  0.086488  0.070244  0  0.99658  0
H  H30  1  0.24324393  0.08025984  0.49681724  1  0.07094  0  0.104809  0.113507  0  0.959079  0
H  H31  1  0.29953810  0.07880941  0.58935483  1  0.066511  0  0.10493  0.113653  0  0.961614  0
H  H32  1  0.96235949  0.69868999  0.32624029  1  0.006706  0  0.080595  0.102611  0  1.024825  0
H  H33  1  0.01965621  0.70508906  0.23269359  1  0.031177  0  0.091226  0.120262  0  0.991566  0
H  H34  1  0.86141604  0.68595741  0.24742897  1  0.023792  0  0.088643  0.116377  0  0.999826  0
H  H35  1  0.97150372  0.55713860  0.21411005  1  0.046885  0  0.095232  0.0897  0  0.967696  0
H  H36  1  0.91241585  0.55049868  0.30632842  1  0.02912  0  0.08239  0.069723  0  0.998678  0
H  H37  1  0.12084674  0.58929156  0.35911512  1  0.021274  0  0.089491  0.091477  0  1.010447  0
H  H38  1  0.17811260  0.59393922  0.26634483  1  0.04483  0  0.099771  0.106178  0  0.979218  0
H  H39  1  0.98035817  0.29491002  0.76730412  1  0.031695  0  0.09119  0.120241  0  0.991513  0
H  H40  1  0.03765488  0.30131092  0.67375684  1  0.006739  0  0.080589  0.102593  0  1.024876  0
H  H41  1  0.13859833  0.31404289  0.75256873  1  0.023783  0  0.088668  0.116405  0  0.99987  0
H  H42  1  0.08759665  0.44950342  0.69367207  1  0.028968  0  0.082382  0.069757  0  0.99871  0
H  H43  1  0.02850881  0.44285926  0.78589048  1  0.04687  0  0.095207  0.089691  0  0.967718  0
H  H44  1  0.82190091  0.40605320  0.73365295  1  0.044706  0  0.099783  0.106212  0  0.979231  0
H  H45  1  0.87916760  0.41071359  0.64088196  1  0.021297  0  0.089529  0.091507  0  1.010372  0
C  C46  1  0.46448880  0.48959868  0.64406118  1  1.535368  0  0.214596  0.589774  0  4.174632  0
C  C47  1  0.53551728  0.51040647  0.35593469  1  1.535236  0  0.214613  0.589668  0  4.174748  0
C  C48  1  0.87396881  0.49260705  0.51228224  1  0.076332  0  0.008464  -0.079454  0  3.905719  0
C  C49  1  0.12603900  0.50740106  0.48773003  1  0.076454  0  0.008634  -0.079014  0  3.905102  0
C  C50  1  0.94397073  0.53833659  0.56282472  1  0.030942  0  0.021354  0.043436  0  3.939694  0
C  C51  1  0.05603162  0.46166912  0.43718186  1  0.030717  0  0.021391  0.043252  0  3.939617  0
C  C52  1  0.51907427  0.57988928  0.15103182  1  0.104441  0  0.015903  0.02265  0  4.030475  0
C  C53  1  0.48092824  0.42010741  0.84895787  1  0.104837  0  0.016036  0.022647  0  4.030668  0
C  C54  1  0.52595196  0.58126842  0.23004437  1  -0.027888  0  -0.065857  -0.117317  0  3.926165  0
C  C55  1  0.47405326  0.41873129  0.76994816  1  -0.02815  0  -0.066011  -0.117388  0  3.926384  0
C  C56  1  0.53971754  0.50909487  0.27162688  1  0.007706  0  -0.015304  -0.032194  0  3.978088  0
C  C57  1  0.46028672  0.49090908  0.72836785  1  0.007934  0  -0.015367  -0.032473  0  3.978205  0
C  C58  1  0.55169236  0.43518799  0.23403960  1  -0.023168  0  -0.070237  -0.072433  0  3.96341  0
C  C59  1  0.44831648  0.56481473  0.76595858  1  -0.022926  0  -0.070162  -0.072181  0  3.963153  0
C  C60  1  0.54519452  0.43297144  0.15568741  1  -0.049812  0  -0.068735  -0.114876  0  3.921562  0
C  C61  1  0.45481434  0.56702642  0.84431309  1  -0.049967  0  -0.068806  -0.114911  0  3.921497  0
C  C62  1  0.52586361  0.50469569  0.11281745  1  0.176735  0  0.024401  0.122147  0  4.067467  0
C  C63  1  0.47413888  0.49529612  0.88718135  1  0.176716  0  0.024425  0.122204  0  4.067692  0
C  C64  1  0.50930593  0.50159203  0.03400438  1  -0.479335  0  -0.018903  -0.064719  0  4.070459  0
C  C65  1  0.49068652  0.49839616  0.96598927  1  0.18574  0  -0.018876  -0.064694  0  4.070737  0
C  C66  1  0.40256511  0.83417132  0.52834280  1  0.132217  0  0.025182  -0.007791  0  4.029303  0
C  C67  1  0.59743456  0.16583140  0.47165473  1  0.132612  0  0.025255  -0.007664  0  4.02923  0
C  C68  1  0.26314512  0.50925601  0.48107104  1  1.608014  0  0.217175  0.59541  0  4.208849  0
C  C69  1  0.73686091  0.49074727  0.51893617  1  1.608936  0  0.217195  0.595397  0  4.208818  0
C  C70  1  0.40718918  0.74957228  0.53067882  1  0.508658  0  0.078455  0.075783  0  3.853679  0
C  C71  1  0.59280956  0.25043227  0.46931585  1  0.509205  0  0.078411  0.075628  0  3.853764  0
C  C72  1  0.60764388  0.75049132  0.48603882  1  0.506565  0  0.065602  0.049198  0  3.863734  0
C  C73  1  0.39235302  0.24951201  0.51395811  1  0.507586  0  0.065533  0.049056  0  3.863749  0
C  C74  1  0.61411718  0.83485306  0.48273706  1  0.008503  0  0.021148  0.06138  0  3.8884  0
C  C75  1  0.38588248  0.16515208  0.51725874  1  0.00826  0  0.021135  0.061448  0  3.888452  0
C  C76  1  0.50731794  0.87795137  0.50400376  1  0.070443  0  0.033502  0.078761  0  4.033302  0
C  C77  1  0.49268080  0.12205134  0.49599376  1  0.070144  0  0.033516  0.078801  0  4.033211  0
C  C78  1  0.50314087  0.96312908  0.50105547  1  -0.228149  0  -0.009542  -0.0571  0  4.069489  0
C  C79  1  0.49685877  0.03687788  0.49894145  1  0.005548  0  -0.009392  -0.056878  0  4.069495  0
C  C80  1  0.18829885  0.43536932  0.24162137  1  0.086883  0  0.007778  0.011661  0  4.056894  0
C  C81  1  0.81170537  0.56462545  0.75839326  1  0.086727  0  0.007841  0.011716  0  4.057477  0
C  C82  1  0.13870477  0.47383045  0.30559080  1  0.025426  0  0.014065  0.063912  0  3.868536  0
C  C83  1  0.86130591  0.52616374  0.69441768  1  0.025638  0  0.014131  0.063925  0  3.868388  0
C  C84  1  0.11182966  0.42476687  0.36909428  1  -0.003181  0  -0.007996  0.009169  0  3.975081  0
C  C85  1  0.88817354  0.57524184  0.63092020  1  -0.003482  0  -0.00822  0.009051  0  3.975224  0
C  C86  1  0.13475380  0.34121337  0.36826121  1  0.009496  0  -0.077561  -0.096303  0  3.976954  0
C  C87  1  0.86524479  0.65878923  0.63176631  1  0.004051  0  -0.077388  -0.096184  0  3.977076  0
C  C88  1  0.18608198  0.30489046  0.30528959  1  0.007493  0  -0.087204  -0.079863  0  4.031539  0
C  C89  1  0.81391940  0.69510302  0.69474314  1  0.013306  0  -0.087137  -0.079857  0  4.031519  0
C  C90  1  0.21297085  0.35181509  0.24162375  1  -0.067977  0  -0.068326  -0.097406  0  3.961152  0
C  C91  1  0.78703522  0.64817116  0.75840061  1  -0.067919  0  -0.068402  -0.097475  0  3.961961  0
C  C92  1  0.92937606  0.45356766  0.45083345  1  0.028058  0  0.020279  0.005312  0  4.021686  0
C  C93  1  0.07062074  0.54643923  0.54917985  1  0.028004  0  0.020136  0.004977  0  4.021856  0
C  C94  1  0.29294217  0.87554954  0.54838791  1  0.848642  0  0.188197  0.238676  0  4.022359  0
C  C95  1  0.70705933  0.12445500  0.45160849  1  0.847896  0  0.188065  0.238497  0  4.022493  0
C  C96  1  0.72700667  0.87928209  0.45732128  1  -0.020607  0  -0.15215  -0.1997  0  3.95988  0
C  C97  1  0.83509390  0.82680846  0.43289744  1  -0.025244  0  -0.162354  -0.087733  0  3.972172  0
C  C98  1  0.94478436  0.87785387  0.40839261  1  -0.009951  0  -0.243099  -0.356548  0  3.958329  0
C  C99  1  0.27299485  0.12072065  0.54267231  1  -0.019238  0  -0.152233  -0.199723  0  3.959784  0
C  C100  1  0.16490846  0.17318934  0.56711715  1  -0.02482  0  -0.162358  -0.08782  0  3.972356  0
C  C101  1  0.05522814  0.12213788  0.59162157  1  -0.008717  0  -0.24314  -0.356373  0  3.958322  0
C  C102  1  0.21123772  0.48244227  0.17486832  1  0.850613  0  0.179313  0.229822  0  4.038255  0
C  C103  1  0.78876940  0.51753617  0.82514198  1  0.851519  0  0.179081  0.229687  0  4.037975  0
C  C104  1  0.11064156  0.56320620  0.30250999  1  0.013186  0  -0.162404  -0.209246  0  3.968575  0
C  C105  1  0.98081637  0.58205453  0.27133993  1  -0.032902  0  -0.161647  -0.083115  0  3.944419  0
C  C106  1  0.95440532  0.67296082  0.26927483  1  -0.043401  0  -0.242321  -0.351357  0  3.970518  0
C  C107  1  0.88937281  0.43679227  0.69749112  1  0.012777  0  -0.1624  -0.209261  0  3.968858  0
C  C108  1  0.01919432  0.41794515  0.72866000  1  -0.032454  0  -0.161637  -0.083197  0  3.944577  0
C  C109  1  0.04560997  0.32703887  0.73072288  1  -0.043956  0  -0.242289  -0.351302  0  3.970463  0
C  C110  1  0.85805410  0.40433911  0.40113529  1  0.843209  0  0.183764  0.241871  0  4.024393  0
C  C111  1  0.14194363  0.59566901  0.59887292  1  0.842787  0  0.183856  0.241872  0  4.024469  0
C  C112  1  0.50241489  0.65352696  0.10890966  1  0.828729  0  0.173947  0.242131  0  4.037634  0
C  C113  1  0.49758032  0.34646429  0.89107776  1  0.829503  0  0.17398  0.242323  0  4.037386  0
N  N114  1  0.50766918  0.70965669  0.50904436  1  -1.247337  0  -0.314473  -0.179772  0  3.54273  0
N  N115  1  0.49233049  0.29034785  0.49095032  1  -1.248723  0  -0.314494  -0.179761  0  3.542661  0
N  N116  1  0.20255687  0.90970887  0.56345703  1  -1.1108  0  -0.283001  -0.333797  0  2.710609  0
N  N117  1  0.79744189  0.09029569  0.43653537  1  -1.110095  0  -0.282897  -0.33369  0  2.710595  0
N  N118  1  0.22789558  0.52127313  0.12014227  1  -1.121937  0  -0.304945  -0.356153  0  2.720372  0
N  N119  1  0.77210709  0.47869141  0.87985908  1  -1.122731  0  -0.30477  -0.356022  0  2.720013  0
N  N120  1  0.80323940  0.36169971  0.36092595  1  -1.113188  0  -0.293111  -0.342119  0  2.726231  0
N  N121  1  0.19675556  0.63831206  0.63907993  1  -1.112784  0  -0.29314  -0.341994  0  2.726098  0
N  N122  1  0.49011883  0.71447642  0.07512630  1  -1.110509  0  -0.32647  -0.374721  0  2.670374  0
N  N123  1  0.50986448  0.28551180  0.92485933  1  -1.111402  0  -0.326476  -0.374859  0  2.670283  0
O  O124  1  0.46820759  0.55810172  0.60996134  1  -1.161032  0  -0.315057  -0.548349  0  2.372504  0
O  O125  1  0.53179939  0.44190646  0.39003451  1  -1.160916  0  -0.315043  -0.548292  0  2.372588  0
O  O126  1  0.46674765  0.42063125  0.61251367  1  -1.159394  0  -0.321626  -0.544872  0  2.317861  0
O  O127  1  0.53326208  0.57937572  0.38748278  1  -1.159259  0  -0.321672  -0.544863  0  2.317719  0
O  O128  1  0.31401853  0.57791733  0.47698142  1  -1.153081  0  -0.30447  -0.531878  0  2.311111  0
O  O129  1  0.68598747  0.42209081  0.52302461  1  -1.153796  0  -0.304443  -0.531758  0  2.311306  0
O  O130  1  0.31377005  0.43999986  0.48326740  1  -1.159493  0  -0.302555  -0.534131  0  2.345376  0
O  O131  1  0.68623414  0.56000951  0.51673350  1  -1.159659  0  -0.302647  -0.534227  0  2.345228  0
