# generated using pymatgen
data_CuH6C8(N2O)2
_symmetry_space_group_name_H-M   'P 1'
_cell_length_a   15.73624414
_cell_length_b   15.73644225
_cell_length_c   15.73620536
_cell_angle_alpha   94.40862476
_cell_angle_beta   94.40778726
_cell_angle_gamma   94.40885953
_symmetry_Int_Tables_number   1
_chemical_formula_structural   CuH6C8(N2O)2
_chemical_formula_sum   'Cu12 H72 C96 N48 O24'
_cell_volume   3860.32010068
_cell_formula_units_Z   12
loop_
 _symmetry_equiv_pos_site_id
 _symmetry_equiv_pos_as_xyz
  1  'x, y, z'
loop_
 _atom_site_type_symbol
 _atom_site_label
 _atom_site_symmetry_multiplicity
 _atom_site_fract_x
 _atom_site_fract_y
 _atom_site_fract_z
 _atom_site_occupancy
 _atom_site_pbe_bader_charge
 _atom_site_pbe_bader_spin_density
 _atom_site_pbe_cm5_charge
 _atom_site_pbe_ddec_charge
 _atom_site_pbe_ddec_spin_density
 _atom_site_pbe_ddec_sum_bond_order
 _atom_site_pbe_magmom
Cu  Cu0  1  0.26211128  0.73789807  0.49999993  1  1.017244  0.557116  0.804827  0.700644  0.720295  2.311709  0.553
Cu  Cu1  1  0.49999909  0.26210455  0.73788962  1  1.017343  0.557116  0.804818  0.700692  0.720295  2.311662  0.553
Cu  Cu2  1  0.73788683  0.50000026  0.26211276  1  1.017197  0.557105  0.804788  0.70026  0.720303  2.312432  0.553
Cu  Cu3  1  0.73788983  0.26210367  0.49999886  1  1.017374  0.557118  0.804811  0.700703  0.720296  2.311603  0.553
Cu  Cu4  1  0.50000138  0.73789586  0.26211156  1  1.01735  0.557114  0.804828  0.700726  0.720293  2.311677  0.553
Cu  Cu5  1  0.26211173  0.49999999  0.73788763  1  1.017165  0.557104  0.804773  0.700169  0.720302  2.312543  0.553
Cu  Cu6  1  0.24450799  0.99999898  0.75548835  1  1.019698  0.550008  0.800218  0.705069  0.714432  2.27537  0.549
Cu  Cu7  1  0.75547455  0.24448807  0.99999049  1  1.020129  0.550014  0.800118  0.705193  0.714425  2.275336  0.549
Cu  Cu8  1  0.00000971  0.75551316  0.24452724  1  1.020283  0.550018  0.800127  0.705237  0.714429  2.275251  0.549
Cu  Cu9  1  0.75549375  0.00000089  0.24451035  1  1.019711  0.550008  0.800216  0.705103  0.714426  2.275352  0.549
Cu  Cu10  1  0.24452656  0.75551176  0.00001007  1  1.020158  0.550015  0.800114  0.705209  0.714427  2.275246  0.549
Cu  Cu11  1  0.99998948  0.24448714  0.75547194  1  1.020288  0.550018  0.800123  0.705233  0.71443  2.275253  0.549
H  H12  1  0.42549595  0.94662447  0.75867478  1  0.143507  0.004023  0.123811  0.097691  0.001995  0.97532  0.003
H  H13  1  0.22165508  0.55716728  0.40974102  1  0.134198  0.004239  0.126751  0.1007  0.002166  0.96415  0.003
H  H14  1  0.06690617  0.90462232  0.75190317  1  0.118753  0.004118  0.128432  0.101567  0.002052  0.95711  0.003
H  H15  1  0.08380307  0.69845724  0.55565354  1  0.134597  0.004091  0.127825  0.104449  0.002093  0.963434  0.003
H  H16  1  0.99283886  0.77520574  0.66015642  1  0.036526  0.003217  0.102281  0.113958  0.001661  1.0172  0.001
H  H17  1  0.75867669  0.42545211  0.94660355  1  0.144195  0.004026  0.123814  0.097676  0.001997  0.975256  0.003
H  H18  1  0.40972698  0.22163692  0.55716641  1  0.13487  0.004236  0.12678  0.100731  0.002166  0.96418  0.003
H  H19  1  0.75188329  0.06687223  0.90459969  1  0.11834  0.004117  0.128493  0.101627  0.002051  0.957122  0.003
H  H20  1  0.55564875  0.08380446  0.69843109  1  0.134773  0.004089  0.127902  0.104558  0.002092  0.96355  0.003
H  H21  1  0.66014999  0.99282652  0.77517761  1  0.036232  0.003216  0.102353  0.114085  0.00166  1.016652  0.001
H  H22  1  0.94662004  0.75871569  0.42551955  1  0.144014  0.004023  0.123765  0.097674  0.001996  0.975144  0.003
H  H23  1  0.55714940  0.40973925  0.22166653  1  0.133668  0.004239  0.126786  0.100647  0.002166  0.964296  0.003
H  H24  1  0.90461623  0.75191630  0.06693819  1  0.118788  0.004117  0.128481  0.101584  0.002052  0.957271  0.003
H  H25  1  0.69844442  0.55568304  0.08383825  1  0.135328  0.004089  0.127757  0.10433  0.002093  0.963443  0.003
H  H26  1  0.77519388  0.66019300  0.99288297  1  0.036542  0.003217  0.102174  0.113965  0.00166  1.01718  0.001
H  H27  1  0.24131907  0.05337516  0.57449698  1  0.143369  0.004023  0.123802  0.097675  0.001995  0.975274  0.003
H  H28  1  0.59025771  0.44283457  0.77834345  1  0.134184  0.004239  0.126757  0.10068  0.002166  0.964228  0.003
H  H29  1  0.24809179  0.09537504  0.93308838  1  0.11892  0.004117  0.128444  0.101582  0.002052  0.957104  0.003
H  H30  1  0.44434243  0.30154109  0.91619690  1  0.134687  0.00409  0.127779  0.104375  0.002093  0.963454  0.003
H  H31  1  0.33983825  0.22479049  0.00715910  1  0.036604  0.003217  0.102272  0.113938  0.00166  1.017252  0.001
H  H32  1  0.05339698  0.57454922  0.24132714  1  0.144224  0.004026  0.123782  0.0976  0.001997  0.975276  0.003
H  H33  1  0.44283297  0.77836349  0.59027111  1  0.134914  0.004237  0.126799  0.100758  0.002166  0.964106  0.003
H  H34  1  0.09540067  0.93312880  0.24811644  1  0.118344  0.004116  0.128487  0.101605  0.002051  0.957117  0.003
H  H35  1  0.30156864  0.91619949  0.44435322  1  0.134437  0.00409  0.127884  0.104576  0.002092  0.963516  0.003
H  H36  1  0.22482045  0.00717692  0.33985189  1  0.036084  0.003217  0.102383  0.114173  0.00166  1.016691  0.001
H  H37  1  0.57448181  0.24128052  0.05337915  1  0.144041  0.004024  0.123762  0.097667  0.001996  0.975115  0.003
H  H38  1  0.77833458  0.59026316  0.44285260  1  0.133707  0.004239  0.126784  0.100653  0.002165  0.964335  0.003
H  H39  1  0.93306303  0.24808587  0.09538700  1  0.118932  0.004116  0.128476  0.101587  0.002051  0.957306  0.003
H  H40  1  0.91616155  0.44431906  0.30155693  1  0.135276  0.004089  0.127762  0.104339  0.002093  0.963458  0.003
H  H41  1  0.00711718  0.33980769  0.22480785  1  0.036513  0.003217  0.102175  0.113976  0.00166  1.017165  0.001
H  H42  1  0.57450324  0.05337647  0.24132380  1  0.143542  0.004024  0.123796  0.097673  0.001996  0.975214  0.003
H  H43  1  0.77834539  0.44283313  0.59025889  1  0.134174  0.004239  0.12675  0.10071  0.002166  0.964157  0.003
H  H44  1  0.93309366  0.09537677  0.24809723  1  0.118746  0.004117  0.128413  0.101543  0.002051  0.957105  0.003
H  H45  1  0.91619676  0.30154376  0.44434574  1  0.134584  0.004091  0.127846  0.104481  0.002093  0.96344  0.003
H  H46  1  0.00716160  0.22479404  0.33984281  1  0.036498  0.003217  0.102264  0.113929  0.00166  1.017209  0.001
H  H47  1  0.24132506  0.57454777  0.05339832  1  0.144277  0.004026  0.123819  0.097645  0.001997  0.975266  0.003
H  H48  1  0.59027285  0.77836217  0.44283399  1  0.134867  0.004236  0.126804  0.100755  0.002166  0.96417  0.003
H  H49  1  0.24811526  0.93312803  0.09540198  1  0.118344  0.004117  0.128478  0.10161  0.002051  0.957099  0.003
H  H50  1  0.44435172  0.91619532  0.30157068  1  0.134739  0.004089  0.127879  0.10453  0.002093  0.963602  0.003
H  H51  1  0.33984856  0.00717311  0.22482463  1  0.036173  0.003217  0.102389  0.11418  0.00166  1.016677  0.001
H  H52  1  0.05337787  0.24128324  0.57448069  1  0.143963  0.004023  0.123763  0.097669  0.001996  0.97514  0.003
H  H53  1  0.44285106  0.59025989  0.77833265  1  0.133675  0.004239  0.126789  0.100634  0.002166  0.964301  0.003
H  H54  1  0.09538296  0.24808273  0.93306089  1  0.118753  0.004117  0.128474  0.1016  0.002052  0.957317  0.003
H  H55  1  0.30155541  0.44431604  0.91616152  1  0.135349  0.004089  0.127751  0.104326  0.002093  0.963485  0.003
H  H56  1  0.22480594  0.33980480  0.00711606  1  0.036529  0.003217  0.102185  0.113974  0.00166  1.017201  0.001
H  H57  1  0.75868076  0.94662520  0.42550288  1  0.143357  0.004023  0.123799  0.097703  0.001995  0.975255  0.003
H  H58  1  0.40974340  0.55716653  0.22165656  1  0.134485  0.004238  0.126753  0.100681  0.002166  0.964242  0.003
H  H59  1  0.75190868  0.90462410  0.06691080  1  0.120611  0.004114  0.128443  0.101585  0.002051  0.957108  0.003
H  H60  1  0.55565805  0.69845869  0.08380360  1  0.13468  0.00409  0.127791  0.104398  0.002093  0.963489  0.003
H  H61  1  0.66016286  0.77520806  0.99284072  1  0.036471  0.003217  0.102269  0.113918  0.00166  1.017257  0.001
H  H62  1  0.94660285  0.42544922  0.75867131  1  0.144221  0.004026  0.123774  0.097598  0.001997  0.975262  0.003
H  H63  1  0.55716686  0.22163559  0.40972675  1  0.134858  0.004236  0.126799  0.100745  0.002166  0.964162  0.003
H  H64  1  0.90459596  0.06687130  0.75188379  1  0.118024  0.004117  0.12848  0.101544  0.00205  0.957199  0.003
H  H65  1  0.69842991  0.08380204  0.55564536  1  0.134681  0.004089  0.127866  0.104515  0.002092  0.963556  0.003
H  H66  1  0.77517618  0.99282318  0.66014898  1  0.036133  0.003217  0.10238  0.114147  0.00166  1.016663  0.001
H  H67  1  0.42551866  0.75871989  0.94661886  1  0.144047  0.004024  0.123749  0.097655  0.001996  0.975005  0.003
H  H68  1  0.22166589  0.40973662  0.55714854  1  0.133728  0.004239  0.126779  0.100659  0.002166  0.964271  0.003
H  H69  1  0.06693745  0.75191645  0.90461369  1  0.11888  0.004117  0.128476  0.10159  0.002052  0.957271  0.003
H  H70  1  0.08383956  0.55568268  0.69844377  1  0.135301  0.004089  0.127734  0.104279  0.002093  0.963472  0.003
H  H71  1  0.99288457  0.66019346  0.77519221  1  0.036534  0.003217  0.102152  0.113924  0.00166  1.017156  0.001
H  H72  1  0.50916498  0.84441410  0.84438076  1  0.067407  0.002976  0.099659  0.110154  0.00157  1.027117  0.001
H  H73  1  0.84437215  0.50911317  0.84436982  1  0.067349  0.002975  0.099888  0.110689  0.001569  1.027274  0.001
H  H74  1  0.84438550  0.84441231  0.50917092  1  0.06731  0.002977  0.09965  0.110076  0.001571  1.026981  0.001
H  H75  1  0.15561433  0.15558741  0.49082889  1  0.067317  0.002977  0.099676  0.110082  0.001571  1.026974  0.001
H  H76  1  0.15562704  0.49088713  0.15562935  1  0.067296  0.002975  0.099884  0.110643  0.001569  1.02731  0.001
H  H77  1  0.49083421  0.15558621  0.15561778  1  0.06739  0.002976  0.099657  0.110117  0.00157  1.027149  0.001
H  H78  1  0.28801975  0.47560259  0.28801999  1  0.042582  0.003456  0.10092  0.113169  0.001798  1.017134  0.002
H  H79  1  0.28801487  0.28800302  0.47560178  1  0.042176  0.003457  0.100937  0.113083  0.001798  1.017152  0.002
H  H80  1  0.47560208  0.28800494  0.28801484  1  0.042202  0.003457  0.100919  0.113047  0.001798  1.017108  0.002
H  H81  1  0.71198072  0.52439846  0.71198061  1  0.042551  0.003456  0.100945  0.113185  0.001798  1.017071  0.002
H  H82  1  0.52439711  0.71199536  0.71198433  1  0.042213  0.003457  0.100905  0.113041  0.001798  1.017173  0.002
H  H83  1  0.71198496  0.71199670  0.52439867  1  0.042175  0.003457  0.100928  0.113045  0.001798  1.017166  0.002
C  C84  1  0.39741120  0.91009531  0.80737433  1  0.473599  -0.003732  0.062106  0.161321  -0.004451  3.971411  -0.003
C  C85  1  0.27665020  0.58402900  0.37943118  1  0.480281  -0.002666  0.065466  0.164996  -0.003116  3.966603  -0.002
C  C86  1  0.09832666  0.86990993  0.70199855  1  0.487157  -0.002961  0.063237  0.158851  -0.003645  3.973483  -0.002
C  C87  1  0.10749207  0.75694614  0.59494862  1  0.489603  -0.002149  0.064056  0.159604  -0.002595  3.967287  -0.001
C  C88  1  0.22390632  0.86144522  0.62919047  1  1.754676  -0.001607  0.301112  0.594172  -0.002181  4.179632  -0.002
C  C89  1  0.05822495  0.79878786  0.65232479  1  0.040781  0.013017  -0.122441  -0.260118  0.008951  4.058629  0.011
C  C90  1  0.80738021  0.39736926  0.91007662  1  0.475874  -0.003738  0.062201  0.161559  -0.004454  3.971626  -0.003
C  C91  1  0.37942493  0.27663688  0.58402686  1  0.47932  -0.002665  0.065529  0.164995  -0.003117  3.966731  -0.002
C  C92  1  0.70199092  0.09830432  0.86988576  1  0.488955  -0.002968  0.063213  0.158754  -0.003646  3.973623  -0.002
C  C93  1  0.59494454  0.10748432  0.75692195  1  0.489864  -0.002152  0.064109  0.159695  -0.002598  3.967517  -0.001
C  C94  1  0.62919132  0.22388820  0.86143393  1  1.754031  -0.001608  0.301216  0.594172  -0.002182  4.179883  -0.002
C  C95  1  0.65231994  0.05821255  0.79875758  1  0.039225  0.01302  -0.122533  -0.260246  0.008949  4.057963  0.011
C  C96  1  0.91008612  0.80740697  0.39742571  1  0.476122  -0.003736  0.061729  0.160908  -0.004449  3.971775  -0.003
C  C97  1  0.58402007  0.37942685  0.27665359  1  0.48102  -0.002671  0.065351  0.164903  -0.003118  3.96686  -0.002
C  C98  1  0.86991210  0.70200833  0.09836268  1  0.487434  -0.002959  0.063158  0.158854  -0.003646  3.973603  -0.002
C  C99  1  0.75694138  0.59496503  0.10752695  1  0.488228  -0.002148  0.064346  0.16014  -0.002599  3.966791  -0.001
C  C100  1  0.86145611  0.62919594  0.22393791  1  1.753757  -0.001602  0.300943  0.594214  -0.002175  4.178857  -0.002
C  C101  1  0.79878597  0.65234129  0.05826154  1  0.032457  0.013026  -0.122467  -0.260314  0.008951  4.058911  0.011
C  C102  1  0.19262267  0.08990687  0.60258330  1  0.47369  -0.003732  0.062043  0.161287  -0.004451  3.97117  -0.003
C  C103  1  0.62056898  0.41597231  0.72335014  1  0.480283  -0.002666  0.065414  0.164955  -0.003116  3.966615  -0.002
C  C104  1  0.29799819  0.13008969  0.90167081  1  0.486792  -0.002958  0.063153  0.158734  -0.003644  3.973414  -0.002
C  C105  1  0.40504823  0.24305206  0.89250709  1  0.489269  -0.002149  0.064169  0.159768  -0.002596  3.967208  -0.001
C  C106  1  0.37080668  0.13855395  0.77609031  1  1.755139  -0.001609  0.301059  0.594184  -0.002181  4.179597  -0.002
C  C107  1  0.34767201  0.20120813  0.94177395  1  0.041098  0.013015  -0.122429  -0.260075  0.00895  4.058762  0.011
C  C108  1  0.08992194  0.60263167  0.19262196  1  0.475814  -0.003737  0.062289  0.161699  -0.004454  3.971694  -0.003
C  C109  1  0.41597302  0.72336296  0.62057410  1  0.479274  -0.002665  0.065533  0.165009  -0.003117  3.966629  -0.002
C  C110  1  0.13011428  0.90169749  0.29801029  1  0.48896  -0.002968  0.063224  0.158832  -0.003646  3.973533  -0.002
C  C111  1  0.24307820  0.89251840  0.40505699  1  0.490045  -0.002152  0.064075  0.159611  -0.002598  3.967543  -0.001
C  C112  1  0.13856848  0.77611240  0.37080724  1  1.754345  -0.00161  0.301239  0.594182  -0.002182  4.179626  -0.002
C  C113  1  0.20124287  0.94178956  0.34768104  1  0.039429  0.01302  -0.122536  -0.260374  0.008949  4.058059  0.011
C  C114  1  0.60257863  0.19259174  0.08991464  1  0.475912  -0.003737  0.061717  0.160863  -0.004449  3.971799  -0.003
C  C115  1  0.72334827  0.62057514  0.41598124  1  0.480986  -0.002671  0.06534  0.164848  -0.003118  3.966992  -0.002
C  C116  1  0.90163755  0.29799355  0.13009051  1  0.487281  -0.00296  0.063141  0.158768  -0.003646  3.973653  -0.002
C  C117  1  0.89247273  0.40503589  0.24305986  1  0.488211  -0.002148  0.064328  0.160079  -0.002599  3.96687  -0.001
C  C118  1  0.77606228  0.37080407  0.13854471  1  1.753733  -0.001602  0.300913  0.594212  -0.002175  4.178793  -0.002
C  C119  1  0.94173843  0.34766047  0.20121660  1  0.032553  0.013025  -0.122399  -0.260154  0.008951  4.058918  0.011
C  C120  1  0.60258927  0.08990574  0.19262436  1  0.473749  -0.003732  0.062116  0.16142  -0.004451  3.971148  -0.003
C  C121  1  0.72335091  0.41597147  0.62056878  1  0.480261  -0.002666  0.065458  0.164966  -0.003116  3.96661  -0.002
C  C122  1  0.90167445  0.13009054  0.29800141  1  0.487138  -0.002961  0.063233  0.158881  -0.003645  3.973424  -0.002
C  C123  1  0.89250840  0.24305427  0.40505193  1  0.489624  -0.002149  0.064093  0.15961  -0.002595  3.967516  -0.001
C  C124  1  0.77609415  0.13855456  0.37080940  1  1.754687  -0.001607  0.301105  0.594155  -0.002181  4.179621  -0.002
C  C125  1  0.94177680  0.20121138  0.34767577  1  0.040769  0.013017  -0.122433  -0.260119  0.008951  4.058656  0.011
C  C126  1  0.19262090  0.60263121  0.08992334  1  0.475809  -0.003737  0.062243  0.161653  -0.004454  3.97163  -0.003
C  C127  1  0.62057554  0.72336290  0.41597364  1  0.479449  -0.002666  0.065428  0.164886  -0.003116  3.966815  -0.002
C  C128  1  0.29800955  0.90169673  0.13011547  1  0.488953  -0.002968  0.063201  0.158721  -0.003646  3.97358  -0.002
C  C129  1  0.40505593  0.89251609  0.24307923  1  0.489748  -0.002152  0.064096  0.159689  -0.002598  3.967608  -0.001
C  C130  1  0.37080851  0.77611088  0.13856647  1  1.75426  -0.001609  0.301215  0.59413  -0.002182  4.179826  -0.002
C  C131  1  0.34767989  0.94178782  0.20124483  1  0.029496  0.013034  -0.122529  -0.260327  0.008949  4.05798  0.011
C  C132  1  0.08991435  0.19259344  0.60257483  1  0.476153  -0.003737  0.061725  0.160884  -0.00445  3.971797  -0.003
C  C133  1  0.41597976  0.62057350  0.72334627  1  0.480975  -0.00267  0.065344  0.164926  -0.003118  3.966839  -0.002
C  C134  1  0.13008709  0.29799070  0.90163703  1  0.487465  -0.002959  0.063136  0.158792  -0.003646  3.973582  -0.002
C  C135  1  0.24305844  0.40503341  0.89247213  1  0.488248  -0.002148  0.06432  0.160087  -0.002599  3.96687  -0.001
C  C136  1  0.13854436  0.37080256  0.77606185  1  1.75373  -0.001603  0.300945  0.594236  -0.002175  4.178756  -0.002
C  C137  1  0.20121385  0.34765716  0.94173818  1  0.032469  0.013026  -0.122437  -0.260269  0.008951  4.058886  0.011
C  C138  1  0.80737845  0.91009486  0.39741739  1  0.473702  -0.003732  0.062058  0.161255  -0.00445  3.971224  -0.003
C  C139  1  0.37943277  0.58402820  0.27664988  1  0.479943  -0.002665  0.065454  0.165007  -0.003116  3.966621  -0.002
C  C140  1  0.70200291  0.86990949  0.09832843  1  0.485158  -0.002956  0.06315  0.158732  -0.003644  3.973545  -0.002
C  C141  1  0.59495160  0.75694702  0.10749331  1  0.489257  -0.002149  0.064167  0.159754  -0.002596  3.967273  -0.001
C  C142  1  0.62919379  0.86144583  0.22390955  1  1.755269  -0.001609  0.301061  0.594202  -0.002181  4.179669  -0.002
C  C143  1  0.65232910  0.79879042  0.05822587  1  0.041229  0.013015  -0.122438  -0.26005  0.00895  4.0588  0.011
C  C144  1  0.91007661  0.39736731  0.80737643  1  0.476064  -0.003739  0.062267  0.16168  -0.004454  3.97168  -0.003
C  C145  1  0.58402617  0.27663734  0.37942507  1  0.479317  -0.002664  0.065412  0.164907  -0.003116  3.966763  -0.002
C  C146  1  0.86988300  0.09830202  0.70198995  1  0.4893  -0.002968  0.063198  0.158799  -0.003646  3.97361  -0.002
C  C147  1  0.75691971  0.10748180  0.59494272  1  0.489779  -0.002152  0.064118  0.159725  -0.002598  3.967538  -0.001
C  C148  1  0.86143071  0.22388663  0.62919184  1  1.754461  -0.001611  0.301235  0.594219  -0.002183  4.179625  -0.002
C  C149  1  0.79875440  0.05821059  0.65231861  1  0.029472  0.013033  -0.122528  -0.260284  0.008948  4.058024  0.011
C  C150  1  0.39742120  0.80740926  0.91008400  1  0.476244  -0.003737  0.061787  0.160988  -0.00445  3.971771  -0.003
C  C151  1  0.27665348  0.37942474  0.58401936  1  0.480867  -0.00267  0.065359  0.164906  -0.003118  3.966948  -0.002
C  C152  1  0.09836292  0.70200814  0.86991014  1  0.487309  -0.00296  0.063139  0.158772  -0.003646  3.973651  -0.002
C  C153  1  0.10752774  0.59496452  0.75694005  1  0.488214  -0.002148  0.064369  0.160185  -0.002599  3.966825  -0.001
C  C154  1  0.22393755  0.62919629  0.86145642  1  1.753735  -0.001602  0.30094  0.594196  -0.002175  4.178775  -0.002
C  C155  1  0.05826269  0.65234126  0.79878346  1  0.032558  0.013025  -0.122394  -0.260174  0.008951  4.058929  0.011
C  C156  1  0.27406103  0.88104760  0.88103466  1  1.764074  -0.000243  0.298506  0.592728  -0.000301  4.186637  -0.001
C  C157  1  0.44272684  0.85372225  0.85370089  1  -0.005126  0.012474  -0.125384  -0.264811  0.008543  4.056052  0.01
C  C158  1  0.88104494  0.27402138  0.88104455  1  1.764328  -0.000235  0.298232  0.592121  -0.000295  4.187983  -0.001
C  C159  1  0.85369189  0.44268200  0.85368949  1  -0.00695  0.012474  -0.125753  -0.265713  0.008547  4.056276  0.01
C  C160  1  0.88103565  0.88104606  0.27406510  1  1.764064  -0.000243  0.298603  0.592794  -0.000302  4.186457  -0.001
C  C161  1  0.85370267  0.85371948  0.44273121  1  -0.005222  0.012474  -0.125363  -0.264719  0.008543  4.055747  0.01
C  C162  1  0.11896418  0.11895303  0.72593467  1  1.764024  -0.000243  0.298608  0.59278  -0.000302  4.186484  -0.001
C  C163  1  0.14629972  0.14628300  0.55727028  1  -0.005181  0.012473  -0.125401  -0.26472  0.008542  4.05573  0.01
C  C164  1  0.11895553  0.72597775  0.11895526  1  1.764303  -0.000235  0.2982  0.592104  -0.000295  4.187901  -0.001
C  C165  1  0.14630602  0.55731756  0.14630762  1  -0.006694  0.012472  -0.12577  -0.265651  0.008547  4.056358  0.01
C  C166  1  0.72593880  0.11895276  0.11896583  1  1.764062  -0.000243  0.298521  0.592862  -0.000302  4.186568  -0.001
C  C167  1  0.55727299  0.14627939  0.14629906  1  -0.005242  0.012474  -0.125369  -0.264756  0.008543  4.055949  0.01
C  C168  1  0.37825078  0.70265634  0.37825075  1  1.747558  -0.002766  0.300466  0.594397  -0.003765  4.181624  -0.003
C  C169  1  0.31266618  0.53994756  0.31266597  1  0.042898  0.013564  -0.123183  -0.264002  0.009291  4.050092  0.011
C  C170  1  0.37824982  0.37824304  0.70265243  1  1.747312  -0.002765  0.300559  0.594628  -0.003764  4.181451  -0.003
C  C171  1  0.31266288  0.31265071  0.53994604  1  0.043058  0.013563  -0.123215  -0.263741  0.00929  4.050118  0.011
C  C172  1  0.70265214  0.37824352  0.37825118  1  1.74741  -0.002765  0.300538  0.594624  -0.003765  4.181395  -0.003
C  C173  1  0.53994674  0.31265177  0.31266369  1  0.042987  0.013563  -0.123178  -0.263694  0.009289  4.050079  0.011
C  C174  1  0.62174970  0.29734407  0.62174980  1  1.747547  -0.002766  0.300463  0.594448  -0.003765  4.181628  -0.003
C  C175  1  0.68733557  0.46005296  0.68733468  1  0.042872  0.013564  -0.123204  -0.263972  0.009291  4.049925  0.011
C  C176  1  0.29734769  0.62175556  0.62174859  1  1.747401  -0.002765  0.300508  0.594502  -0.003764  4.181408  -0.003
C  C177  1  0.46005309  0.68734858  0.68733617  1  0.043038  0.013562  -0.123222  -0.263757  0.009289  4.050192  0.011
C  C178  1  0.62175065  0.62175673  0.29734807  1  1.747303  -0.002765  0.300553  0.594634  -0.003765  4.181343  -0.003
C  C179  1  0.68733823  0.68734975  0.46005393  1  0.043022  0.013563  -0.123167  -0.263599  0.009289  4.050035  0.011
N  N180  1  0.31614599  0.92225983  0.81934231  1  -1.209562  0.10685  -0.36486  -0.373572  0.071127  3.517837  0.092
N  N181  1  0.30733285  0.66268399  0.40995444  1  -1.195903  0.102501  -0.366545  -0.36876  0.067777  3.530917  0.087
N  N182  1  0.18756583  0.78624213  0.58491321  1  -1.207473  0.100792  -0.366449  -0.370282  0.066548  3.528311  0.085
N  N183  1  0.17835810  0.89914128  0.69195763  1  -1.186839  0.103676  -0.367255  -0.371201  0.069107  3.533031  0.09
N  N184  1  0.81935150  0.31611202  0.92225233  1  -1.209295  0.10688  -0.364934  -0.373594  0.071144  3.518216  0.092
N  N185  1  0.40995078  0.30732587  0.66268230  1  -1.195787  0.102509  -0.366567  -0.368904  0.067783  3.531141  0.087
N  N186  1  0.58491005  0.18755538  0.78622965  1  -1.208275  0.10078  -0.36647  -0.370416  0.06654  3.528858  0.085
N  N187  1  0.69195179  0.17833348  0.89912894  1  -1.186203  0.103651  -0.367443  -0.371375  0.069089  3.533248  0.09
N  N188  1  0.92225543  0.81936437  0.31615992  1  -1.208801  0.106835  -0.364505  -0.373241  0.071126  3.518104  0.092
N  N189  1  0.66267393  0.40995295  0.30733363  1  -1.195567  0.102508  -0.366387  -0.368592  0.067783  3.530806  0.087
N  N190  1  0.78624718  0.58492327  0.18759790  1  -1.207889  0.100811  -0.366345  -0.370295  0.06656  3.527894  0.086
N  N191  1  0.89915325  0.69196444  0.17839237  1  -1.187678  0.103688  -0.36719  -0.371367  0.069122  3.532572  0.09
N  N192  1  0.18065506  0.07773965  0.68384911  1  -1.209407  0.106849  -0.364812  -0.373504  0.071128  3.517776  0.092
N  N193  1  0.59004527  0.33731727  0.69266790  1  -1.195868  0.102502  -0.366499  -0.368743  0.067777  3.53088  0.087
N  N194  1  0.41508382  0.21375601  0.81243229  1  -1.207758  0.100796  -0.366434  -0.370343  0.06655  3.528378  0.085
N  N195  1  0.30803843  0.10085781  0.82163741  1  -1.186681  0.103675  -0.367241  -0.37119  0.069108  3.53274  0.09
N  N196  1  0.07774702  0.68388922  0.18065016  1  -1.209433  0.106881  -0.364987  -0.373677  0.071144  3.518094  0.092
N  N197  1  0.33731787  0.69267386  0.59004817  1  -1.19589  0.10251  -0.366505  -0.36881  0.067782  3.531035  0.087
N  N198  1  0.21377159  0.81244600  0.41508876  1  -1.20819  0.100782  -0.366424  -0.370286  0.066541  3.528785  0.085
N  N199  1  0.10087296  0.82166675  0.30804758  1  -1.186383  0.10365  -0.367468  -0.371418  0.069087  3.533277  0.09
N  N200  1  0.68384384  0.18063402  0.07774427  1  -1.208539  0.106838  -0.364509  -0.373281  0.071128  3.518091  0.092
N  N201  1  0.69266795  0.59004819  0.33732637  1  -1.195651  0.10251  -0.366388  -0.368602  0.067784  3.530847  0.087
N  N202  1  0.81240251  0.41507807  0.21375351  1  -1.207899  0.100811  -0.366339  -0.370287  0.06656  3.527891  0.086
N  N203  1  0.82160772  0.30803657  0.10084826  1  -1.18762  0.103686  -0.36719  -0.371399  0.06912  3.532504  0.09
N  N204  1  0.68385320  0.07774048  0.18065686  1  -1.209569  0.10685  -0.364859  -0.373655  0.071127  3.517851  0.092
N  N205  1  0.69266826  0.33731711  0.59004493  1  -1.195895  0.102503  -0.366514  -0.36877  0.067778  3.530893  0.087
N  N206  1  0.81243464  0.21375828  0.41508607  1  -1.207464  0.100792  -0.366484  -0.370302  0.066548  3.52852  0.085
N  N207  1  0.82164173  0.10085844  0.30804155  1  -1.186817  0.103672  -0.367254  -0.371218  0.069105  3.532946  0.09
N  N208  1  0.18065025  0.68388850  0.07774832  1  -1.209323  0.106878  -0.36495  -0.373656  0.071142  3.518154  0.092
N  N209  1  0.59005033  0.69267396  0.33731825  1  -1.19588  0.10251  -0.366551  -0.368934  0.067782  3.531166  0.087
N  N210  1  0.41509042  0.81244503  0.21377153  1  -1.208261  0.100784  -0.366458  -0.370387  0.066543  3.528794  0.085
N  N211  1  0.30804933  0.82166826  0.10087175  1  -1.186276  0.103654  -0.36746  -0.371331  0.06909  3.533249  0.09
N  N212  1  0.07774504  0.18063604  0.68384062  1  -1.208797  0.106833  -0.364477  -0.373193  0.071125  3.518099  0.092
N  N213  1  0.33732526  0.59004672  0.69266549  1  -1.195567  0.102507  -0.366409  -0.368593  0.067782  3.530777  0.087
N  N214  1  0.21375265  0.41507581  0.81240186  1  -1.207896  0.10081  -0.366314  -0.370215  0.066559  3.527875  0.086
N  N215  1  0.10084658  0.30803465  0.82160739  1  -1.187686  0.10369  -0.367173  -0.371375  0.069123  3.532504  0.09
N  N216  1  0.81934541  0.92225949  0.31615134  1  -1.209429  0.106852  -0.364774  -0.373464  0.07113  3.517757  0.092
N  N217  1  0.40995584  0.66268320  0.30733206  1  -1.195906  0.102503  -0.366529  -0.368728  0.067777  3.530745  0.087
N  N218  1  0.58491729  0.78624381  0.18756762  1  -1.207874  0.100795  -0.366433  -0.370391  0.066549  3.528448  0.085
N  N219  1  0.69196268  0.89914201  0.17836186  1  -1.186748  0.103677  -0.367253  -0.371238  0.069108  3.532842  0.09
N  N220  1  0.92225217  0.31611045  0.81934960  1  -1.209473  0.106882  -0.364975  -0.373626  0.071146  3.518114  0.092
N  N221  1  0.66268196  0.30732714  0.40995174  1  -1.195906  0.102508  -0.366521  -0.368875  0.067782  3.531055  0.087
N  N222  1  0.78622824  0.18755435  0.58490983  1  -1.208306  0.10078  -0.366471  -0.370436  0.06654  3.528784  0.085
N  N223  1  0.89912559  0.17833287  0.69195212  1  -1.186455  0.103648  -0.367442  -0.371391  0.069086  3.53326  0.09
N  N224  1  0.31615663  0.81936575  0.92225496  1  -1.208833  0.106837  -0.364499  -0.373275  0.071127  3.518181  0.092
N  N225  1  0.30733252  0.40995158  0.66267412  1  -1.195536  0.10251  -0.36643  -0.368659  0.067784  3.530908  0.087
N  N226  1  0.18759733  0.58492165  0.78624821  1  -1.207904  0.10081  -0.366336  -0.370235  0.066559  3.527877  0.086
N  N227  1  0.17839211  0.69196443  0.89915291  1  -1.187672  0.103686  -0.367217  -0.371396  0.06912  3.532515  0.09
O  O228  1  0.29511632  0.89408640  0.61329386  1  -1.171567  -0.000868  -0.325434  -0.576577  -0.001656  2.097142  0.0
O  O229  1  0.61330538  0.29510288  0.89408235  1  -1.170993  -0.000869  -0.325498  -0.576561  -0.001657  2.097097  0.0
O  O230  1  0.89409763  0.61329355  0.29514619  1  -1.170419  -0.000874  -0.325543  -0.576695  -0.001662  2.096589  0.0
O  O231  1  0.38670321  0.10591256  0.70487995  1  -1.17176  -0.000869  -0.325421  -0.576581  -0.001656  2.097116  0.0
O  O232  1  0.10591912  0.70489578  0.38669290  1  -1.171046  -0.000868  -0.325522  -0.576609  -0.001657  2.096972  0.0
O  O233  1  0.70485464  0.38670646  0.10590319  1  -1.170408  -0.000874  -0.325537  -0.576682  -0.001662  2.096557  0.0
O  O234  1  0.70488415  0.10591337  0.38670601  1  -1.171553  -0.000869  -0.325414  -0.576546  -0.001656  2.097119  0.0
O  O235  1  0.38669446  0.70489812  0.10591820  1  -1.171084  -0.000869  -0.325483  -0.576535  -0.001657  2.097212  0.0
O  O236  1  0.10590156  0.38670548  0.70485352  1  -1.170384  -0.000874  -0.325554  -0.576706  -0.001662  2.096539  0.0
O  O237  1  0.61329726  0.89408785  0.29511932  1  -1.171742  -0.000868  -0.325415  -0.576555  -0.001656  2.097125  0.0
O  O238  1  0.89408071  0.29510330  0.61330623  1  -1.171029  -0.000868  -0.325499  -0.576591  -0.001656  2.096979  0.0
O  O239  1  0.29514520  0.61329390  0.89409985  1  -1.170383  -0.000874  -0.325535  -0.576678  -0.001662  2.096525  0.0
O  O240  1  0.20120806  0.89857322  0.89856826  1  -1.158996  -0.002548  -0.331454  -0.576632  -0.003334  2.075367  -0.002
O  O241  1  0.89857631  0.20117611  0.89857655  1  -1.159761  -0.002549  -0.331123  -0.576149  -0.003335  2.076394  -0.002
O  O242  1  0.89856843  0.89857074  0.20121184  1  -1.158842  -0.002548  -0.331547  -0.576752  -0.003334  2.075238  -0.002
O  O243  1  0.10143139  0.10142643  0.79878714  1  -1.158842  -0.002548  -0.331535  -0.576727  -0.003334  2.075239  -0.002
O  O244  1  0.10142480  0.79882372  0.10142400  1  -1.159723  -0.002549  -0.331152  -0.57617  -0.003335  2.076386  -0.002
O  O245  1  0.79879242  0.10142783  0.10143361  1  -1.158988  -0.002548  -0.331453  -0.576715  -0.003334  2.075366  -0.002
O  O246  1  0.41178666  0.77304105  0.41178530  1  -1.176558  0.000873  -0.328634  -0.58423  -0.0002  2.096199  0.001
O  O247  1  0.41178219  0.41177946  0.77303909  1  -1.176245  0.000868  -0.328743  -0.584326  -0.000202  2.095856  0.001
O  O248  1  0.77303985  0.41177971  0.41178315  1  -1.176237  0.000868  -0.328721  -0.58433  -0.000202  2.095818  0.001
O  O249  1  0.58821445  0.22695877  0.58821525  1  -1.176527  0.000873  -0.328659  -0.584253  -0.000199  2.096078  0.001
O  O250  1  0.22696061  0.58821878  0.58821598  1  -1.17625  0.000867  -0.328743  -0.584292  -0.000202  2.095765  0.001
O  O251  1  0.58821828  0.58822031  0.22696141  1  -1.176213  0.000868  -0.328745  -0.584331  -0.000202  2.095837  0.001
