# generated using pymatgen
data_ZnH10C10NO5
_symmetry_space_group_name_H-M   'P 1'
_cell_length_a   5.76169872
_cell_length_b   12.32351695
_cell_length_c   15.28800000
_cell_angle_alpha   90.00000000
_cell_angle_beta   100.11862394
_cell_angle_gamma   90.00000000
_symmetry_Int_Tables_number   1
_chemical_formula_structural   ZnH10C10NO5
_chemical_formula_sum   'Zn4 H40 C40 N4 O20'
_cell_volume   1068.63117535
_cell_formula_units_Z   4
loop_
 _symmetry_equiv_pos_site_id
 _symmetry_equiv_pos_as_xyz
  1  'x, y, z'
loop_
 _atom_site_type_symbol
 _atom_site_label
 _atom_site_symmetry_multiplicity
 _atom_site_fract_x
 _atom_site_fract_y
 _atom_site_fract_z
 _atom_site_occupancy
 _atom_site_hle17_bader_spin_density
 _atom_site_hle17_ddec_charge
 _atom_site_hle17_ddec_spin_density
 _atom_site_hle17_ddec_sum_bond_order
 _atom_site_hle17_magmom
 _atom_site_hse06_10hf_bader_spin_density
 _atom_site_hse06_10hf_ddec_charge
 _atom_site_hse06_10hf_ddec_spin_density
 _atom_site_hse06_10hf_ddec_sum_bond_order
 _atom_site_hse06_10hf_magmom
 _atom_site_hse06_bader_spin_density
 _atom_site_hse06_ddec_charge
 _atom_site_hse06_ddec_spin_density
 _atom_site_hse06_ddec_sum_bond_order
 _atom_site_hse06_magmom
 _atom_site_pbe_bader_charge
 _atom_site_pbe_bader_spin_density
 _atom_site_pbe_cm5_charge
 _atom_site_pbe_ddec_charge
 _atom_site_pbe_ddec_spin_density
 _atom_site_pbe_ddec_sum_bond_order
 _atom_site_pbe_magmom
Zn  Zn0  1  0.66180814  0.34080531  0.47030991  1  0  1.071671  0  1.792178  0  0  0.882276  0  2.261946  0  0  0.931629  0  2.202204  0  1.2747  0  0.690998  0.847706  0  2.303124  0
Zn  Zn1  1  0.33819504  0.34081992  0.02969187  1  0  1.071534  0  1.792357  0  0  0.882134  0  2.262128  0  0  0.931498  0  2.202397  0  1.274647  0  0.690894  0.847567  0  2.303306  0
Zn  Zn2  1  0.33821091  0.65918601  0.52969488  1  0  1.071545  0  1.792424  0  0  0.882153  0  2.262234  0  0  0.931515  0  2.202492  0  1.274816  0  0.690912  0.847589  0  2.303414  0
Zn  Zn3  1  0.66181342  0.65919088  0.97031026  1  0  1.071712  0  1.792147  0  0  0.882287  0  2.261897  0  0  0.931641  0  2.20216  0  1.274568  0  0.691009  0.847717  0  2.303076  0
H  H4  1  0.93090509  0.13575183  0.46927868  1  0  0.085564  0  0.958062  0  0  0.092479  0  1.024865  0  0  0.095312  0  1.021766  0  0.128776  0  0.118077  0.09023  0  1.027415  0
H  H5  1  0.06905577  0.13578023  0.03072423  1  0  0.08566  0  0.95763  0  0  0.092501  0  1.024558  0  0  0.095311  0  1.021471  0  0.147469  0  0.118127  0.090257  0  1.02711  0
H  H6  1  0.06909808  0.86422651  0.53072572  1  0  0.085647  0  0.957407  0  0  0.092456  0  1.024433  0  0  0.095271  0  1.021341  0  0.128486  0  0.118098  0.090206  0  1.026982  0
H  H7  1  0.93092625  0.86424192  0.96927354  1  0  0.085559  0  0.957895  0  0  0.092462  0  1.024735  0  0  0.095279  0  1.021645  0  0.14776  0  0.118145  0.090213  0  1.027283  0
H  H8  1  0.85699925  0.94946192  0.40031599  1  0  0.129823  0  0.962967  0  0  0.139428  0  1.022973  0  0  0.142935  0  1.021754  0  0.131494  0  0.111048  0.136883  0  1.024046  0
H  H9  1  0.14295104  0.94948545  0.09968359  1  0  0.129824  0  0.963035  0  0  0.139477  0  1.022993  0  0  0.142988  0  1.021769  0  0.131512  0  0.111046  0.136933  0  1.024066  0
H  H10  1  0.14299159  0.05052535  0.59968562  1  0  0.129771  0  0.96257  0  0  0.139398  0  1.022594  0  0  0.142905  0  1.021373  0  0.131792  0  0.110969  0.136855  0  1.023665  0
H  H11  1  0.85700454  0.05052616  0.90030522  1  0  0.129925  0  0.963018  0  0  0.139553  0  1.022982  0  0  0.143063  0  1.021758  0  0.131505  0  0.111068  0.137009  0  1.024055  0
H  H12  1  0.14740267  0.05398865  0.29886113  1  0  0.098587  0  0.969395  0  0  0.110032  0  1.03063  0  0  0.112812  0  1.030544  0  0.095185  0  0.105055  0.107984  0  1.031001  0
H  H13  1  0.85258288  0.05397323  0.20112313  1  0  0.098673  0  0.969206  0  0  0.110137  0  1.030422  0  0  0.112916  0  1.030339  0  0.095528  0  0.105108  0.108089  0  1.030794  0
H  H14  1  0.85261638  0.94601809  0.70113582  1  0  0.09862  0  0.969612  0  0  0.110103  0  1.030772  0  0  0.112883  0  1.030687  0  0.095061  0  0.105075  0.108055  0  1.031148  0
H  H15  1  0.14739032  0.94601322  0.79886489  1  0  0.098528  0  0.969341  0  0  0.109989  0  1.03056  0  0  0.112768  0  1.030477  0  0.095469  0  0.105041  0.107944  0  1.030933  0
H  H16  1  0.25032960  0.23539628  0.36527454  1  0  0.098135  0  0.961653  0  0  0.108434  0  1.021576  0  0  0.111232  0  1.018686  0  0.135091  0  0.121416  0.106189  0  1.02398  0
H  H17  1  0.74967005  0.23538005  0.13471654  1  0  0.098207  0  0.961838  0  0  0.108475  0  1.021769  0  0  0.111284  0  1.018865  0  0.134891  0  0.121425  0.106231  0  1.024172  0
H  H18  1  0.74970002  0.76460559  0.63472311  1  0  0.098008  0  0.961813  0  0  0.108337  0  1.021704  0  0  0.111123  0  1.018831  0  0.134997  0  0.121397  0.106097  0  1.024103  0
H  H19  1  0.25033841  0.76461127  0.86528297  1  0  0.09823  0  0.96189  0  0  0.108483  0  1.021828  0  0  0.111305  0  1.018908  0  0.134838  0  0.121455  0.106239  0  1.024231  0
H  H20  1  0.25473539  0.86967057  0.27629820  1  0  0.093742  0  0.941589  0  0  0.105442  0  1.010299  0  0  0.107465  0  1.008902  0  0.095307  0  0.096459  0.103877  0  1.011469  0
H  H21  1  0.74521137  0.86965840  0.22368349  1  0  0.093708  0  0.94168  0  0  0.105426  0  1.010368  0  0  0.107438  0  1.008975  0  0.095793  0  0.096462  0.103865  0  1.011538  0
H  H22  1  0.74524311  0.13033455  0.72369802  1  0  0.093849  0  0.941698  0  0  0.105527  0  1.010419  0  0  0.10755  0  1.009019  0  0.095531  0  0.096493  0.103962  0  1.011594  0
H  H23  1  0.25475302  0.13033698  0.77630002  1  0  0.093748  0  0.94158  0  0  0.105437  0  1.010341  0  0  0.107467  0  1.008943  0  0.095405  0  0.096447  0.103867  0  1.011518  0
H  H24  1  0.52319237  0.81408254  0.33492109  1  0  0.10188  0  0.921619  0  0  0.119443  0  0.979437  0  0  0.120582  0  0.979199  0  0.066338  0  0.103593  0.118525  0  0.979767  0
H  H25  1  0.47673500  0.81408254  0.16506586  1  0  0.101895  0  0.921591  0  0  0.119462  0  0.979375  0  0  0.120596  0  0.979124  0  0.066005  0  0.103588  0.118542  0  0.979718  0
H  H26  1  0.47678789  0.18591365  0.66506936  1  0  0.101919  0  0.921676  0  0  0.119465  0  0.979488  0  0  0.120602  0  0.979244  0  0.066025  0  0.103572  0.118549  0  0.979823  0
H  H27  1  0.52322234  0.18591446  0.83492503  1  0  0.101916  0  0.921674  0  0  0.119472  0  0.979491  0  0  0.120615  0  0.979248  0  0.066206  0  0.103587  0.118552  0  0.979822  0
H  H28  1  0.25525548  0.31391932  0.74473465  1  0  0.087636  0  0.937871  0  0  0.098599  0  0.996659  0  0  0.100505  0  0.99651  0  0.056636  0  0.104029  0.097179  0  0.997032  0
H  H29  1  0.74473183  0.31392824  0.75526804  1  0  0.08766  0  0.937936  0  0  0.098617  0  0.99669  0  0  0.100525  0  0.996544  0  0.056111  0  0.104027  0.097195  0  0.997061  0
H  H30  1  0.74473712  0.68608174  0.25527885  1  0  0.08756  0  0.937939  0  0  0.098462  0  0.996782  0  0  0.100368  0  0.996633  0  0.056297  0  0.103982  0.097045  0  0.997157  0
H  H31  1  0.25526429  0.68607769  0.24474439  1  0  0.087654  0  0.93793  0  0  0.098597  0  0.996711  0  0  0.10051  0  0.996572  0  0.056631  0  0.104056  0.097175  0  0.997083  0
H  H32  1  0.26532585  0.50294733  0.78717668  1  0  0.116338  0  0.915077  0  0  0.122977  0  0.978488  0  0  0.126488  0  0.976306  0  0.126615  0  0.111569  0.120424  0  0.980228  0
H  H33  1  0.73469672  0.50296275  0.71282115  1  0  0.116405  0  0.915022  0  0  0.123019  0  0.978474  0  0  0.126553  0  0.976261  0  0.1264  0  0.111552  0.120467  0  0.980212  0
H  H34  1  0.73467556  0.49705291  0.21282760  1  0  0.11636  0  0.915103  0  0  0.12302  0  0.978477  0  0  0.126544  0  0.976279  0  0.126689  0  0.111579  0.120466  0  0.980219  0
H  H35  1  0.26529412  0.49704399  0.28717393  1  0  0.116398  0  0.915173  0  0  0.123003  0  0.978622  0  0  0.126541  0  0.976402  0  0.126372  0  0.111532  0.12045  0  0.980362  0
H  H36  1  0.34410293  0.42993733  0.55330649  1  0  0.434085  0  0.864954  0  0  0.402206  0  0.929345  0  0  0.412561  0  0.914393  0  0.652827  0  0.297862  0.394877  0  0.93993  0
H  H37  1  0.65590907  0.42994545  0.94669522  1  0  0.434232  0  0.864748  0  0  0.402291  0  0.929271  0  0  0.41265  0  0.914305  0  0.652882  0  0.297873  0.394959  0  0.93986  0
H  H38  1  0.65591436  0.57005318  0.44669754  1  0  0.43416  0  0.864827  0  0  0.402213  0  0.929366  0  0  0.412573  0  0.914398  0  0.65293  0  0.297857  0.394882  0  0.939953  0
H  H39  1  0.34409058  0.57005886  0.05330305  1  0  0.434159  0  0.864842  0  0  0.402224  0  0.929351  0  0  0.412582  0  0.914389  0  0.6529  0  0.297876  0.394895  0  0.939936  0
H  H40  1  0.20685526  0.37743284  0.46242544  1  0  0.434802  0  0.864693  0  0  0.402617  0  0.93134  0  0  0.412717  0  0.916675  0  0.654212  0  0.298471  0.395483  0  0.941695  0
H  H41  1  0.79314263  0.37743771  0.03757730  1  0  0.434659  0  0.864888  0  0  0.402561  0  0.931417  0  0  0.412645  0  0.916767  0  0.654234  0  0.298446  0.395427  0  0.941772  0
H  H42  1  0.79316026  0.62256173  0.53757651  1  0  0.434713  0  0.864819  0  0  0.402547  0  0.931447  0  0  0.412646  0  0.916783  0  0.654104  0  0.298462  0.39541  0  0.941809  0
H  H43  1  0.20686055  0.62256660  0.96242186  1  0  0.434677  0  0.864858  0  0  0.40258  0  0.931383  0  0  0.412665  0  0.916732  0  0.654264  0  0.298469  0.395446  0  0.941739  0
C  C44  1  0.76183842  0.11336537  0.42948744  1  0  0.137944  0  3.708074  0  0  0.103914  0  3.960744  0  0  0.11236  0  3.978704  0  0.44634  0  0.048412  0.098515  0  3.948585  0
C  C45  1  0.23816299  0.11338565  0.07051422  1  0  0.137545  0  3.708637  0  0  0.103556  0  3.961422  0  0  0.112024  0  3.979372  0  0.42749  0  0.048141  0.098151  0  3.949264  0
C  C46  1  0.23820001  0.88663488  0.57052256  1  0  0.137914  0  3.708305  0  0  0.103897  0  3.961056  0  0  0.112359  0  3.979005  0  0.446357  0  0.04823  0.098499  0  3.948894  0
C  C47  1  0.76182432  0.88661622  0.92948520  1  0  0.137753  0  3.70834  0  0  0.103709  0  3.961041  0  0  0.112164  0  3.978995  0  0.427585  0  0.048216  0.098314  0  3.948873  0
C  C48  1  0.71850866  0.01085404  0.39243153  1  0  -0.181192  0  3.677647  0  0  -0.197678  0  3.920869  0  0  -0.207304  0  3.942757  0  -0.032566  0  -0.083792  -0.191361  0  3.906152  0
C  C49  1  0.28145221  0.01087027  0.10756221  1  0  -0.181143  0  3.67742  0  0  -0.197653  0  3.92059  0  0  -0.207278  0  3.942471  0  -0.032404  0  -0.083746  -0.191338  0  3.905868  0
C  C50  1  0.28151215  0.98911861  0.60756684  1  0  -0.181232  0  3.678176  0  0  -0.197681  0  3.921326  0  0  -0.207311  0  3.943225  0  -0.032669  0  -0.083659  -0.191359  0  3.906593  0
C  C51  1  0.71852276  0.98914783  0.89242658  1  0  -0.181303  0  3.676559  0  0  -0.197814  0  3.919813  0  0  -0.207437  0  3.94169  0  -0.03236  0  -0.083745  -0.19148  0  3.905117  0
C  C52  1  0.49552880  0.98684167  0.34304690  1  0  0.174844  0  3.704689  0  0  0.191942  0  3.936518  0  0  0.198345  0  3.958177  0  0.034439  0  0.020431  0.1878  0  3.92159  0
C  C53  1  0.50447085  0.98685465  0.15694680  1  0  0.175077  0  3.704514  0  0  0.192155  0  3.936374  0  0  0.198547  0  3.958025  0  0.035334  0  0.02051  0.188023  0  3.921438  0
C  C54  1  0.50447614  0.01315858  0.65695042  1  0  0.175002  0  3.704558  0  0  0.192067  0  3.936366  0  0  0.198472  0  3.958009  0  0.034515  0  0.02047  0.187928  0  3.921436  0
C  C55  1  0.49549178  0.01314154  0.84304314  1  0  0.175145  0  3.704483  0  0  0.192197  0  3.936404  0  0  0.198596  0  3.958063  0  0.034539  0  0.020414  0.187995  0  3.921557  0
C  C56  1  0.32441703  0.06858026  0.33543383  1  0  -0.17244  0  3.718092  0  0  -0.190794  0  3.962962  0  0  -0.200379  0  3.986219  0  -0.026394  0  -0.084422  -0.184554  0  3.947413  0
C  C57  1  0.67555441  0.06857296  0.16455276  1  0  -0.172611  0  3.718549  0  0  -0.19099  0  3.963452  0  0  -0.200573  0  3.98671  0  -0.026947  0  -0.08456  -0.18475  0  3.947902  0
C  C58  1  0.67561083  0.93141836  0.66456566  1  0  -0.172659  0  3.718224  0  0  -0.191053  0  3.963139  0  0  -0.200641  0  3.986391  0  -0.025282  0  -0.084589  -0.184812  0  3.94759  0
C  C59  1  0.32442761  0.93142891  0.83543715  1  0  -0.172538  0  3.718388  0  0  -0.190886  0  3.963277  0  0  -0.200471  0  3.986538  0  -0.026465  0  -0.084485  -0.184633  0  3.947755  0
C  C60  1  0.37976003  0.16980380  0.37295942  1  0  0.131309  0  3.689872  0  0  0.101576  0  3.931166  0  0  0.109576  0  3.949612  0  0.408707  0  0.047134  0.09647  0  3.918789  0
C  C61  1  0.62025902  0.16980137  0.12703687  1  0  0.131362  0  3.689777  0  0  0.101674  0  3.931027  0  0  0.109669  0  3.949462  0  0.408936  0  0.047255  0.096569  0  3.918657  0
C  C62  1  0.62028017  0.83019726  0.62704285  1  0  0.13164  0  3.68952  0  0  0.101872  0  3.930826  0  0  0.109884  0  3.949266  0  0.407313  0  0.047269  0.096761  0  3.918452  0
C  C63  1  0.37974063  0.83019239  0.87296271  1  0  0.131202  0  3.689409  0  0  0.101497  0  3.930644  0  0  0.109479  0  3.94908  0  0.409046  0  0.047153  0.096394  0  3.918271  0
C  C64  1  0.44595794  0.88221407  0.29327987  1  0  -0.16523  0  3.654275  0  0  -0.209729  0  3.906952  0  0  -0.211451  0  3.917336  0  -0.047552  0  -0.154433  -0.208262  0  3.899542  0
C  C65  1  0.55398529  0.88221244  0.20670616  1  0  -0.165383  0  3.654218  0  0  -0.209839  0  3.906813  0  0  -0.211547  0  3.917231  0  -0.073453  0  -0.154494  -0.208392  0  3.899419  0
C  C66  1  0.55403290  0.11778294  0.70670997  1  0  -0.16543  0  3.654529  0  0  -0.209831  0  3.907056  0  0  -0.211569  0  3.917517  0  -0.047268  0  -0.15442  -0.208381  0  3.899657  0
C  C67  1  0.44597733  0.11778618  0.79328574  1  0  -0.165301  0  3.653819  0  0  -0.209804  0  3.906483  0  0  -0.211531  0  3.916886  0  -0.073572  0  -0.154395  -0.208313  0  3.899079  0
C  C68  1  0.09692385  0.36101220  0.71910070  1  0  -0.127223  0  3.507345  0  0  -0.138084  0  3.746358  0  0  -0.142974  0  3.757433  0  -0.03816  0  -0.075866  -0.134716  0  3.738851  0
C  C69  1  0.90306875  0.36101626  0.78090103  1  0  -0.127336  0  3.507429  0  0  -0.138116  0  3.746413  0  0  -0.143016  0  3.7575  0  0.004518  0  -0.075833  -0.134738  0  3.738892  0
C  C70  1  0.90307228  0.63898967  0.28091369  1  0  -0.127009  0  3.507291  0  0  -0.137743  0  3.746124  0  0  -0.142632  0  3.757204  0  0.004883  0  -0.07576  -0.134392  0  3.738647  0
C  C71  1  0.09691856  0.63898804  0.21910951  1  0  -0.127333  0  3.507315  0  0  -0.138109  0  3.746245  0  0  -0.143024  0  3.757348  0  -0.038533  0  -0.075936  -0.134731  0  3.738732  0
C  C72  1  0.11724972  0.48602765  0.73279935  1  0  -0.141683  0  3.587173  0  0  -0.153058  0  3.825834  0  0  -0.158297  0  3.837024  0  0.011547  0  -0.087556  -0.149419  0  3.818111  0
C  C73  1  0.88276580  0.48602927  0.76720128  1  0  -0.141754  0  3.587141  0  0  -0.153162  0  3.825821  0  0  -0.158401  0  3.837003  0  -0.011403  0  -0.087544  -0.149527  0  3.8181  0
C  C74  1  0.88274994  0.51397747  0.26720481  1  0  -0.141745  0  3.587208  0  0  -0.153222  0  3.826051  0  0  -0.158462  0  3.837232  0  0.011335  0  -0.087545  -0.149582  0  3.81833  0
C  C75  1  0.11722151  0.51396854  0.23279879  1  0  -0.141811  0  3.587409  0  0  -0.153193  0  3.826118  0  0  -0.158434  0  3.837305  0  -0.011105  0  -0.087578  -0.149554  0  3.818394  0
C  C76  1  0.14736035  0.55790648  0.65618891  1  0  0.708208  0  3.810962  0  0  0.647266  0  4.12006  0  0  0.681948  0  4.110942  0  1.534975  0  0.217868  0.623642  0  4.125556  0
C  C77  1  0.85267985  0.55791703  0.84381009  1  0  0.708086  0  3.811191  0  0  0.647154  0  4.120299  0  0  0.681811  0  4.111201  0  1.534768  0  0.217751  0.623529  0  4.125803  0
C  C78  1  0.85266751  0.44208727  0.34381188  1  0  0.708264  0  3.811029  0  0  0.647295  0  4.120171  0  0  0.681961  0  4.11106  0  1.534607  0  0.217753  0.623673  0  4.125675  0
C  C79  1  0.14731628  0.44209782  0.15618927  1  0  0.708276  0  3.81084  0  0  0.647273  0  4.120019  0  0  0.681939  0  4.110921  0  1.534429  0  0.217921  0.62365  0  4.12552  0
C  C80  1  0.98450975  0.31835798  0.62861028  1  0  0.667313  0  3.893432  0  0  0.615476  0  4.198829  0  0  0.648947  0  4.19202  0  1.571981  0  0.202359  0.592662  0  4.202679  0
C  C81  1  0.01549167  0.31835311  0.87138746  1  0  0.667311  0  3.893656  0  0  0.615439  0  4.199084  0  0  0.648906  0  4.192283  0  1.572693  0  0.20232  0.592625  0  4.202934  0
C  C82  1  0.01550048  0.68164713  0.37139982  1  0  0.667073  0  3.894151  0  0  0.615306  0  4.199385  0  0  0.648773  0  4.19258  0  1.572379  0  0.202207  0.592495  0  4.203239  0
C  C83  1  0.98450622  0.68164470  0.12861593  1  0  0.667264  0  3.89293  0  0  0.615363  0  4.198415  0  0  0.648831  0  4.191616  0  1.571752  0  0.202351  0.592547  0  4.202262  0
N  N84  1  0.59614265  0.19205638  0.41929080  1  0  -0.348584  0  3.341828  0  0  -0.261023  0  3.623688  0  0  -0.282719  0  3.637675  0  -1.264521  0  -0.336653  -0.246434  0  3.613973  0
N  N85  1  0.40384289  0.19206124  0.08070458  1  0  -0.348477  0  3.342289  0  0  -0.260916  0  3.624115  0  0  -0.282615  0  3.638103  0  -1.264826  0  -0.33653  -0.246325  0  3.614397  0
N  N86  1  0.40387992  0.80793170  0.58071161  1  0  -0.348731  0  3.341175  0  0  -0.261136  0  3.623012  0  0  -0.28283  0  3.636981  0  -1.264059  0  -0.336589  -0.246545  0  3.613303  0
N  N87  1  0.59615323  0.80794550  0.91929412  1  0  -0.348464  0  3.342472  0  0  -0.260819  0  3.624202  0  0  -0.282514  0  3.638194  0  -1.26478  0  -0.336549  -0.246231  0  3.614484  0
O  O88  1  0.33370992  0.53999195  0.62062658  1  0  -0.674021  0  2.036211  0  0  -0.587971  0  2.290766  0  0  -0.617691  0  2.274789  0  -1.185246  0  -0.324498  -0.567369  0  2.301326  0
O  O89  1  0.66633028  0.54000088  0.87937503  1  0  -0.673973  0  2.036081  0  0  -0.587941  0  2.290687  0  0  -0.61763  0  2.274686  0  -1.184783  0  -0.324385  -0.567307  0  2.301193  0
O  O90  1  0.66631618  0.45999774  0.37937737  1  0  -0.674147  0  2.036045  0  0  -0.588086  0  2.290648  0  0  -0.617789  0  2.274665  0  -1.184767  0  -0.324485  -0.567452  0  2.301148  0
O  O91  1  0.33366584  0.46000342  0.12062497  1  0  -0.673919  0  2.036055  0  0  -0.587824  0  2.290655  0  0  -0.617537  0  2.274674  0  -1.185044  0  -0.324362  -0.567218  0  2.301203  0
O  O92  1  0.00816631  0.63479444  0.63081347  1  0  -0.641326  0  1.974178  0  0  -0.587014  0  2.210659  0  0  -0.611018  0  2.198307  0  -1.203971  0  -0.312964  -0.570161  0  2.218682  0
O  O93  1  0.99187741  0.63478957  0.86917987  1  0  -0.641306  0  1.974661  0  0  -0.587015  0  2.21116  0  0  -0.611019  0  2.198816  0  -1.204271  0  -0.312942  -0.57017  0  2.219186  0
O  O94  1  0.99184920  0.36520662  0.36918258  1  0  -0.641345  0  1.974564  0  0  -0.586995  0  2.211056  0  0  -0.610998  0  2.198707  0  -1.203981  0  -0.312879  -0.57015  0  2.219083  0
O  O95  1  0.00812048  0.36521393  0.13081829  1  0  -0.641432  0  1.974177  0  0  -0.587139  0  2.210721  0  0  -0.61114  0  2.198373  0  -1.204081  0  -0.313089  -0.570289  0  2.218743  0
O  O96  1  0.99475290  0.21959884  0.61187615  1  0  -0.624045  0  1.918302  0  0  -0.581039  0  2.150824  0  0  -0.603046  0  2.14149  0  -1.184264  0  -0.324389  -0.565439  0  2.156699  0
O  O97  1  0.00526967  0.21961750  0.88812757  1  0  -0.623901  0  1.919048  0  0  -0.580891  0  2.151608  0  0  -0.602886  0  2.142272  0  -1.184902  0  -0.324314  -0.565293  0  2.157479  0
O  O98  1  0.00526438  0.78038031  0.38815076  1  0  -0.623849  0  1.919294  0  0  -0.580865  0  2.151809  0  0  -0.602856  0  2.142457  0  -1.184472  0  -0.32422  -0.565265  0  2.157676  0
O  O99  1  0.99474937  0.78041520  0.11187984  1  0  -0.623995  0  1.917853  0  0  -0.580994  0  2.150436  0  0  -0.603002  0  2.141107  0  -1.184123  0  -0.324331  -0.565387  0  2.1563  0
O  O100  1  0.86891904  0.39073018  0.57626025  1  0  -0.663119  0  2.068666  0  0  -0.573601  0  2.334066  0  0  -0.603868  0  2.319124  0  -1.172494  0  -0.334477  -0.552472  0  2.343663  0
O  O101  1  0.13107180  0.39073830  0.92373875  1  0  -0.663122  0  2.068109  0  0  -0.57363  0  2.333565  0  0  -0.603913  0  2.318639  0  -1.172277  0  -0.334504  -0.552496  0  2.343158  0
O  O102  1  0.13110354  0.60925708  0.42374543  1  0  -0.663032  0  2.068412  0  0  -0.573597  0  2.333827  0  0  -0.603874  0  2.31889  0  -1.172779  0  -0.334466  -0.552465  0  2.343421  0
O  O103  1  0.86892609  0.60927575  0.07626399  1  0  -0.663107  0  2.068621  0  0  -0.573591  0  2.334124  0  0  -0.603859  0  2.319183  0  -1.172187  0  -0.334505  -0.552463  0  2.343722  0
O  O104  1  0.34809440  0.37012973  0.50984170  1  0  -0.832917  0  1.921102  0  0  -0.76398  0  2.138305  0  0  -0.78654  0  2.102685  0  -1.266937  0  -0.575712  -0.748136  0  2.162976  0
O  O105  1  0.65190701  0.37013784  0.99015669  1  0  -0.83293  0  1.921156  0  0  -0.763993  0  2.13819  0  0  -0.786539  0  2.102613  0  -1.267007  0  -0.575706  -0.748149  0  2.162864  0
O  O106  1  0.65191935  0.62985997  0.49016078  1  0  -0.832898  0  1.921133  0  0  -0.763941  0  2.138272  0  0  -0.786505  0  2.102656  0  -1.266869  0  -0.575726  -0.748096  0  2.162943  0
O  O107  1  0.34809793  0.62986565  0.00984194  1  0  -0.832909  0  1.921181  0  0  -0.763991  0  2.138242  0  0  -0.786534  0  2.102662  0  -1.267  0  -0.575744  -0.748147  0  2.162915  0
