# generated using pymatgen
data_FeH2(CO2)2
_symmetry_space_group_name_H-M   'P 1'
_cell_length_a   9.74506622
_cell_length_b   11.43306032
_cell_length_c   14.38389248
_cell_angle_alpha   91.20358013
_cell_angle_beta   89.99851202
_cell_angle_gamma   89.99716083
_symmetry_Int_Tables_number   1
_chemical_formula_structural   FeH2(CO2)2
_chemical_formula_sum   'Fe12 H24 C24 O48'
_cell_volume   1602.24117820
_cell_formula_units_Z   12
loop_
 _symmetry_equiv_pos_site_id
 _symmetry_equiv_pos_as_xyz
  1  'x, y, z'
loop_
 _atom_site_type_symbol
 _atom_site_label
 _atom_site_symmetry_multiplicity
 _atom_site_fract_x
 _atom_site_fract_y
 _atom_site_fract_z
 _atom_site_occupancy
 _atom_site_pbe_bader_charge
 _atom_site_pbe_bader_spin_density
 _atom_site_pbe_cm5_charge
 _atom_site_pbe_ddec_charge
 _atom_site_pbe_ddec_spin_density
 _atom_site_pbe_ddec_sum_bond_order
 _atom_site_pbe_magmom
Fe  Fe0  1  0.91889908  0.75063480  0.64132353  1  1.407281  3.619579  0.650173  0.929538  3.809451  2.535826  3.599
Fe  Fe1  1  0.41890351  0.74940251  0.85866998  1  1.407482  3.619551  0.650189  0.929604  3.809339  2.535672  3.599
Fe  Fe2  1  0.08110814  0.24935795  0.35868150  1  1.407226  3.619612  0.650132  0.929547  3.809488  2.535514  3.599
Fe  Fe3  1  0.58109755  0.25058939  0.14132530  1  1.407385  3.619469  0.650172  0.929544  3.809213  2.535692  3.599
Fe  Fe4  1  0.60680142  0.76271759  0.68949614  1  1.428912  3.647772  0.666652  0.944008  3.849387  2.566039  3.627
Fe  Fe5  1  0.10679914  0.73732194  0.81049807  1  1.428913  3.647776  0.666696  0.943788  3.849323  2.56628  3.627
Fe  Fe6  1  0.39320476  0.23730406  0.31049899  1  1.429259  3.647764  0.666643  0.943817  3.849397  2.566627  3.627
Fe  Fe7  1  0.89318037  0.26266296  0.18950265  1  1.428981  3.647783  0.666691  0.943907  3.849385  2.56605  3.627
Fe  Fe8  1  0.99997558  0.50001087  0.50000427  1  1.443732  3.660265  0.667873  0.968542  3.853771  2.471912  3.636
Fe  Fe9  1  0.50000584  0.00001361  0.00000278  1  1.44375  3.660113  0.66775  0.96856  3.853555  2.47099  3.636
Fe  Fe10  1  0.00001018  0.99999464  0.49999970  1  1.502969  3.719382  0.709662  1.03859  3.937022  2.513002  3.695
Fe  Fe11  1  0.50000798  0.50000099  0.00000264  1  1.502411  3.719391  0.709616  1.038663  3.93692  2.512167  3.695
H  H12  1  0.17472730  0.69059207  0.42518120  1  0.11596  0.008746  0.12234  0.034752  0.002657  0.970489  0.005
H  H13  1  0.67477027  0.80937154  0.07478549  1  0.116734  0.008749  0.122308  0.034555  0.002658  0.970419  0.005
H  H14  1  0.82525426  0.30939199  0.57480004  1  0.116305  0.008744  0.122318  0.034756  0.002656  0.970538  0.005
H  H15  1  0.32522463  0.19063258  0.92522114  1  0.11694  0.008745  0.122364  0.034642  0.002657  0.970521  0.005
H  H16  1  0.70217384  0.99691926  0.49705555  1  0.135228  0.008164  0.125277  0.040933  0.002678  0.976663  0.004
H  H17  1  0.20218021  0.50312013  0.00291272  1  0.136023  0.008155  0.125385  0.041039  0.002677  0.976663  0.004
H  H18  1  0.29785595  0.00309279  0.50292550  1  0.135438  0.008161  0.125351  0.040949  0.002678  0.976638  0.004
H  H19  1  0.79784856  0.49686649  0.99709290  1  0.136257  0.008152  0.125418  0.041048  0.002676  0.976673  0.004
H  H20  1  0.73988565  0.87026665  0.88092669  1  0.144986  0.006772  0.121633  0.039507  0.001752  1.028893  0.004
H  H21  1  0.23991116  0.62977758  0.61906246  1  0.144694  0.006773  0.121609  0.039436  0.001752  1.028718  0.004
H  H22  1  0.26012874  0.12975148  0.11907671  1  0.144933  0.006771  0.12161  0.039488  0.001752  1.028832  0.004
H  H23  1  0.76008272  0.37021258  0.38092653  1  0.144985  0.006772  0.12161  0.03948  0.001753  1.028687  0.004
H  H24  1  0.59407345  0.55675509  0.53960159  1  0.0754  0.008536  0.119848  0.034017  0.002609  0.986427  0.005
H  H25  1  0.09406602  0.94334102  0.96037231  1  0.075344  0.008533  0.119791  0.034162  0.002608  0.986181  0.005
H  H26  1  0.40589682  0.44327709  0.46037565  1  0.075667  0.008533  0.119852  0.034083  0.002608  0.986497  0.005
H  H27  1  0.90594940  0.05664911  0.03963337  1  0.07516  0.008533  0.119745  0.034012  0.002607  0.986183  0.005
H  H28  1  0.20542982  0.98723404  0.74545093  1  0.072418  0.008835  0.118922  0.031599  0.002505  0.968923  0.005
H  H29  1  0.70548495  0.51278539  0.75456411  1  0.071945  0.008836  0.118942  0.031509  0.002506  0.969118  0.005
H  H30  1  0.79456815  0.01278057  0.25456423  1  0.072493  0.008832  0.118921  0.0316  0.002504  0.969003  0.005
H  H31  1  0.29453458  0.48721786  0.24544111  1  0.072018  0.008837  0.118949  0.031455  0.002507  0.969072  0.005
H  H32  1  0.04724729  0.46015833  0.77750314  1  0.126469  0.009178  0.12511  0.042145  0.002901  0.947448  0.005
H  H33  1  0.54728259  0.03987404  0.72248624  1  0.12608  0.009174  0.125289  0.042261  0.0029  0.947524  0.005
H  H34  1  0.95271683  0.53981169  0.22249592  1  0.126529  0.009177  0.12514  0.042004  0.002901  0.94762  0.005
H  H35  1  0.45274618  0.96014408  0.27752412  1  0.126082  0.009177  0.125225  0.042336  0.002901  0.947367  0.005
C  C36  1  0.10818454  0.74508735  0.47049483  1  1.527043  -0.008202  0.170208  0.532934  -0.011425  4.107136  -0.005
C  C37  1  0.60821696  0.75487563  0.02948207  1  1.526291  -0.008169  0.170287  0.533341  -0.011391  4.107243  -0.005
C  C38  1  0.89180215  0.25490632  0.52948937  1  1.525846  -0.008187  0.17021  0.532875  -0.011413  4.107352  -0.005
C  C39  1  0.39176973  0.24512588  0.97052104  1  1.526858  -0.008187  0.170274  0.533307  -0.011405  4.106971  -0.005
C  C40  1  0.71828864  0.92760883  0.54812889  1  1.527544  0.004903  0.173769  0.523546  0.001995  4.1019  0.004
C  C41  1  0.21831400  0.57244506  0.95187542  1  1.526581  0.004902  0.17339  0.523123  0.001991  4.101867  0.004
C  C42  1  0.28171241  0.07240494  0.45186957  1  1.527303  0.004905  0.173699  0.523722  0.001995  4.101643  0.004
C  C43  1  0.78169527  0.42754769  0.04812891  1  1.526587  0.004902  0.17344  0.523252  0.00199  4.102129  0.004
C  C44  1  0.82364270  0.83457876  0.83743897  1  1.524295  0.002117  0.16521  0.520497  -0.000619  4.093637  0.002
C  C45  1  0.32364502  0.66547931  0.66255869  1  1.524215  0.002112  0.165196  0.520612  -0.000624  4.093695  0.002
C  C46  1  0.17636349  0.16542625  0.16256280  1  1.524507  0.002117  0.165185  0.5205  -0.000617  4.093649  0.002
C  C47  1  0.67634373  0.33450733  0.33744276  1  1.524305  0.002118  0.165256  0.520563  -0.00062  4.093832  0.002
C  C48  1  0.70542561  0.57264538  0.54747943  1  1.564764  -0.014274  0.167258  0.518037  -0.018196  4.127156  -0.01
C  C49  1  0.20541220  0.92739342  0.95248312  1  1.564072  -0.014266  0.167269  0.517784  -0.018189  4.127566  -0.01
C  C50  1  0.29455493  0.42736668  0.45249814  1  1.564116  -0.014268  0.167198  0.517905  -0.018192  4.127663  -0.01
C  C51  1  0.79460117  0.07258270  0.04752648  1  1.564042  -0.014269  0.167432  0.518386  -0.018192  4.127077  -0.01
C  C52  1  0.13515108  0.95585470  0.68986416  1  1.571218  -0.015567  0.165224  0.523259  -0.019801  4.131584  -0.011
C  C53  1  0.63517152  0.54417308  0.81013002  1  1.571976  -0.015553  0.165175  0.523592  -0.01978  4.13114  -0.011
C  C54  1  0.86486126  0.04413455  0.31014359  1  1.571244  -0.015577  0.16522  0.523306  -0.019811  4.131895  -0.011
C  C55  1  0.36483980  0.45582668  0.18987027  1  1.571536  -0.015541  0.165268  0.523769  -0.019764  4.131646  -0.011
C  C56  1  0.01568657  0.50679024  0.71436424  1  1.512106  -0.014927  0.163862  0.512275  -0.018774  4.142412  -0.01
C  C57  1  0.51568537  0.99324365  0.78561548  1  1.511283  -0.014922  0.16407  0.512842  -0.018769  4.142105  -0.01
C  C58  1  0.98430320  0.49319641  0.28563442  1  1.512275  -0.014903  0.163881  0.512559  -0.018747  4.142076  -0.01
C  C59  1  0.48431260  0.00677186  0.21438301  1  1.512315  -0.014916  0.163782  0.512122  -0.018764  4.1427  -0.01
O  O60  1  0.03128461  0.68876678  0.52754335  1  -1.187206  0.106517  -0.318041  -0.542311  0.052369  2.540613  0.079
O  O61  1  0.53130107  0.81122351  0.97246172  1  -1.186282  0.106483  -0.318119  -0.54248  0.052354  2.540422  0.079
O  O62  1  0.96871439  0.31124872  0.47246418  1  -1.186168  0.106505  -0.317981  -0.542159  0.052361  2.540545  0.079
O  O63  1  0.46867843  0.18878499  0.02754498  1  -1.186658  0.106498  -0.318199  -0.542515  0.05235  2.540682  0.079
O  O64  1  0.11394244  0.85386886  0.46337566  1  -1.168574  0.076082  -0.30275  -0.500118  0.035242  2.413637  0.059
O  O65  1  0.61398900  0.64611217  0.03663413  1  -1.169356  0.076018  -0.302731  -0.500225  0.035219  2.413807  0.059
O  O66  1  0.88606272  0.14612478  0.53662313  1  -1.168688  0.076068  -0.302731  -0.500108  0.035236  2.413668  0.059
O  O67  1  0.38600179  0.35390334  0.96336992  1  -1.17005  0.076058  -0.302718  -0.500281  0.035225  2.413258  0.059
O  O68  1  0.84313916  0.89518347  0.56125822  1  -1.178902  0.109505  -0.309408  -0.527155  0.053319  2.513967  0.081
O  O69  1  0.34317035  0.60482127  0.93873466  1  -1.178625  0.109488  -0.309093  -0.526837  0.053307  2.51402  0.081
O  O70  1  0.15685471  0.10481364  0.43875663  1  -1.178778  0.109501  -0.309325  -0.527258  0.053324  2.51421  0.081
O  O71  1  0.65683686  0.39517324  0.06126415  1  -1.178615  0.109478  -0.309196  -0.526983  0.053305  2.514023  0.081
O  O72  1  0.61464066  0.88779922  0.58876477  1  -1.164897  0.079349  -0.306612  -0.47906  0.036695  2.358306  0.056
O  O73  1  0.11465503  0.61224607  0.91123426  1  -1.164919  0.079339  -0.306705  -0.479029  0.036702  2.357765  0.056
O  O74  1  0.38536142  0.11222068  0.41122963  1  -1.164851  0.079354  -0.306723  -0.47918  0.036703  2.358059  0.056
O  O75  1  0.88535527  0.38774406  0.08876794  1  -1.165155  0.079337  -0.306674  -0.479016  0.036701  2.357971  0.056
O  O76  1  0.79776096  0.81827030  0.75016877  1  -1.204592  0.104108  -0.325088  -0.544571  0.050909  2.568797  0.078
O  O77  1  0.29778365  0.68176089  0.74983303  1  -1.204535  0.104096  -0.325009  -0.544473  0.050906  2.569268  0.078
O  O78  1  0.20223907  0.18172596  0.24983285  1  -1.205029  0.104144  -0.325077  -0.544581  0.050911  2.56881  0.078
O  O79  1  0.70221535  0.31822487  0.25016979  1  -1.20449  0.104095  -0.325141  -0.544532  0.050906  2.569346  0.078
O  O80  1  0.93636115  0.81363340  0.87588234  1  -1.170616  0.07125  -0.301115  -0.482425  0.0326  2.362506  0.054
O  O81  1  0.43636680  0.68641803  0.62410973  1  -1.170443  0.07125  -0.30112  -0.482565  0.032605  2.362276  0.054
O  O82  1  0.06364094  0.18636111  0.12411855  1  -1.170701  0.071242  -0.301115  -0.482471  0.0326  2.362432  0.054
O  O83  1  0.56361783  0.31359923  0.37589366  1  -1.170712  0.071272  -0.30104  -0.482442  0.032612  2.362406  0.054
O  O84  1  0.73919929  0.65192308  0.60774559  1  -1.206191  0.097335  -0.318507  -0.550371  0.047692  2.603888  0.081
O  O85  1  0.23919065  0.84812652  0.89220683  1  -1.206263  0.09734  -0.318329  -0.550025  0.047691  2.604117  0.081
O  O86  1  0.26079869  0.34809249  0.39222787  1  -1.206504  0.097348  -0.318467  -0.55025  0.047699  2.604097  0.081
O  O87  1  0.76080630  0.15183647  0.10780949  1  -1.206334  0.097348  -0.318483  -0.550433  0.047687  2.603786  0.081
O  O88  1  0.78755185  0.51303680  0.49858816  1  -1.170909  0.064992  -0.303947  -0.496896  0.030675  2.427963  0.049
O  O89  1  0.28755425  0.98694722  0.00140193  1  -1.169954  0.064944  -0.304071  -0.497086  0.030659  2.428239  0.048
O  O90  1  0.21240406  0.48694287  0.50139856  1  -1.169996  0.064954  -0.303956  -0.496946  0.030675  2.428348  0.049
O  O91  1  0.71247760  0.01302892  0.99859932  1  -1.169826  0.064934  -0.303963  -0.497219  0.030651  2.428371  0.048
O  O92  1  0.08874684  0.85089050  0.69851747  1  -1.206011  0.097575  -0.325361  -0.555965  0.048299  2.585096  0.077
O  O93  1  0.58875956  0.64914542  0.80148116  1  -1.206614  0.097576  -0.325484  -0.556335  0.048301  2.584714  0.077
O  O94  1  0.91125216  0.14910576  0.30148763  1  -1.205925  0.097592  -0.325307  -0.555921  0.048299  2.584994  0.077
O  O95  1  0.41123944  0.35085174  0.19850935  1  -1.206407  0.097605  -0.32547  -0.556343  0.048309  2.58499  0.077
O  O96  1  0.10795595  0.02277724  0.62483759  1  -1.170204  0.067785  -0.300757  -0.49308  0.030979  2.395267  0.056
O  O97  1  0.60798613  0.47724376  0.87514495  1  -1.169864  0.067741  -0.300559  -0.493064  0.030962  2.395028  0.056
O  O98  1  0.89206666  0.97721639  0.37516885  1  -1.170531  0.067791  -0.300803  -0.493174  0.03098  2.395689  0.056
O  O99  1  0.39204982  0.52275423  0.12486782  1  -1.169674  0.067737  -0.300651  -0.493072  0.030959  2.395325  0.056
O  O100  1  0.99410139  0.61729769  0.72547207  1  -1.209196  0.102996  -0.326339  -0.559001  0.050432  2.627802  0.085
O  O101  1  0.49408807  0.88274074  0.77451249  1  -1.208673  0.103023  -0.326682  -0.559497  0.050431  2.628074  0.085
O  O102  1  0.00589864  0.38269158  0.27452525  1  -1.209416  0.102982  -0.326405  -0.559233  0.050427  2.627741  0.085
O  O103  1  0.50591402  0.11727563  0.22549575  1  -1.208853  0.10303  -0.326425  -0.55906  0.050443  2.628116  0.085
O  O104  1  0.00392162  0.44991937  0.63920488  1  -1.169665  0.061173  -0.306308  -0.499498  0.028453  2.402527  0.046
O  O105  1  0.50394389  0.05011665  0.86077838  1  -1.169332  0.061152  -0.306375  -0.499786  0.028437  2.401786  0.046
O  O106  1  0.99603019  0.55008041  0.36079193  1  -1.169629  0.061175  -0.306295  -0.499452  0.028454  2.402028  0.046
O  O107  1  0.49607256  0.94991899  0.13922048  1  -1.1699  0.061142  -0.306318  -0.499503  0.028436  2.402471  0.046
