# generated using pymatgen
data_TbH6C5O8
_symmetry_space_group_name_H-M   'P 1'
_cell_length_a   9.53720760
_cell_length_b   9.53728007
_cell_length_c   13.77059029
_cell_angle_alpha   100.00337302
_cell_angle_beta   100.00558780
_cell_angle_gamma   119.78401129
_symmetry_Int_Tables_number   1
_chemical_formula_structural   TbH6C5O8
_chemical_formula_sum   'Tb4 H24 C20 O32'
_cell_volume   1019.82758638
_cell_formula_units_Z   4
loop_
 _symmetry_equiv_pos_site_id
 _symmetry_equiv_pos_as_xyz
  1  'x, y, z'
loop_
 _atom_site_type_symbol
 _atom_site_label
 _atom_site_symmetry_multiplicity
 _atom_site_fract_x
 _atom_site_fract_y
 _atom_site_fract_z
 _atom_site_occupancy
 _atom_site_hle17_bader_spin_density
 _atom_site_hle17_ddec_charge
 _atom_site_hle17_ddec_spin_density
 _atom_site_hle17_ddec_sum_bond_order
 _atom_site_hle17_magmom
 _atom_site_hse06_10hf_bader_spin_density
 _atom_site_hse06_10hf_ddec_charge
 _atom_site_hse06_10hf_ddec_spin_density
 _atom_site_hse06_10hf_ddec_sum_bond_order
 _atom_site_hse06_10hf_magmom
 _atom_site_hse06_bader_spin_density
 _atom_site_hse06_ddec_charge
 _atom_site_hse06_ddec_spin_density
 _atom_site_hse06_ddec_sum_bond_order
 _atom_site_hse06_magmom
 _atom_site_pbe_bader_spin_density
 _atom_site_pbe_cm5_charge
 _atom_site_pbe_ddec_charge
 _atom_site_pbe_ddec_spin_density
 _atom_site_pbe_ddec_sum_bond_order
 _atom_site_pbe_magmom
Tb  Tb0  1  0.74786538  0.99780481  0.99556709  1  0  2.297512  0  1.633417  0  0  2.146296  0  2.110116  0  0  2.268059  0  1.927112  0  0  1.500492  2.111252  0  2.141135  0
Tb  Tb1  1  0.50217492  0.75211072  0.50442274  1  0  2.297539  0  1.63329  0  0  2.146286  0  2.109998  0  0  2.268091  0  1.926968  0  0  1.500535  2.111245  0  2.141006  0
Tb  Tb2  1  0.25213444  0.00219840  0.00443559  1  0  2.297519  0  1.633224  0  0  2.146284  0  2.109904  0  0  2.268054  0  1.926909  0  0  1.500551  2.111244  0  2.140916  0
Tb  Tb3  1  0.49781334  0.24787216  0.49557551  1  0  2.297535  0  1.633223  0  0  2.146315  0  2.109899  0  0  2.268093  0  1.926892  0  0  1.500573  2.111282  0  2.140895  0
H  H4  1  0.90854814  0.47537656  0.06635942  1  0  0.132307  0  0.929828  0  0  0.138254  0  0.991737  0  0  0.143206  0  0.987961  0  0  0.11621  0.134776  0  0.994265  0
H  H5  1  0.90940217  0.84263931  0.43383607  1  0  0.133132  0  0.930013  0  0  0.138845  0  0.992056  0  0  0.143783  0  0.988288  0  0  0.116211  0.135362  0  0.994596  0
H  H6  1  0.02461445  0.59146208  0.43363057  1  0  0.132309  0  0.929821  0  0  0.138246  0  0.991739  0  0  0.1432  0  0.987956  0  0  0.116205  0.134769  0  0.994266  0
H  H7  1  0.65736473  0.59059402  0.06616637  1  0  0.133158  0  0.929987  0  0  0.138908  0  0.991974  0  0  0.143825  0  0.988231  0  0  0.116225  0.135426  0  0.994514  0
H  H8  1  0.09145976  0.52462576  0.93364628  1  0  0.132294  0  0.929962  0  0  0.138252  0  0.99185  0  0  0.143189  0  0.988093  0  0  0.116227  0.134777  0  0.994374  0
H  H9  1  0.09058754  0.15734851  0.56615856  1  0  0.133135  0  0.930083  0  0  0.138837  0  0.992128  0  0  0.143789  0  0.988344  0  0  0.11622  0.135357  0  0.99466  0
H  H10  1  0.97537522  0.40853192  0.56636260  1  0  0.132375  0  0.929737  0  0  0.138325  0  0.991645  0  0  0.143279  0  0.987863  0  0  0.116253  0.13485  0  0.994168  0
H  H11  1  0.34264622  0.40942229  0.93385294  1  0  0.133089  0  0.93013  0  0  0.138777  0  0.992204  0  0  0.143719  0  0.988435  0  0  0.116215  0.135297  0  0.99474  0
H  H12  1  0.98353294  0.25006875  0.21557406  1  0  0.431334  0  0.822203  0  0  0.416968  0  0.87042  0  0  0.425731  0  0.857713  0  0  0.328633  0.410936  0  0.879327  0
H  H13  1  0.53517152  0.76873009  0.28479541  1  0  0.431324  0  0.821566  0  0  0.416655  0  0.870907  0  0  0.425487  0  0.858087  0  0  0.328576  0.410579  0  0.879361  0
H  H14  1  0.25006210  0.51653880  0.28441039  1  0  0.431268  0  0.822249  0  0  0.41693  0  0.870469  0  0  0.42569  0  0.85777  0  0  0.328738  0.410901  0  0.879367  0
H  H15  1  0.73136451  0.96494700  0.21518453  1  0  0.431104  0  0.821901  0  0  0.416553  0  0.871042  0  0  0.425353  0  0.858272  0  0  0.328512  0.410495  0  0.879471  0
H  H16  1  0.01652592  0.75001611  0.78443702  1  0  0.431255  0  0.82209  0  0  0.416907  0  0.870458  0  0  0.425671  0  0.857751  0  0  0.328659  0.410876  0  0.879281  0
H  H17  1  0.46489655  0.23130886  0.71519396  1  0  0.431176  0  0.821941  0  0  0.416624  0  0.870972  0  0  0.425426  0  0.858199  0  0  0.328535  0.410557  0  0.879513  0
H  H18  1  0.75002375  0.48350969  0.71559088  1  0  0.431396  0  0.82209  0  0  0.417039  0  0.870332  0  0  0.425802  0  0.857627  0  0  0.328671  0.41101  0  0.879234  0
H  H19  1  0.26868361  0.03512969  0.78480764  1  0  0.431305  0  0.821627  0  0  0.41667  0  0.870879  0  0  0.425495  0  0.858071  0  0  0.328615  0.410595  0  0.879349  0
H  H20  1  0.09031493  0.19717164  0.15948087  1  0  0.43982  0  0.859564  0  0  0.406553  0  0.926603  0  0  0.419045  0  0.908357  0  0  0.299372  0.397863  0  0.93939  0
H  H21  1  0.53893335  0.93182120  0.34085818  1  0  0.439092  0  0.860416  0  0  0.405782  0  0.927454  0  0  0.418192  0  0.909347  0  0  0.299153  0.397132  0  0.940181  0
H  H22  1  0.30281243  0.40967756  0.34051662  1  0  0.439654  0  0.859784  0  0  0.406545  0  0.926606  0  0  0.419035  0  0.908352  0  0  0.299354  0.39785  0  0.939401  0
H  H23  1  0.56819291  0.96107520  0.15914121  1  0  0.439139  0  0.860335  0  0  0.405823  0  0.927379  0  0  0.418229  0  0.909277  0  0  0.299167  0.397177  0  0.940101  0
H  H24  1  0.90968088  0.80281540  0.84052673  1  0  0.439707  0  0.859708  0  0  0.406523  0  0.926629  0  0  0.419019  0  0.908376  0  0  0.299391  0.39783  0  0.939421  0
H  H25  1  0.46105051  0.06816145  0.65913663  1  0  0.439222  0  0.86019  0  0  0.405908  0  0.927257  0  0  0.418317  0  0.909149  0  0  0.299209  0.397257  0  0.939985  0
H  H26  1  0.69717521  0.59031029  0.65948359  1  0  0.439578  0  0.859885  0  0  0.406496  0  0.926658  0  0  0.41898  0  0.908408  0  0  0.299341  0.397803  0  0.939451  0
H  H27  1  0.43180247  0.03891535  0.84085513  1  0  0.439162  0  0.860311  0  0  0.405847  0  0.927338  0  0  0.418256  0  0.909234  0  0  0.299191  0.397201  0  0.940058  0
C  C28  1  0.64490328  0.29817390  0.06066839  1  0  0.754391  0  3.854113  0  0  0.715953  0  4.136096  0  0  0.752276  0  4.128491  0  0  0.227687  0.691559  0  4.14382  0
C  C29  1  0.73805873  0.58463297  0.43960393  1  0  0.753555  0  3.85752  0  0  0.715598  0  4.138942  0  0  0.751869  0  4.13147  0  0  0.228642  0.691241  0  4.146576  0
C  C30  1  0.20181806  0.85509788  0.43932104  1  0  0.754578  0  3.854344  0  0  0.716142  0  4.136302  0  0  0.752465  0  4.128686  0  0  0.227805  0.69175  0  4.144026  0
C  C31  1  0.91537063  0.76192870  0.06040069  1  0  0.753769  0  3.857393  0  0  0.715655  0  4.139015  0  0  0.751926  0  4.131539  0  0  0.228698  0.691299  0  4.14665  0
C  C32  1  0.35508902  0.70182911  0.93933848  1  0  0.754507  0  3.854641  0  0  0.716216  0  4.136386  0  0  0.752542  0  4.128764  0  0  0.227757  0.691822  0  4.144114  0
C  C33  1  0.26192947  0.41534363  0.56038995  1  0  0.753665  0  3.857132  0  0  0.715551  0  4.13877  0  0  0.751821  0  4.131304  0  0  0.228631  0.691195  0  4.146405  0
C  C34  1  0.79816928  0.14489980  0.56067519  1  0  0.754657  0  3.854237  0  0  0.716286  0  4.136102  0  0  0.752615  0  4.12848  0  0  0.227898  0.691889  0  4.143831  0
C  C35  1  0.08464163  0.23806759  0.93960554  1  0  0.75352  0  3.857393  0  0  0.715463  0  4.138982  0  0  0.751735  0  4.131513  0  0  0.228559  0.691106  0  4.146617  0
C  C36  1  0.79047682  0.46697006  0.06744528  1  0  -0.156804  0  3.618913  0  0  -0.17563  0  3.866544  0  0  -0.181017  0  3.878801  0  0  -0.07245  -0.171562  0  3.856843  0
C  C37  1  0.89993954  0.72346904  0.43265566  1  0  -0.157849  0  3.619903  0  0  -0.176644  0  3.867336  0  0  -0.182003  0  3.879614  0  0  -0.072144  -0.172574  0  3.857609  0
C  C38  1  0.03302963  0.70952765  0.43254805  1  0  -0.156755  0  3.618902  0  0  -0.175558  0  3.86655  0  0  -0.18094  0  3.878803  0  0  -0.072434  -0.171497  0  3.856855  0
C  C39  1  0.77653860  0.60006133  0.06734038  1  0  -0.157824  0  3.62019  0  0  -0.176569  0  3.867584  0  0  -0.181911  0  3.879879  0  0  -0.072072  -0.172501  0  3.857858  0
C  C40  1  0.20952612  0.53304948  0.93256330  1  0  -0.156949  0  3.619027  0  0  -0.175814  0  3.866652  0  0  -0.181194  0  3.878921  0  0  -0.072528  -0.171746  0  3.856958  0
C  C41  1  0.10005511  0.27652015  0.56733608  1  0  -0.157727  0  3.619692  0  0  -0.176452  0  3.867181  0  0  -0.181825  0  3.879457  0  0  -0.072049  -0.172385  0  3.857457  0
C  C42  1  0.96695533  0.29046127  0.56744834  1  0  -0.156969  0  3.618696  0  0  -0.175821  0  3.866371  0  0  -0.181209  0  3.878629  0  0  -0.072567  -0.171757  0  3.856678  0
C  C43  1  0.22347024  0.39995103  0.93267023  1  0  -0.157543  0  3.619834  0  0  -0.176296  0  3.8673  0  0  -0.181657  0  3.87958  0  0  -0.072049  -0.172229  0  3.857573  0
C  C44  1  0.67181090  0.82814989  0.74999386  1  0  0.587944  0  3.872326  0  0  0.541232  0  4.165741  0  0  0.572101  0  4.161226  0  0  0.23665  0.520135  0  4.172333  0
C  C45  1  0.57822365  0.92171712  0.74999764  1  0  0.590319  0  3.869037  0  0  0.542963  0  4.163421  0  0  0.57397  0  4.158727  0  0  0.237124  0.521791  0  4.170095  0
C  C46  1  0.32818982  0.17185711  0.25001082  1  0  0.587715  0  3.872411  0  0  0.541066  0  4.165743  0  0  0.571896  0  4.161291  0  0  0.236571  0.519971  0  4.172334  0
C  C47  1  0.42176824  0.07827700  0.24999798  1  0  0.590569  0  3.869065  0  0  0.543125  0  4.163556  0  0  0.574155  0  4.158844  0  0  0.237104  0.521952  0  4.170234  0
O  O48  1  0.66920123  0.17675657  0.04949171  1  0  -0.7855  0  2.077632  0  0  -0.732441  0  2.339143  0  0  -0.771916  0  2.32335  0  0  -0.430926  -0.713977  0  2.34791  0
O  O49  1  0.62765519  0.61987948  0.45070155  1  0  -0.784638  0  2.079449  0  0  -0.73168  0  2.340766  0  0  -0.771163  0  2.325046  0  0  -0.430909  -0.713244  0  2.349526  0
O  O50  1  0.32322897  0.83079635  0.45049545  1  0  -0.785529  0  2.077722  0  0  -0.732443  0  2.339195  0  0  -0.771952  0  2.323448  0  0  -0.430907  -0.713969  0  2.347933  0
O  O51  1  0.88010690  0.87231897  0.04927230  1  0  -0.784695  0  2.079177  0  0  -0.73171  0  2.340548  0  0  -0.771179  0  2.324829  0  0  -0.43099  -0.713271  0  2.349307  0
O  O52  1  0.33080298  0.82323445  0.95051297  1  0  -0.785465  0  2.078181  0  0  -0.732451  0  2.339616  0  0  -0.771922  0  2.323812  0  0  -0.430889  -0.713991  0  2.348384  0
O  O53  1  0.37233531  0.38010975  0.54930060  1  0  -0.784589  0  2.079447  0  0  -0.731592  0  2.340848  0  0  -0.771064  0  2.325136  0  0  -0.430871  -0.713159  0  2.34961  0
O  O54  1  0.67676225  0.16920043  0.54951130  1  0  -0.785526  0  2.077829  0  0  -0.732477  0  2.339299  0  0  -0.771956  0  2.323506  0  0  -0.430967  -0.714008  0  2.348049  0
O  O55  1  0.11989132  0.12767522  0.95071390  1  0  -0.784441  0  2.079612  0  0  -0.731457  0  2.340955  0  0  -0.770923  0  2.325236  0  0  -0.430839  -0.713022  0  2.349714  0
O  O56  1  0.50384842  0.27818986  0.06302675  1  0  -0.712101  0  1.976153  0  0  -0.667197  0  2.214789  0  0  -0.701917  0  2.201128  0  0  -0.385498  -0.649341  0  2.221283  0
O  O57  1  0.71594006  0.44135471  0.43739026  1  0  -0.711633  0  1.976557  0  0  -0.666938  0  2.214918  0  0  -0.701637  0  2.201326  0  0  -0.386239  -0.649109  0  2.221385  0
O  O58  1  0.22182009  0.99615411  0.43696998  1  0  -0.712233  0  1.976301  0  0  -0.667329  0  2.214946  0  0  -0.702045  0  2.201275  0  0  -0.385574  -0.649477  0  2.221441  0
O  O59  1  0.05866498  0.78407287  0.06263410  1  0  -0.711718  0  1.976503  0  0  -0.666987  0  2.214945  0  0  -0.701684  0  2.201351  0  0  -0.386229  -0.649156  0  2.221412  0
O  O60  1  0.49615664  0.72181731  0.93697846  1  0  -0.7122  0  1.97605  0  0  -0.667331  0  2.214579  0  0  -0.702053  0  2.200914  0  0  -0.385523  -0.649471  0  2.221072  0
O  O61  1  0.28405467  0.55864078  0.56260657  1  0  -0.711721  0  1.976111  0  0  -0.666961  0  2.21454  0  0  -0.701668  0  2.200951  0  0  -0.386269  -0.649129  0  2.221002  0
O  O62  1  0.77816679  0.00382616  0.56302344  1  0  -0.712322  0  1.976004  0  0  -0.667428  0  2.214603  0  0  -0.70216  0  2.200934  0  0  -0.3856  -0.649572  0  2.221099  0
O  O63  1  0.94132526  0.21592003  0.93736627  1  0  -0.711842  0  1.976017  0  0  -0.667116  0  2.214405  0  0  -0.701814  0  2.200808  0  0  -0.386262  -0.649282  0  2.220871  0
O  O64  1  0.75660821  0.84310265  0.83707798  1  0  -0.649715  0  2.12377  0  0  -0.593908  0  2.357396  0  0  -0.626796  0  2.345623  0  0  -0.334732  -0.576471  0  2.363557  0
O  O65  1  0.50544014  0.91875545  0.66286246  1  0  -0.650263  0  2.122188  0  0  -0.594389  0  2.356233  0  0  -0.627274  0  2.344395  0  0  -0.335004  -0.576958  0  2.362419  0
O  O66  1  0.65687889  0.74337664  0.66292236  1  0  -0.649511  0  2.124201  0  0  -0.593702  0  2.357793  0  0  -0.626589  0  2.346017  0  0  -0.334651  -0.576268  0  2.363954  0
O  O67  1  0.58118724  0.99449852  0.83712322  1  0  -0.650316  0  2.122326  0  0  -0.594448  0  2.356368  0  0  -0.627321  0  2.344523  0  0  -0.334938  -0.57702  0  2.362557  0
O  O68  1  0.24339500  0.15690310  0.16292104  1  0  -0.649671  0  2.123525  0  0  -0.593821  0  2.357095  0  0  -0.6267  0  2.345347  0  0  -0.334691  -0.576385  0  2.363252  0
O  O69  1  0.49454678  0.08123728  0.33713459  1  0  -0.650353  0  2.122131  0  0  -0.594472  0  2.356213  0  0  -0.627356  0  2.34436  0  0  -0.334987  -0.57704  0  2.362401  0
O  O70  1  0.34311527  0.25661766  0.33707863  1  0  -0.649457  0  2.124443  0  0  -0.593665  0  2.35802  0  0  -0.626534  0  2.346263  0  0  -0.334624  -0.576234  0  2.364183  0
O  O71  1  0.41881471  0.00550474  0.16287754  1  0  -0.650353  0  2.122422  0  0  -0.594459  0  2.356505  0  0  -0.627336  0  2.344654  0  0  -0.33492  -0.577031  0  2.362695  0
O  O72  1  0.99616533  0.21793784  0.14829177  1  0  -0.897021  0  1.850298  0  0  -0.852783  0  2.032489  0  0  -0.879175  0  1.994225  0  0  -0.617287  -0.839923  0  2.054778  0
O  O73  1  0.57130710  0.84913690  0.35203192  1  0  -0.896311  0  1.850412  0  0  -0.851662  0  2.033318  0  0  -0.878087  0  1.9952  0  0  -0.616948  -0.83878  0  2.055037  0
O  O74  1  0.28199624  0.50380061  0.35168995  1  0  -0.896761  0  1.850407  0  0  -0.852674  0  2.032418  0  0  -0.879055  0  1.994173  0  0  -0.617306  -0.839815  0  2.054712  0
O  O75  1  0.65084097  0.92864634  0.14796406  1  0  -0.896097  0  1.850652  0  0  -0.851551  0  2.033385  0  0  -0.877937  0  1.99533  0  0  -0.616833  -0.83869  0  2.055061  0
O  O76  1  0.00382159  0.78202778  0.85171447  1  0  -0.896804  0  1.850273  0  0  -0.85264  0  2.032488  0  0  -0.879036  0  1.994228  0  0  -0.617295  -0.839779  0  2.054697  0
O  O77  1  0.42864988  0.15083486  0.64796284  1  0  -0.896255  0  1.850508  0  0  -0.851734  0  2.033119  0  0  -0.878123  0  1.995057  0  0  -0.616932  -0.838864  0  2.054915  0
O  O78  1  0.71796706  0.49617513  0.64830673  1  0  -0.89682  0  1.850396  0  0  -0.852749  0  2.032412  0  0  -0.879126  0  1.994182  0  0  -0.61724  -0.839893  0  2.054701  0
O  O79  1  0.34914061  0.07132144  0.85203529  1  0  -0.896349  0  1.850426  0  0  -0.851715  0  2.033323  0  0  -0.878133  0  1.995211  0  0  -0.616989  -0.838832  0  2.055056  0
