# generated using pymatgen
data_Zn8H36C61O27
_symmetry_space_group_name_H-M   'P 1'
_cell_length_a   18.40700964
_cell_length_b   18.48435878
_cell_length_c   18.45918163
_cell_angle_alpha   119.93767278
_cell_angle_beta   119.81258340
_cell_angle_gamma   90.40074178
_symmetry_Int_Tables_number   1
_chemical_formula_structural   Zn8H36C61O27
_chemical_formula_sum   'Zn8 H36 C61 O27'
_cell_volume   4442.15090164
_cell_formula_units_Z   1
loop_
 _symmetry_equiv_pos_site_id
 _symmetry_equiv_pos_as_xyz
  1  'x, y, z'
loop_
 _atom_site_type_symbol
 _atom_site_label
 _atom_site_symmetry_multiplicity
 _atom_site_fract_x
 _atom_site_fract_y
 _atom_site_fract_z
 _atom_site_occupancy
 _atom_site_pbe_bader_charge
 _atom_site_pbe_bader_spin_density
 _atom_site_pbe_cm5_charge
 _atom_site_pbe_ddec_charge
 _atom_site_pbe_ddec_spin_density
 _atom_site_pbe_ddec_sum_bond_order
 _atom_site_pbe_magmom
Zn  Zn0  1  0.53886252  0.45490760  0.58838228  1  1.308635  0  0.66951  0.959639  0  2.368574  0
Zn  Zn1  1  0.54700389  0.45861377  0.42040307  1  1.306587  0  0.668028  0.953127  0  2.38778  0
Zn  Zn2  1  0.54234889  0.62987787  0.58805929  1  1.298128  0  0.670856  0.961994  0  2.383496  0
Zn  Zn3  1  0.36894625  0.45637133  0.41391736  1  1.299423  0  0.665871  0.948747  0  2.398072  0
Zn  Zn4  1  0.95906912  0.04740881  0.41607176  1  1.319293  0  0.667663  0.959323  0  2.372804  0
Zn  Zn5  1  0.95835420  0.87332839  0.41574462  1  1.289014  0  0.667506  0.947851  0  2.396494  0
Zn  Zn6  1  0.96044302  0.04625186  0.59061343  1  1.302641  0  0.670121  0.957075  0  2.385782  0
Zn  Zn7  1  0.13303711  0.04549944  0.58832428  1  1.305448  0  0.668717  0.959148  0  2.387669  0
H  H8  1  0.15148823  0.32453635  0.54574001  1  0.046372  0  0.098067  0.08253  0  0.995621  0
H  H9  1  0.12524788  0.53131075  0.28144915  1  0.050331  0  0.097899  0.107433  0  0.983315  0
H  H10  1  0.41919416  0.29734601  0.09836412  1  0.081671  0  0.105698  0.112221  0  0.995214  0
H  H11  1  0.14918587  0.28019186  0.37289254  1  0.046964  0  0.099053  0.087563  0  0.993048  0
H  H12  1  0.32320529  0.20285661  0.90787617  1  0.095047  0  0.106421  0.113391  0  0.99474  0
H  H13  1  0.03720484  0.25292098  0.90749858  1  0.049061  0  0.099496  0.110561  0  0.978668  0
H  H14  1  0.03549409  0.15654280  0.90747672  1  0.068883  0  0.100022  0.111808  0  0.978045  0
H  H15  1  0.13485767  0.35001559  0.10095812  1  0.066365  0  0.097571  0.106473  0  0.984381  0
H  H16  1  0.13307938  0.25363203  0.10091695  1  0.043852  0  0.098969  0.109243  0  0.978662  0
H  H17  1  0.65852861  0.81267146  0.56627936  1  0.087247  0  0.108755  0.116176  0  0.990666  0
H  H18  1  0.75463399  0.90843119  0.56709583  1  0.096686  0  0.109184  0.117275  0  0.9916  0
H  H19  1  0.75213277  0.63150084  0.10119638  1  0.056527  0  0.097867  0.10749  0  0.982713  0
H  H20  1  0.81134950  0.62494011  0.33788561  1  0.038625  0  0.097899  0.107712  0  0.983351  0
H  H21  1  0.90109409  0.66034094  0.46304541  1  0.040602  0  0.096515  0.104734  0  0.983683  0
H  H22  1  0.71369540  0.52736766  0.33720547  1  0.038195  0  0.098177  0.109022  0  0.980707  0
H  H23  1  0.15355130  0.11041622  0.33091711  1  0.088657  0  0.101315  0.087164  0  0.989992  0
H  H24  1  0.80356903  0.56330394  0.46252375  1  0.042429  0  0.09596  0.103318  0  0.99016  0
H  H25  1  0.63707556  0.23092867  0.53774305  1  0.137258  0  0.11323  0.123065  0  0.995244  0
H  H26  1  0.92834038  0.33302106  0.51905185  1  0.031637  0  0.098157  0.105627  0  0.984317  0
H  H27  1  0.84671402  0.25292173  0.38509180  1  0.058266  0  0.101521  0.114247  0  0.976324  0
H  H28  1  0.83323346  0.43018007  0.52186566  1  0.060419  0  0.099776  0.1087  0  0.980515  0
H  H29  1  0.75124379  0.35065922  0.38808668  1  0.076575  0  0.102459  0.11534  0  0.976525  0
H  H30  1  0.75376178  0.53329209  0.90915377  1  0.061105  0  0.099451  0.110575  0  0.978754  0
H  H31  1  0.34305233  0.17971031  0.45406267  1  0.074461  0  0.103371  0.089971  0  0.986999  0
H  H32  1  0.34561966  0.22357650  0.62662404  1  0.061033  0  0.101508  0.090856  0  0.989277  0
H  H33  1  0.34136930  0.39379247  0.66931589  1  0.06361  0  0.100311  0.086831  0  0.990816  0
H  H34  1  0.70469789  0.81690677  0.90474070  1  0.09296  0  0.106946  0.11454  0  0.994223  0
H  H35  1  0.79754847  0.91415647  0.09508748  1  0.082341  0  0.106521  0.113594  0  0.995929  0
H  H36  1  0.84959309  0.63307474  0.10254778  1  0.053949  0  0.097145  0.10527  0  0.986383  0
H  H37  1  0.74448741  0.05908209  0.50610305  1  0.0665  0  0.099845  0.043045  0  0.984675  0
H  H38  1  0.65638144  0.53298725  0.90784479  1  0.061752  0  0.099606  0.110887  0  0.977723  0
H  H39  1  0.41285959  0.81689824  0.61663787  1  0.094231  0  0.107424  0.115089  0  0.993443  0
H  H40  1  0.31897508  0.91288939  0.61472145  1  0.098526  0  0.107598  0.115017  0  0.993305  0
H  H41  1  0.02893486  0.62957476  0.37773984  1  0.049791  0  0.096747  0.105667  0  0.987045  0
H  H42  1  0.02924425  0.62828513  0.28074016  1  0.047325  0  0.097127  0.106746  0  0.985659  0
H  H43  1  0.12366375  0.53134615  0.37717021  1  0.06571  0  0.097308  0.106739  0  0.981881  0
C  C44  1  0.36729776  0.36253321  0.22745671  1  1.575691  0  0.227532  0.608409  0  4.177534  0
C  C45  1  0.77756291  0.84224917  0.05416734  1  0.027306  0  -0.083781  -0.099482  0  3.986202  0
C  C46  1  0.80566049  0.80674546  0.11205541  1  -0.03958  0  -0.014791  -0.080735  0  3.979666  0
C  C47  1  0.64233344  0.63699940  0.77773478  1  1.616265  0  0.227219  0.609071  0  4.17597  0
C  C48  1  0.77836301  0.71445664  0.05646478  1  -0.009738  0  -0.003223  0.062586  0  3.881728  0
C  C49  1  0.78264241  0.63710965  0.06520444  1  -0.015932  0  -0.151454  -0.197597  0  3.889636  0
C  C50  1  0.72295493  0.57507199  0.94407078  1  -0.049838  0  -0.150633  -0.201814  0  3.883639  0
C  C51  1  0.21004958  0.65835834  0.43537869  1  -0.013538  0  -0.003453  0.06149  0  3.881561  0
C  C52  1  0.30273414  0.69359910  0.50046178  1  0.017716  0  -0.013129  -0.07706  0  3.976201  0
C  C53  1  0.34059030  0.78711729  0.56511412  1  -0.008557  0  -0.082701  -0.098877  0  3.980858  0
C  C54  1  0.28800031  0.84092818  0.56405863  1  -0.087649  0  -0.083036  -0.09845  0  3.981825  0
C  C55  1  0.19575518  0.17409522  0.40593002  1  -0.05597  0  -0.069722  -0.060542  0  3.62265  0
C  C56  1  0.19415309  0.80470343  0.49842042  1  0.013098  0  -0.014398  -0.0803  0  3.982794  0
C  C57  1  0.15730214  0.71235081  0.43455825  1  -0.026454  0  -0.003024  0.064199  0  3.882065  0
C  C58  1  0.07087014  0.63425902  0.35279038  1  -0.033012  0  -0.151681  -0.200625  0  3.889844  0
C  C59  1  0.63630849  0.36155609  0.50596373  1  1.530548  0  0.229063  0.612992  0  4.174674  0
C  C60  1  0.13057825  0.57313271  0.35312969  1  -0.008903  0  -0.150691  -0.197639  0  3.885718  0
C  C61  1  0.21773942  0.27875338  0.05715728  1  -0.106667  0  -0.002984  0.063417  0  3.881725  0
C  C62  1  0.31035017  0.30608319  0.11358650  1  0.027315  0  -0.013682  -0.078692  0  3.980085  0
C  C63  1  0.34698932  0.27709954  0.05665800  1  -0.063613  0  -0.084419  -0.100511  0  3.985554  0
C  C64  1  0.29319083  0.22404275  0.94991581  1  -0.050164  0  -0.083699  -0.099135  0  3.982515  0
C  C65  1  0.19933977  0.19604817  0.89332379  1  0.081484  0  -0.013922  -0.080394  0  3.980664  0
C  C66  1  0.29997865  0.21119767  0.47462554  1  -0.023608  0  -0.067898  -0.058132  0  3.617098  0
C  C67  1  0.16377121  0.22502243  0.95016639  1  0.064425  0  -0.002252  0.065373  0  3.879967  0
C  C68  1  0.07822377  0.22253128  0.94348061  1  0.004602  0  -0.150764  -0.202145  0  3.884687  0
C  C69  1  0.13936227  0.28334877  0.06464043  1  -0.072753  0  -0.150772  -0.198035  0  3.885477  0
C  C70  1  0.74158374  0.66497297  0.45935652  1  -0.040121  0  -0.00386  0.061594  0  3.882306  0
C  C71  1  0.35973326  0.63698900  0.50265324  1  1.542561  0  0.226926  0.60612  0  4.179946  0
C  C72  1  0.69102110  0.69639477  0.49732058  1  -0.021952  0  -0.012666  -0.07624  0  3.9772  0
C  C73  1  0.69728698  0.78587359  0.53620218  1  -0.055226  0  -0.081902  -0.098372  0  3.978427  0
C  C74  1  0.75129913  0.83965530  0.53673208  1  0.010134  0  -0.08159  -0.096525  0  3.975707  0
C  C75  1  0.80255187  0.80732773  0.49848619  1  0.043246  0  -0.014508  -0.08173  0  3.983577  0
C  C76  1  0.79575487  0.71884166  0.45994714  1  -0.031279  0  -0.003205  0.063052  0  3.883826  0
C  C77  1  0.30248946  0.23678540  0.57070590  1  -0.015057  0  -0.076279  -0.065633  0  3.640706  0
C  C78  1  0.82926451  0.64638571  0.41361379  1  0.015732  0  -0.151992  -0.199542  0  3.887168  0
C  C79  1  0.76804299  0.58539530  0.41313190  1  -0.014106  0  -0.151525  -0.199036  0  3.886129  0
C  C80  1  0.75489270  0.30983992  0.48370321  1  -0.021749  0  0.007292  0.081023  0  3.865943  0
C  C81  1  0.69290991  0.30436818  0.50494599  1  0.069412  0  -0.011116  -0.080487  0  3.982446  0
C  C82  1  0.68548191  0.24005706  0.52271308  1  -0.030558  0  -0.062934  -0.095676  0  3.899272  0
C  C83  1  0.63440829  0.63950410  0.49828450  1  1.566584  0  0.226649  0.607175  0  4.179562  0
C  C84  1  0.73685890  0.18418430  0.51939220  1  -0.028674  0  -0.015108  -0.00869  0  3.968168  0
C  C85  1  0.80113059  0.19199070  0.49977127  1  -0.060006  0  -0.001039  -0.094028  0  3.934869  0
C  C86  1  0.80729817  0.25553366  0.48163589  1  0.00037  0  -0.004259  0.05667  0  3.894729  0
C  C87  1  0.85663854  0.29784120  0.45904455  1  -0.009601  0  -0.149876  -0.198483  0  3.877621  0
C  C88  1  0.29905643  0.33020788  0.59424615  1  0.005068  0  -0.072336  -0.063458  0  3.629389  0
C  C89  1  0.79692427  0.35893829  0.46089524  1  -0.046696  0  -0.148244  -0.201806  0  3.876992  0
C  C90  1  0.13862877  0.86270732  0.49883317  1  1.551151  0  0.226726  0.607563  0  4.179189  0
C  C91  1  0.86278650  0.13965585  0.50292264  1  1.596772  0  0.227893  0.607055  0  4.184668  0
C  C92  1  0.86160520  0.86504594  0.22592069  1  1.499338  0  0.227398  0.609918  0  4.171638  0
C  C93  1  0.14233938  0.13886731  0.77943066  1  1.496962  0  0.227324  0.608391  0  4.175825  0
C  C94  1  0.86098619  0.86514800  0.50040035  1  1.540186  0  0.227287  0.610413  0  4.172486  0
C  C95  1  0.35404611  0.36266104  0.49881415  1  1.541931  0  0.226149  0.60836  0  4.178071  0
C  C96  1  0.14174845  0.14211667  0.50285170  1  1.523639  0  0.226893  0.609456  0  4.172257  0
C  C97  1  0.19230642  0.26745491  0.42932454  1  -0.019954  0  -0.078486  -0.069522  0  3.648444  0
C  C98  1  0.19471221  0.29307444  0.52541857  1  -0.047827  0  -0.073084  -0.063354  0  3.631041  0
C  C99  1  0.29620498  0.30531247  0.49766386  1  0.036533  0  -0.008259  -0.03372  0  3.654362  0
C  C100  1  0.19864578  0.19950508  0.50306171  1  0.0321  0  -0.008777  -0.033175  0  3.649009  0
C  C101  1  0.71628962  0.11263795  0.52897303  1  0.949256  0  0.093047  0.271791  0  3.968128  0
C  C102  1  0.72614723  0.65971451  0.94943897  1  0.036701  0  -0.002382  0.065578  0  3.879189  0
C  C103  1  0.69832570  0.69423005  0.89171767  1  -0.059898  0  -0.013943  -0.081068  0  3.97766  0
C  C104  1  0.72557954  0.78774012  0.94749222  1  -0.079699  0  -0.084079  -0.099971  0  3.983191  0
O  O105  1  0.49952066  0.49962650  0.50299649  1  -1.18893  0  -0.57291  -1.028322  0  2.543239  0
O  O106  1  0.05827401  0.11288502  0.73599734  1  -1.153865  0  -0.311891  -0.540148  0  2.327648  0
O  O107  1  0.89403507  0.82642147  0.45055350  1  -1.171487  0  -0.311728  -0.541144  0  2.33056  0
O  O108  1  0.32617582  0.38835470  0.26972959  1  -1.179893  0  -0.310557  -0.538064  0  2.344064  0
O  O109  1  0.18086640  0.11588255  0.56009045  1  -1.175403  0  -0.316443  -0.548278  0  2.325414  0
O  O110  1  0.87370295  0.94829098  0.55153439  1  -1.17688  0  -0.317073  -0.551592  0  2.334681  0
O  O111  1  0.05775837  0.12411422  0.44474857  1  -1.164749  0  -0.322495  -0.556802  0  2.314801  0
O  O112  1  0.88691805  0.94878231  0.26986069  1  -1.160073  0  -0.316043  -0.547853  0  2.331961  0
O  O113  1  0.18134235  0.12052690  0.73460525  1  -1.177851  0  -0.314762  -0.546035  0  2.338261  0
O  O114  1  0.05452172  0.82329337  0.43283805  1  -1.161977  0  -0.311992  -0.538986  0  2.330961  0
O  O115  1  0.89325894  0.12549220  0.57184110  1  -1.174704  0  -0.309753  -0.545193  0  2.349017  0
O  O116  1  0.59934435  0.36947361  0.55122273  1  -1.165819  0  -0.312324  -0.541054  0  2.313851  0
O  O117  1  0.62006306  0.55316285  0.73426477  1  -1.174152  0  -0.310945  -0.54052  0  2.325067  0
O  O118  1  0.63008690  0.39783274  0.46055153  1  -1.163806  0  -0.311945  -0.541892  0  2.326119  0
O  O119  1  0.44362782  0.67645425  0.56908554  1  -1.181557  0  -0.31529  -0.545566  0  2.340063  0
O  O120  1  0.62114059  0.55638883  0.44528206  1  -1.174219  0  -0.311411  -0.539316  0  2.331658  0
O  O121  1  0.31652885  0.37712936  0.42996161  1  -1.168395  0  -0.318045  -0.549818  0  2.323586  0
O  O122  1  0.60432254  0.67774803  0.55170950  1  -1.173146  0  -0.315134  -0.547  0  2.330194  0
O  O123  1  0.43731243  0.39240323  0.56927717  1  -1.173124  0  -0.320748  -0.553766  0  2.314864  0
O  O124  1  0.66932262  0.10969629  0.55736641  1  -1.076878  0  -0.279035  -0.36689  0  2.083771  0
O  O125  1  0.31936931  0.55311519  0.43738895  1  -1.172597  0  -0.311719  -0.539574  0  2.32942  0
O  O126  1  0.45145110  0.38030224  0.27317614  1  -1.186714  0  -0.317557  -0.549099  0  2.328974  0
O  O127  1  0.62131402  0.67621493  0.73325187  1  -1.180596  0  -0.315336  -0.546759  0  2.340135  0
O  O128  1  0.00226158  0.00370660  0.50236716  1  -1.1929  0  -0.572746  -1.028065  0  2.542423  0
O  O129  1  0.17898921  0.94637805  0.56463992  1  -1.174869  0  -0.315062  -0.546836  0  2.339069  0
O  O130  1  0.88125054  0.11615405  0.43804570  1  -1.167001  0  -0.30794  -0.533821  0  2.312421  0
O  O131  1  0.87970792  0.82560177  0.27013999  1  -1.160288  0  -0.31215  -0.541447  0  2.335852  0
