# generated using pymatgen
data_Co5H30(C17O12)2
_symmetry_space_group_name_H-M   'P 1'
_cell_length_a   8.39012170
_cell_length_b   9.91352833
_cell_length_c   24.88941826
_cell_angle_alpha   90.72390472
_cell_angle_beta   89.99997261
_cell_angle_gamma   89.99985915
_symmetry_Int_Tables_number   1
_chemical_formula_structural   Co5H30(C17O12)2
_chemical_formula_sum   'Co10 H60 C68 O48'
_cell_volume   2070.02978462
_cell_formula_units_Z   2
loop_
 _symmetry_equiv_pos_site_id
 _symmetry_equiv_pos_as_xyz
  1  'x, y, z'
loop_
 _atom_site_type_symbol
 _atom_site_label
 _atom_site_symmetry_multiplicity
 _atom_site_fract_x
 _atom_site_fract_y
 _atom_site_fract_z
 _atom_site_occupancy
 _atom_site_pbe_bader_charge
 _atom_site_pbe_bader_spin_density
 _atom_site_pbe_cm5_charge
 _atom_site_pbe_ddec_charge
 _atom_site_pbe_ddec_spin_density
 _atom_site_pbe_ddec_sum_bond_order
 _atom_site_pbe_magmom
Co  Co0  1  0.66680220  0.25150975  0.90724516  1  1.287333  2.619398  0.629186  1.011504  2.804122  2.216426  2.596
Co  Co1  1  0.28782431  0.30774798  0.90042162  1  1.309515  2.64153  0.637544  1.055342  2.840523  2.303622  2.622
Co  Co2  1  0.16677869  0.24849384  0.59274961  1  1.287267  2.61938  0.629185  1.011544  2.804058  2.216256  2.596
Co  Co3  1  0.78780432  0.19225841  0.59958038  1  1.309471  2.64156  0.637539  1.055324  2.840553  2.303809  2.622
Co  Co4  1  0.33321092  0.74849520  0.09275258  1  1.287276  2.619391  0.629175  1.011519  2.804077  2.216294  2.596
Co  Co5  1  0.71218643  0.69225195  0.09958212  1  1.309327  2.641542  0.637549  1.055364  2.840548  2.303655  2.622
Co  Co6  1  0.83319511  0.75149698  0.40724686  1  1.287281  2.6194  0.62916  1.011444  2.804126  2.216508  2.596
Co  Co7  1  0.21218258  0.80774048  0.40041813  1  1.309458  2.641541  0.637542  1.055313  2.840546  2.303758  2.622
Co  Co8  1  0.50001108  0.49999898  0.00000189  1  1.299813  2.58883  0.619296  1.069182  2.772164  2.297452  2.575
Co  Co9  1  0.99998963  0.99999589  0.49999712  1  1.299858  2.588799  0.619287  1.069124  2.772128  2.297314  2.575
H  H10  1  0.02862573  0.96509558  0.81408068  1  0.082601  0.000424  0.104767  0.108565  0.000181  1.002588  0.0
H  H11  1  0.98147546  0.53367066  0.83004092  1  0.104961  0.000142  0.105211  0.118596  -6.6e-05  1.022628  0.0
H  H12  1  0.72239294  0.80310347  0.93542541  1  0.090057  0.000674  0.107078  0.114586  0.000276  1.011421  0.0
H  H13  1  0.22176979  0.81081240  0.76992857  1  0.048818  3.3e-05  0.09592  0.103671  -2.3e-05  1.010412  0.0
H  H14  1  0.21412653  0.63541537  0.78183100  1  0.070872  9.2e-05  0.099394  0.112136  -4e-06  1.00124  0.0
H  H15  1  0.03805602  0.91440662  0.70201160  1  0.060452  0.000279  0.109639  0.119472  4e-05  0.987811  0.0
H  H16  1  0.83155512  0.64471071  0.58451512  1  0.079431  0.000827  0.106062  0.109739  0.000362  1.005707  0.0
H  H17  1  0.06275116  0.48333050  0.72339506  1  0.078338  0.000467  0.106743  0.116255  0.000148  0.995019  0.0
H  H18  1  0.46423894  0.25269742  0.98281277  1  0.583259  0.00228  0.303891  0.38864  0.001679  0.911795  0.003
H  H19  1  0.78383451  0.24539135  0.00958892  1  0.632928  0.000812  0.332528  0.421509  0.000333  0.852301  0.001
H  H20  1  0.79065713  0.38608999  0.98286643  1  0.635824  -0.000488  0.303389  0.37998  -0.000698  0.966731  0.0
H  H21  1  0.17618572  0.37159918  0.99429648  1  0.663816  0.000483  0.293063  0.389101  0.000337  0.957311  0.001
H  H22  1  0.02272204  0.30091968  0.96525625  1  0.668345  0.001486  0.301689  0.417088  0.000982  0.900637  0.002
H  H23  1  0.14405058  0.27591408  0.80414149  1  0.610045  0.000945  0.330401  0.405953  0.000506  0.865328  0.0
H  H24  1  0.01361032  0.23293237  0.84614744  1  0.667246  0.000454  0.297838  0.403725  0.000263  0.924289  0.0
H  H25  1  0.52862516  0.53490727  0.68591919  1  0.082667  0.000424  0.104771  0.108546  0.000181  1.002609  0.0
H  H26  1  0.48146669  0.96633227  0.66995887  1  0.105088  0.000142  0.105252  0.118651  -6.6e-05  1.022606  0.0
H  H27  1  0.22239226  0.69689595  0.56457321  1  0.09008  0.000674  0.107087  0.114559  0.000276  1.011471  0.0
H  H28  1  0.72176751  0.68919106  0.73007127  1  0.048879  3.3e-05  0.095943  0.103694  -2.3e-05  1.010395  0.0
H  H29  1  0.71412255  0.86458810  0.71816724  1  0.070835  9.2e-05  0.09937  0.112112  -4e-06  1.001285  0.0
H  H30  1  0.53805276  0.58559721  0.79798667  1  0.060449  0.000279  0.109644  0.119514  4e-05  0.98784  0.0
H  H31  1  0.33156064  0.85529151  0.91548511  1  0.079454  0.000827  0.10603  0.109711  0.000362  1.005729  0.0
H  H32  1  0.56275886  0.01667534  0.77660696  1  0.078343  0.000467  0.106743  0.116215  0.000148  0.994988  0.0
H  H33  1  0.96421414  0.24730354  0.51718274  1  0.583343  0.002281  0.30384  0.388622  0.00168  0.911824  0.003
H  H34  1  0.28382592  0.25460297  0.49040786  1  0.633001  0.000812  0.332503  0.421471  0.000332  0.852276  0.001
H  H35  1  0.29064842  0.11390224  0.51712948  1  0.635793  -0.000488  0.303435  0.380022  -0.000698  0.966654  0.0
H  H36  1  0.67618036  0.12840037  0.50570510  1  0.663751  0.000483  0.29294  0.388793  0.000338  0.957661  0.001
H  H37  1  0.52270570  0.19907715  0.53474253  1  0.667931  0.001489  0.301646  0.417074  0.000983  0.90067  0.002
H  H38  1  0.64404587  0.22409059  0.69586011  1  0.610067  0.000946  0.330415  0.406066  0.000507  0.865278  0.0
H  H39  1  0.51360196  0.26706953  0.65385338  1  0.667303  0.000454  0.297818  0.403682  0.000264  0.924332  0.0
H  H40  1  0.97136952  0.03490938  0.18591987  1  0.082857  0.000424  0.104779  0.108548  0.000181  1.002614  0.0
H  H41  1  0.01853051  0.46633430  0.16996123  1  0.104874  0.000142  0.105223  0.118603  -6.6e-05  1.022569  0.0
H  H42  1  0.27760946  0.19690149  0.06457674  1  0.090105  0.000674  0.107087  0.114555  0.000276  1.01143  0.0
H  H43  1  0.77822904  0.18919356  0.23007037  1  0.048869  3.3e-05  0.095907  0.103646  -2.3e-05  1.010484  0.0
H  H44  1  0.78587349  0.36459260  0.21816835  1  0.070763  9.2e-05  0.099381  0.112127  -4e-06  1.001244  0.0
H  H45  1  0.96193804  0.08559530  0.29798732  1  0.060584  0.000279  0.109664  0.119575  4e-05  0.987702  0.0
H  H46  1  0.16843894  0.35528516  0.41548499  1  0.079597  0.000827  0.106041  0.109773  0.000362  1.005678  0.0
H  H47  1  0.93724528  0.51667547  0.27660669  1  0.078354  0.000466  0.106749  0.11622  0.000148  0.994965  0.0
H  H48  1  0.53577419  0.74730451  0.01718656  1  0.583297  0.00228  0.303901  0.388677  0.001679  0.911837  0.003
H  H49  1  0.21617504  0.75460554  0.99041199  1  0.632995  0.000812  0.33245  0.421276  0.000333  0.852352  0.001
H  H50  1  0.20935361  0.61390588  0.01713328  1  0.635808  -0.000488  0.303486  0.380081  -0.000698  0.96656  0.0
H  H51  1  0.82382502  0.62839369  0.00570923  1  0.66381  0.000483  0.29299  0.388838  0.000337  0.957585  0.001
H  H52  1  0.97728632  0.69907924  0.03474828  1  0.668216  0.001486  0.301705  0.417125  0.000982  0.900603  0.002
H  H53  1  0.85595062  0.72409391  0.19586027  1  0.609983  0.000946  0.330402  0.406068  0.000506  0.865251  0.0
H  H54  1  0.98639447  0.76707461  0.15385513  1  0.66727  0.000455  0.297787  0.403661  0.000264  0.924363  0.0
H  H55  1  0.47137486  0.46509264  0.31408093  1  0.082652  0.000424  0.104769  0.108551  0.000181  1.002617  0.0
H  H56  1  0.51852379  0.03366662  0.33003964  1  0.104894  0.000142  0.1052  0.118582  -6.6e-05  1.022566  0.0
H  H57  1  0.77760776  0.30309589  0.43542487  1  0.090059  0.000674  0.107079  0.11454  0.000276  1.011442  0.0
H  H58  1  0.27822893  0.31081187  0.26992766  1  0.048777  3.3e-05  0.09593  0.103711  -2.3e-05  1.010426  0.0
H  H59  1  0.28587150  0.13541281  0.28183088  1  0.070838  9.2e-05  0.099365  0.112114  -4e-06  1.001241  0.0
H  H60  1  0.46195322  0.41440472  0.20201427  1  0.060399  0.000279  0.109655  0.119461  4e-05  0.987834  0.0
H  H61  1  0.66844534  0.14471243  0.08451503  1  0.07945  0.000827  0.106066  0.109761  0.000362  1.005683  0.0
H  H62  1  0.43724473  0.98332760  0.22339397  1  0.078313  0.000467  0.106731  0.116204  0.000148  0.99504  0.0
H  H63  1  0.03575966  0.75269736  0.48281216  1  0.583304  0.00228  0.303913  0.388688  0.001679  0.911816  0.003
H  H64  1  0.71616814  0.74539390  0.50958864  1  0.633031  0.000812  0.332487  0.421465  0.000333  0.852189  0.001
H  H65  1  0.70934445  0.88609260  0.48286500  1  0.635801  -0.000489  0.30338  0.379953  -0.000698  0.966773  0.0
H  H66  1  0.32381608  0.87160154  0.49429182  1  0.663786  0.000483  0.292982  0.388788  0.000338  0.957647  0.001
H  H67  1  0.47728120  0.80091871  0.46525396  1  0.668253  0.001487  0.30169  0.417124  0.000982  0.900584  0.002
H  H68  1  0.35594938  0.77590427  0.30413838  1  0.610011  0.000946  0.330417  0.406096  0.000506  0.865215  0.0
H  H69  1  0.48638853  0.73292029  0.34614630  1  0.666936  0.000455  0.297806  0.40367  0.000264  0.924335  0.0
C  C70  1  0.86993182  0.89779848  0.87616250  1  -0.014289  0.001741  -0.016781  -0.027056  0.000759  3.987508  0.001
C  C71  1  0.97906379  0.87739709  0.83412657  1  -0.066137  0.001771  -0.073867  -0.127308  0.000992  3.89538  0.001
C  C72  1  0.02317917  0.74711845  0.81769912  1  0.032726  0.000533  -0.00441  0.125567  0.000159  3.95505  0.0
C  C73  1  0.95208360  0.63658987  0.84259096  1  -0.020558  -0.000145  -0.074365  -0.127801  -0.000675  3.882311  0.0
C  C74  1  0.84492776  0.65587945  0.88514385  1  -0.03597  0.005348  -0.022221  -0.046104  0.002752  4.014679  0.004
C  C75  1  0.80699247  0.78641612  0.90287430  1  -0.015736  0.002216  -0.076877  -0.109904  0.001221  3.934166  0.001
C  C76  1  0.80868129  0.03476078  0.88995933  1  1.510482  -0.007415  0.204005  0.569671  -0.010556  4.167771  -0.008
C  C77  1  0.76616983  0.53687200  0.90947456  1  1.520955  0.004672  0.229096  0.603418  0.002956  4.109123  0.003
C  C78  1  0.14123354  0.72392130  0.77254060  1  -0.030633  0.000204  -0.157084  -0.254337  5.6e-05  3.966499  0.0
C  C79  1  0.05959474  0.70159202  0.71920295  1  -0.027494  0.001523  -0.003692  0.128542  0.000657  3.968485  0.001
C  C80  1  0.01182533  0.81160247  0.68863884  1  0.038641  -0.002559  -0.07461  -0.141479  -0.003142  3.920206  -0.002
C  C81  1  0.93136033  0.79230819  0.63983942  1  0.022763  0.00804  -0.017381  -0.037393  0.003923  4.015268  0.007
C  C82  1  0.89568286  0.66215740  0.62195601  1  -0.079027  -0.000296  -0.075784  -0.105398  -0.001015  3.934496  0.0
C  C83  1  0.94153216  0.55121037  0.65240226  1  -0.007056  0.00243  -0.016894  -0.020355  0.000891  4.00873  0.002
C  C84  1  0.02554658  0.57092053  0.70045300  1  -0.049393  -0.002448  -0.077384  -0.145796  -0.003071  3.904691  -0.001
C  C85  1  0.88301284  0.91034448  0.60734551  1  1.542466  -0.001845  0.219811  0.598349  -0.004441  4.156827  -0.001
C  C86  1  0.89623744  0.41528646  0.63264339  1  1.50561  -0.001339  0.200074  0.554698  -0.003209  4.197024  -0.002
C  C87  1  0.36993253  0.60220165  0.62383570  1  -0.013933  0.001739  -0.01677  -0.027162  0.000758  3.987404  0.001
C  C88  1  0.47906438  0.62260584  0.66587282  1  -0.066064  0.001777  -0.073831  -0.127201  0.000995  3.895311  0.001
C  C89  1  0.52317677  0.75288542  0.68230036  1  0.032222  0.000531  -0.004371  0.125601  0.000159  3.955202  0.0
C  C90  1  0.45207872  0.86341211  0.65740803  1  -0.020147  -0.000139  -0.074504  -0.127999  -0.00067  3.882508  0.0
C  C91  1  0.34492181  0.84412174  0.61485516  1  -0.036607  0.005345  -0.022173  -0.045949  0.002751  4.014621  0.004
C  C92  1  0.30699289  0.71358313  0.59712390  1  -0.015884  0.002221  -0.076894  -0.109877  0.001224  3.934213  0.001
C  C93  1  0.30868691  0.46523446  0.61004100  1  1.510344  -0.007416  0.204068  0.569771  -0.010554  4.167577  -0.008
C  C94  1  0.26617190  0.96313035  0.59052246  1  1.520613  0.004695  0.229093  0.603343  0.002974  4.109065  0.003
C  C95  1  0.64123101  0.77608233  0.72745846  1  -0.030363  0.000204  -0.157124  -0.254387  5.6e-05  3.966559  0.0
C  C96  1  0.55959684  0.79841077  0.78079732  1  -0.028187  0.001523  -0.00362  0.128631  0.000657  3.968281  0.001
C  C97  1  0.51182890  0.68840143  0.81136185  1  0.039577  -0.002557  -0.074691  -0.141691  -0.00314  3.920442  -0.002
C  C98  1  0.43137351  0.70769586  0.86016159  1  0.022476  0.00804  -0.017336  -0.03728  0.003923  4.015436  0.007
C  C99  1  0.39569206  0.83784470  0.87804540  1  -0.078923  -0.000294  -0.075752  -0.105376  -0.001013  3.934728  0.0
C  C100  1  0.44154584  0.94878962  0.84759954  1  -0.007696  0.002429  -0.016904  -0.020419  0.000891  4.00879  0.002
C  C101  1  0.52555541  0.92908334  0.79954849  1  -0.048886  -0.002446  -0.077381  -0.14572  -0.003068  3.904439  -0.001
C  C102  1  0.38303110  0.58965259  0.89265267  1  1.542429  -0.001837  0.219839  0.598484  -0.004434  4.156744  -0.001
C  C103  1  0.39625455  0.08471668  0.86735857  1  1.505621  -0.001338  0.200143  0.554789  -0.003212  4.197048  -0.002
C  C104  1  0.13006820  0.10220749  0.12383845  1  -0.01456  0.00174  -0.016748  -0.027022  0.000758  3.987326  0.001
C  C105  1  0.02093623  0.12260988  0.16587438  1  -0.066206  0.001775  -0.073924  -0.127375  0.000994  3.895369  0.001
C  C106  1  0.97682204  0.25288853  0.18230184  1  0.032555  0.000532  -0.004403  0.125559  0.000159  3.955177  0.0
C  C107  1  0.04791880  0.36341509  0.15741039  1  -0.020448  -0.000141  -0.074453  -0.127884  -0.000672  3.882459  0.0
C  C108  1  0.15507344  0.34412450  0.11485749  1  -0.03652  0.005349  -0.022172  -0.046035  0.002752  4.014664  0.004
C  C109  1  0.19300874  0.21358783  0.09712664  1  -0.015813  0.002219  -0.076873  -0.109809  0.001223  3.934196  0.001
C  C110  1  0.19131754  0.96524418  0.11004121  1  1.510566  -0.007414  0.204085  0.56971  -0.010555  4.167604  -0.008
C  C111  1  0.23383376  0.46313396  0.09052639  1  1.521379  0.004686  0.229103  0.603405  0.002968  4.108956  0.003
C  C112  1  0.85876290  0.27608467  0.22745955  1  -0.030364  0.000204  -0.157057  -0.254324  5.6e-05  3.966533  0.0
C  C113  1  0.94039812  0.29841293  0.28079679  1  -0.028464  0.001523  -0.003666  0.128572  0.000657  3.968484  0.001
C  C114  1  0.98816634  0.18840047  0.31136049  1  0.039451  -0.002558  -0.074624  -0.14156  -0.003141  3.920243  -0.002
C  C115  1  0.06863015  0.20769172  0.36016030  1  0.022444  0.00804  -0.017378  -0.037464  0.003923  4.015414  0.007
C  C116  1  0.10430881  0.33784050  0.37804450  1  -0.079012  -0.000295  -0.07575  -0.105377  -0.001014  3.934472  0.0
C  C117  1  0.05845832  0.44878854  0.34759907  1  -0.007727  0.002429  -0.016921  -0.020464  0.00089  4.008681  0.002
C  C118  1  0.97444510  0.42908342  0.29954835  1  -0.048629  -0.002447  -0.077367  -0.145687  -0.003069  3.904475  -0.001
C  C119  1  0.11697645  0.08965340  0.39265219  1  1.542474  -0.001843  0.219848  0.598527  -0.004439  4.156704  -0.001
C  C120  1  0.10375304  0.58471245  0.36735753  1  1.505585  -0.001339  0.200137  0.554831  -0.003213  4.196955  -0.002
C  C121  1  0.63006868  0.39779119  0.37616238  1  -0.014567  0.001741  -0.016733  -0.026987  0.000758  3.987313  0.001
C  C122  1  0.52093683  0.37739306  0.33412609  1  -0.065804  0.001771  -0.073874  -0.12731  0.000992  3.895322  0.001
C  C123  1  0.47681848  0.24711448  0.31769856  1  0.032384  0.000533  -0.004389  0.125553  0.000159  3.95509  0.0
C  C124  1  0.54791533  0.13658678  0.34259008  1  -0.020315  -0.000145  -0.07439  -0.127762  -0.000675  3.882213  0.0
C  C125  1  0.65507224  0.15587312  0.38514253  1  -0.036592  0.00535  -0.022145  -0.046187  0.002752  4.014831  0.004
C  C126  1  0.69300593  0.28640871  0.40287417  1  -0.015864  0.002216  -0.076874  -0.109762  0.001221  3.934293  0.001
C  C127  1  0.69132145  0.53475133  0.38996107  1  1.510528  -0.007417  0.204075  0.56977  -0.010558  4.167534  -0.008
C  C128  1  0.73382215  0.03686451  0.40947442  1  1.521138  0.004676  0.229039  0.603438  0.002959  4.109208  0.003
C  C129  1  0.35876305  0.22392060  0.27253967  1  -0.030356  0.000204  -0.157079  -0.254347  5.6e-05  3.966573  0.0
C  C130  1  0.44040556  0.20159116  0.21920241  1  -0.027481  0.001523  -0.003655  0.128486  0.000657  3.968525  0.001
C  C131  1  0.48817707  0.31160151  0.18863869  1  0.038332  -0.002556  -0.074641  -0.141417  -0.00314  3.920244  -0.002
C  C132  1  0.56863842  0.29230709  0.13984015  1  0.023037  0.008038  -0.017407  -0.037447  0.003922  4.015307  0.007
C  C133  1  0.60431511  0.16215622  0.12195633  1  -0.079  -0.000294  -0.075786  -0.105454  -0.001013  3.934465  0.0
C  C134  1  0.55846371  0.05120928  0.15240218  1  -0.007468  0.002429  -0.016892  -0.020303  0.00089  4.008673  0.002
C  C135  1  0.47444937  0.07091859  0.20045245  1  -0.049004  -0.002445  -0.077382  -0.145739  -0.003068  3.904669  -0.001
C  C136  1  0.61698799  0.41034834  0.10735107  1  1.542511  -0.001837  0.219719  0.598276  -0.004434  4.15704  -0.001
C  C137  1  0.60375619  0.91528525  0.13264317  1  1.505997  -0.00134  0.200145  0.554751  -0.00321  4.197025  -0.002
O  O138  1  0.48198592  0.32091692  0.95555343  1  -1.170448  0.17596  -0.559185  -0.927978  0.095056  2.349958  0.151
O  O139  1  0.84839810  0.13889560  0.86257808  1  -1.163669  0.062276  -0.313233  -0.575854  0.031649  2.230663  0.053
O  O140  1  0.70520956  0.04923956  0.92733722  1  -1.128939  0.077218  -0.317829  -0.549825  0.038663  2.204583  0.067
O  O141  1  0.72921084  0.54393429  0.96003312  1  -1.201084  0.039048  -0.308805  -0.608714  0.019628  2.417444  0.033
O  O142  1  0.73860306  0.43443689  0.87990818  1  -1.136902  0.059446  -0.293915  -0.518402  0.03004  2.288125  0.047
O  O143  1  0.84963322  0.01893986  0.63240457  1  -1.144633  0.085144  -0.301284  -0.535872  0.044009  2.361744  0.07
O  O144  1  0.87725732  0.89422469  0.55605722  1  -1.175839  0.062377  -0.331259  -0.621817  0.031816  2.398412  0.049
O  O145  1  0.77526784  0.40233395  0.60231346  1  -1.127335  0.08594  -0.305153  -0.534335  0.043828  2.235952  0.074
O  O146  1  0.97520903  0.30818459  0.64631524  1  -1.162087  0.10044  -0.323494  -0.606648  0.052659  2.300941  0.079
O  O147  1  0.82527537  0.29042561  0.97788198  1  -1.215703  0.049812  -0.540647  -0.733443  0.025482  2.17077  0.04
O  O148  1  0.13360597  0.33283180  0.95986610  1  -1.290059  0.083289  -0.585374  -0.780839  0.042736  2.163864  0.065
O  O149  1  0.09897966  0.30045689  0.83890397  1  -1.23425  0.042319  -0.555485  -0.754043  0.021127  2.079818  0.035
O  O150  1  0.98194936  0.17909411  0.54444694  1  -1.170542  0.175967  -0.559135  -0.92804  0.095061  2.350028  0.151
O  O151  1  0.34840041  0.36110664  0.63742589  1  -1.163632  0.062245  -0.31327  -0.575822  0.03163  2.230488  0.053
O  O152  1  0.20522362  0.45074983  0.57265988  1  -1.128924  0.077248  -0.317859  -0.549867  0.038673  2.204562  0.067
O  O153  1  0.22919990  0.95606209  0.53996468  1  -1.201336  0.039048  -0.308763  -0.608655  0.019628  2.4175  0.033
O  O154  1  0.23861222  0.06557058  0.62008699  1  -1.136321  0.059431  -0.293908  -0.518394  0.030033  2.287992  0.047
O  O155  1  0.34964559  0.48106235  0.86759258  1  -1.144708  0.085143  -0.301246  -0.535899  0.044007  2.361785  0.07
O  O156  1  0.37728142  0.60576432  0.94394133  1  -1.175616  0.062376  -0.331272  -0.621871  0.031819  2.398432  0.049
O  O157  1  0.27528845  0.09767146  0.89769175  1  -1.127683  0.085958  -0.305239  -0.534403  0.04383  2.235672  0.074
O  O158  1  0.47522346  0.19182041  0.85368591  1  -1.161926  0.100465  -0.323484  -0.606639  0.052665  2.301163  0.079
O  O159  1  0.32526398  0.20956960  0.52211634  1  -1.215454  0.049803  -0.540695  -0.733494  0.025478  2.170822  0.04
O  O160  1  0.63359567  0.16717289  0.54013551  1  -1.28982  0.083298  -0.585225  -0.780491  0.042742  2.164152  0.065
O  O161  1  0.59897864  0.19954686  0.66109724  1  -1.234388  0.042326  -0.555459  -0.754104  0.021128  2.079896  0.035
O  O162  1  0.51803555  0.67908905  0.04444832  1  -1.170414  0.175956  -0.559194  -0.928103  0.095058  2.350158  0.151
O  O163  1  0.15160907  0.86111240  0.13742609  1  -1.163636  0.06226  -0.313339  -0.575925  0.031639  2.230516  0.053
O  O164  1  0.29477854  0.95076135  0.07266009  1  -1.128944  0.077227  -0.317807  -0.549795  0.038668  2.204582  0.067
O  O165  1  0.27080705  0.45606160  0.03996980  1  -1.201433  0.039045  -0.308741  -0.608732  0.019629  2.417373  0.033
O  O166  1  0.26138623  0.56557311  0.12009199  1  -1.136523  0.059439  -0.293996  -0.518474  0.030037  2.288064  0.047
O  O167  1  0.15036203  0.98106004  0.36759314  1  -1.144749  0.085144  -0.301283  -0.535937  0.044008  2.361771  0.07
O  O168  1  0.12272362  0.10577117  0.44394088  1  -1.175669  0.062381  -0.331261  -0.621861  0.031821  2.398368  0.049
O  O169  1  0.22472383  0.59766495  0.39768706  1  -1.127603  0.085942  -0.305164  -0.534382  0.04383  2.235927  0.074
O  O170  1  0.02478383  0.69181634  0.35368609  1  -1.161788  0.100466  -0.32356  -0.606721  0.052667  2.300955  0.079
O  O171  1  0.17473657  0.70956825  0.02211852  1  -1.215636  0.049808  -0.54068  -0.733296  0.02548  2.17069  0.04
O  O172  1  0.86640597  0.66716612  0.04013884  1  -1.289999  0.083289  -0.585324  -0.780602  0.042736  2.164031  0.065
O  O173  1  0.90102750  0.69954707  0.16109898  1  -1.234272  0.042325  -0.55541  -0.754072  0.021128  2.079829  0.035
O  O174  1  0.01802205  0.82090477  0.45554755  1  -1.170439  0.175959  -0.559168  -0.927975  0.095052  2.349894  0.151
O  O175  1  0.65161033  0.63888723  0.36257822  1  -1.163406  0.06228  -0.313387  -0.575978  0.031651  2.230602  0.053
O  O176  1  0.79478832  0.54922688  0.42734013  1  -1.129063  0.077222  -0.317782  -0.549833  0.038665  2.204565  0.067
O  O177  1  0.77078820  0.04393377  0.46003221  1  -1.201354  0.039051  -0.308825  -0.608773  0.019629  2.417439  0.033
O  O178  1  0.76138541  0.93442730  0.37990910  1  -1.13628  0.059434  -0.293884  -0.518344  0.030036  2.288195  0.047
O  O179  1  0.65037112  0.51893657  0.13241196  1  -1.144897  0.085146  -0.301197  -0.535818  0.044008  2.361923  0.07
O  O180  1  0.62275197  0.39423863  0.05606162  1  -1.175541  0.062383  -0.331218  -0.621732  0.031817  2.398412  0.049
O  O181  1  0.72472229  0.90233048  0.10231200  1  -1.12763  0.085941  -0.305181  -0.534357  0.043829  2.235833  0.074
O  O182  1  0.52479086  0.80818153  0.14631623  1  -1.162175  0.100446  -0.323536  -0.606703  0.052662  2.301015  0.079
O  O183  1  0.67472531  0.79042526  0.47788095  1  -1.215788  0.049816  -0.540599  -0.733385  0.025483  2.17066  0.04
O  O184  1  0.36639838  0.83283306  0.45986062  1  -1.290089  0.083305  -0.585345  -0.7806  0.042739  2.164029  0.065
O  O185  1  0.40101780  0.80044700  0.33890246  1  -1.233966  0.042324  -0.555426  -0.754075  0.021127  2.079793  0.035
