# generated using pymatgen
data_HgH12C17(N3Cl)2
_symmetry_space_group_name_H-M   'P 1'
_cell_length_a   8.50626887
_cell_length_b   9.36380582
_cell_length_c   11.58986481
_cell_angle_alpha   79.05041015
_cell_angle_beta   75.76726613
_cell_angle_gamma   87.64076016
_symmetry_Int_Tables_number   1
_chemical_formula_structural   HgH12C17(N3Cl)2
_chemical_formula_sum   'Hg2 H24 C34 N12 Cl4'
_cell_volume   878.50386556
_cell_formula_units_Z   2
loop_
 _symmetry_equiv_pos_site_id
 _symmetry_equiv_pos_as_xyz
  1  'x, y, z'
loop_
 _atom_site_type_symbol
 _atom_site_label
 _atom_site_symmetry_multiplicity
 _atom_site_fract_x
 _atom_site_fract_y
 _atom_site_fract_z
 _atom_site_occupancy
 _atom_site_hle17_bader_spin_density
 _atom_site_hle17_ddec_charge
 _atom_site_hle17_ddec_spin_density
 _atom_site_hle17_ddec_sum_bond_order
 _atom_site_hle17_magmom
 _atom_site_hse06_10hf_bader_spin_density
 _atom_site_hse06_10hf_ddec_charge
 _atom_site_hse06_10hf_ddec_spin_density
 _atom_site_hse06_10hf_ddec_sum_bond_order
 _atom_site_hse06_10hf_magmom
 _atom_site_hse06_bader_spin_density
 _atom_site_hse06_ddec_charge
 _atom_site_hse06_ddec_spin_density
 _atom_site_hse06_ddec_sum_bond_order
 _atom_site_hse06_magmom
 _atom_site_pbe_bader_spin_density
 _atom_site_pbe_cm5_charge
 _atom_site_pbe_ddec_charge
 _atom_site_pbe_ddec_spin_density
 _atom_site_pbe_ddec_sum_bond_order
 _atom_site_pbe_magmom
Hg  Hg0  1  0.29166653  0.68324145  0.33666992  1  0  0.747705  0  2.089208  0  0  0.578769  0  2.589579  0  0  0.630293  0  2.553719  0  0  0.524083  0.543342  0  2.613705  0
Hg  Hg1  1  0.70833299  0.31675864  0.66332993  1  0  0.747731  0  2.089189  0  0  0.578793  0  2.589564  0  0  0.630318  0  2.553703  0  0  0.524091  0.543369  0  2.61369  0
H  H2  1  0.93259940  0.61621543  0.58200443  1  0  0.069325  0  0.95431  0  0  0.073923  0  1.026971  0  0  0.07641  0  1.024515  0  0  0.101731  0.072016  0  1.028977  0
H  H3  1  0.06739650  0.38378684  0.41799746  1  0  0.06932  0  0.954292  0  0  0.073903  0  1.026966  0  0  0.076389  0  1.024505  0  0  0.10172  0.071963  0  1.028998  0
H  H4  1  0.67502716  0.72647125  0.67977090  1  0  0.101231  0  0.975842  0  0  0.106766  0  1.044537  0  0  0.109664  0  1.044115  0  0  0.097729  0.104794  0  1.044796  0
H  H5  1  0.32496875  0.27353318  0.32022893  1  0  0.101206  0  0.975839  0  0  0.10675  0  1.044529  0  0  0.109652  0  1.044089  0  0  0.097712  0.10478  0  1.044786  0
H  H6  1  0.60459505  0.98048563  0.58457437  1  0  0.099775  0  0.926408  0  0  0.111166  0  0.984315  0  0  0.113802  0  0.982871  0  0  0.107384  0.109141  0  0.985677  0
H  H7  1  0.39540573  0.01952101  0.41542766  1  0  0.099794  0  0.926357  0  0  0.111142  0  0.984321  0  0  0.113777  0  0.982876  0  0  0.107356  0.109115  0  0.985685  0
H  H8  1  0.78819014  0.10452237  0.39552866  1  0  0.110109  0  0.990699  0  0  0.11522  0  1.059246  0  0  0.118623  0  1.058132  0  0  0.095691  0.112772  0  1.060208  0
H  H9  1  0.21181306  0.89548209  0.60447156  1  0  0.110156  0  0.990661  0  0  0.115298  0  1.059181  0  0  0.118703  0  1.05806  0  0  0.095693  0.11285  0  1.060143  0
H  H10  1  0.96576362  0.22031199  0.94405645  1  0  0.102415  0  0.958851  0  0  0.111849  0  1.021501  0  0  0.114206  0  1.020951  0  0  0.105319  0.110262  0  1.021754  0
H  H11  1  0.03423833  0.77968485  0.05594434  1  0  0.102536  0  0.958844  0  0  0.111994  0  1.021453  0  0  0.114354  0  1.020899  0  0  0.105383  0.110405  0  1.02171  0
H  H12  1  0.05050158  0.34174051  0.73083384  1  0  0.102052  0  0.986115  0  0  0.106933  0  1.054736  0  0  0.109738  0  1.05421  0  0  0.094635  0.104977  0  1.055374  0
H  H13  1  0.94949917  0.65825958  0.26916665  1  0  0.102042  0  0.986104  0  0  0.106921  0  1.05473  0  0  0.109725  0  1.054205  0  0  0.094629  0.104965  0  1.055368  0
H  H14  1  0.34764681  0.35516857  0.62464698  1  0  0.078577  0  0.969192  0  0  0.082288  0  1.04228  0  0  0.084837  0  1.040002  0  0  0.099244  0.080658  0  1.043656  0
H  H15  1  0.65235272  0.64483261  0.37535356  1  0  0.07852  0  0.969165  0  0  0.082227  0  1.042276  0  0  0.084775  0  1.04  0  0  0.099211  0.080601  0  1.043642  0
H  H16  1  0.47591063  0.16372791  0.94075746  1  0  0.084503  0  0.966608  0  0  0.083062  0  1.050036  0  0  0.086407  0  1.046305  0  0  0.11466  0.080822  0  1.052491  0
H  H17  1  0.52409132  0.83627218  0.05924194  1  0  0.084506  0  0.966573  0  0  0.083044  0  1.050029  0  0  0.086388  0  1.046299  0  0  0.114639  0.080803  0  1.052484  0
H  H18  1  0.53178182  0.09257693  0.15281106  1  0  0.07524  0  0.959807  0  0  0.079276  0  1.029348  0  0  0.081948  0  1.027721  0  0  0.108255  0.076988  0  1.030896  0
H  H19  1  0.46821888  0.90741553  0.84718806  1  0  0.075263  0  0.959776  0  0  0.079315  0  1.029307  0  0  0.081992  0  1.027682  0  0  0.108275  0.077027  0  1.030855  0
H  H20  1  0.51276364  0.36682088  0.11982706  1  0  0.106438  0  0.961408  0  0  0.113357  0  1.025885  0  0  0.11705  0  1.023912  0  0  0.098583  0.110436  0  1.027728  0
H  H21  1  0.48723343  0.63317157  0.88017272  1  0  0.106444  0  0.961461  0  0  0.113366  0  1.025934  0  0  0.117062  0  1.023955  0  0  0.09857  0.110444  0  1.027778  0
H  H22  1  0.75339364  0.50911321  0.12142826  1  0  0.085909  0  0.979978  0  0  0.098074  0  1.038038  0  0  0.098852  0  1.040153  0  0  0.102357  0.097271  0  1.037461  0
H  H23  1  0.24660343  0.49088250  0.87857014  1  0  0.085923  0  0.980038  0  0  0.098087  0  1.038098  0  0  0.098867  0  1.04021  0  0  0.102383  0.097284  0  1.037518  0
H  H24  1  0.00477823  0.37614211  0.15874475  1  0  0.125802  0  0.954966  0  0  0.131747  0  1.02124  0  0  0.135558  0  1.019675  0  0  0.101838  0.128907  0  1.022495  0
H  H25  1  0.99522129  0.62385580  0.84125544  1  0  0.125803  0  0.954981  0  0  0.131746  0  1.021255  0  0  0.135555  0  1.019692  0  0  0.101832  0.128908  0  1.022505  0
C  C26  1  0.89471420  0.72244415  0.54063283  1  0  0.126726  0  3.728339  0  0  0.100526  0  3.981711  0  0  0.105753  0  4.000791  0  0  0.043283  0.097131  0  3.968568  0
C  C27  1  0.10528657  0.27755923  0.45936972  1  0  0.126785  0  3.728328  0  0  0.100578  0  3.981733  0  0  0.10581  0  4.000807  0  0  0.043299  0.097218  0  3.968596  0
C  C28  1  0.75152933  0.78595023  0.59631511  1  0  -0.108442  0  3.716863  0  0  -0.124596  0  3.969317  0  0  -0.129725  0  3.990499  0  0  -0.085293  -0.121176  0  3.954812  0
C  C29  1  0.24847144  0.21405531  0.40368538  1  0  -0.108474  0  3.716901  0  0  -0.124645  0  3.969334  0  0  -0.129773  0  3.990523  0  0  -0.085277  -0.121227  0  3.954817  0
C  C30  1  0.71247459  0.92456610  0.54270782  1  0  0.000972  0  3.708673  0  0  -0.017695  0  3.964235  0  0  -0.015533  0  3.982217  0  0  -0.066618  -0.019049  0  3.95212  0
C  C31  1  0.28752618  0.07543946  0.45729438  1  0  0.00097  0  3.708729  0  0  -0.017629  0  3.96424  0  0  -0.015467  0  3.982227  0  0  -0.066617  -0.018982  0  3.952126  0
C  C32  1  0.81476037  0.99390814  0.43486982  1  0  -0.123508  0  3.684301  0  0  -0.148996  0  3.937544  0  0  -0.153561  0  3.957074  0  0  -0.083555  -0.145923  0  3.924545  0
C  C33  1  0.18523919  0.00609632  0.56513193  1  0  -0.123552  0  3.684306  0  0  -0.1491  0  3.937542  0  0  -0.153667  0  3.957072  0  0  -0.083492  -0.146015  0  3.924537  0
C  C34  1  0.95181421  0.91941360  0.38257388  1  0  0.149297  0  3.800282  0  0  0.151448  0  4.045929  0  0  0.155537  0  4.066492  0  0  0.117504  0.148488  0  4.032059  0
C  C35  1  0.04818533  0.08058651  0.61742856  1  0  0.14931  0  3.800183  0  0  0.151467  0  4.045822  0  0  0.155555  0  4.066383  0  0  0.117432  0.148485  0  4.031992  0
C  C36  1  0.06544594  0.97685562  0.26707838  1  0  0.253241  0  3.700495  0  0  0.216481  0  3.96774  0  0  0.230123  0  3.982012  0  0  0.236815  0.207557  0  3.957611  0
C  C37  1  0.93455360  0.02314449  0.73292406  1  0  0.253284  0  3.700536  0  0  0.216573  0  3.967723  0  0  0.230215  0  3.981993  0  0  0.236896  0.207655  0  3.957597  0
C  C38  1  0.18270216  0.09302126  0.08408310  1  0  0.276356  0  3.708868  0  0  0.240777  0  3.981488  0  0  0.254368  0  3.995725  0  0  0.231589  0.232109  0  3.970791  0
C  C39  1  0.81729979  0.90697775  0.91591649  1  0  0.276263  0  3.709018  0  0  0.240736  0  3.9816  0  0  0.254319  0  3.995836  0  0  0.231624  0.232074  0  3.970907  0
C  C40  1  0.21461646  0.18011248  0.96193293  1  0  -0.054195  0  3.793878  0  0  -0.032031  0  4.036305  0  0  -0.039018  0  4.058226  0  0  -0.003029  -0.027385  0  4.021885  0
C  C41  1  0.78538550  0.81988761  0.03806648  1  0  -0.054085  0  3.793883  0  0  -0.03196  0  4.036346  0  0  -0.038914  0  4.058214  0  0  -0.003015  -0.027333  0  4.021949  0
C  C42  1  0.09454745  0.23213121  0.90040426  1  0  -0.03613  0  3.682018  0  0  -0.072355  0  3.942943  0  0  -0.067472  0  3.958517  0  0  -0.070609  -0.075174  0  3.932233  0
C  C43  1  0.90545450  0.76786780  0.09959618  1  0  -0.036313  0  3.682145  0  0  -0.072535  0  3.943052  0  0  -0.067662  0  3.958626  0  0  -0.070681  -0.075347  0  3.932348  0
C  C44  1  0.14151111  0.29821067  0.77918855  1  0  -0.107481  0  3.734632  0  0  -0.117977  0  3.99027  0  0  -0.125334  0  4.010896  0  0  -0.086036  -0.113874  0  3.977004  0
C  C45  1  0.85848841  0.70178833  0.22081147  1  0  -0.107493  0  3.734676  0  0  -0.118001  0  3.990355  0  0  -0.12536  0  4.010986  0  0  -0.086051  -0.11389  0  3.977066  0
C  C46  1  0.30544144  0.30721432  0.72043624  1  0  0.132142  0  3.684435  0  0  0.099579  0  3.936529  0  0  0.10786  0  3.953718  0  0  0.045418  0.094409  0  3.925136  0
C  C47  1  0.69455809  0.69278686  0.27956343  1  0  0.132228  0  3.68444  0  0  0.099648  0  3.936555  0  0  0.107927  0  3.953745  0  0  0.045428  0.09448  0  3.925163  0
C  C48  1  0.37772709  0.20071023  0.89726606  1  0  0.111598  0  3.660057  0  0  0.070185  0  3.916042  0  0  0.07851  0  3.931942  0  0  0.055848  0.0649  0  3.905023  0
C  C49  1  0.62227486  0.79928877  0.10273266  1  0  0.111564  0  3.660032  0  0  0.070161  0  3.916033  0  0  0.078479  0  3.93193  0  0  0.055851  0.064883  0  3.90502  0
C  C50  1  0.89563198  0.16737585  0.16758222  1  0  0.317076  0  3.802701  0  0  0.300643  0  4.062158  0  0  0.311587  0  4.078932  0  0  0.212789  0.293085  0  4.05078  0
C  C51  1  0.10436874  0.83262204  0.83241518  1  0  0.31724  0  3.802614  0  0  0.300659  0  4.062305  0  0  0.311601  0  4.079081  0  0  0.212744  0.293098  0  4.050929  0
C  C52  1  0.63388556  0.15999561  0.15261742  1  0  0.127973  0  3.708509  0  0  0.108044  0  3.964363  0  0  0.112717  0  3.982072  0  0  0.045621  0.104783  0  3.95316  0
C  C53  1  0.36611756  0.83999684  0.84737954  1  0  0.127987  0  3.708521  0  0  0.108021  0  3.964405  0  0  0.112684  0  3.982123  0  0  0.045622  0.104759  0  3.953203  0
C  C54  1  0.62345906  0.31140430  0.13436219  1  0  -0.115181  0  3.720264  0  0  -0.128459  0  3.965935  0  0  -0.134236  0  3.986223  0  0  -0.08331  -0.124945  0  3.953108  0
C  C55  1  0.37654043  0.68859141  0.86563491  1  0  -0.115198  0  3.720475  0  0  -0.128464  0  3.966126  0  0  -0.134241  0  3.986417  0  0  -0.083289  -0.12495  0  3.953299  0
C  C56  1  0.75754106  0.39106033  0.13578338  1  0  0.022515  0  3.711478  0  0  0.006625  0  3.952268  0  0  0.00939  0  3.972347  0  0  -0.066042  0.004789  0  3.939457  0
C  C57  1  0.24245722  0.60893431  0.86421583  1  0  0.022546  0  3.711488  0  0  0.006661  0  3.952245  0  0  0.009428  0  3.972324  0  0  -0.066051  0.004827  0  3.939432  0
C  C58  1  0.89785997  0.31830140  0.15496976  1  0  -0.183588  0  3.691198  0  0  -0.202014  0  3.939037  0  0  -0.208843  0  3.957737  0  0  -0.082435  -0.197334  0  3.926907  0
C  C59  1  0.10213833  0.68169540  0.84502825  1  0  -0.183717  0  3.691116  0  0  -0.202078  0  3.938985  0  0  -0.208907  0  3.957686  0  0  -0.082443  -0.197397  0  3.926854  0
N  N60  1  0.99145146  0.78616328  0.43575396  1  0  -0.338226  0  3.193218  0  0  -0.279273  0  3.444743  0  0  -0.296252  0  3.46563  0  0  -0.305818  -0.267305  0  3.430139  0
N  N61  1  0.00854567  0.21384008  0.56424839  1  0  -0.338274  0  3.193201  0  0  -0.279328  0  3.444725  0  0  -0.296308  0  3.465608  0  0  -0.305821  -0.26735  0  3.430111  0
N  N62  1  0.21412952  0.92469054  0.23343318  1  0  -0.248134  0  3.138616  0  0  -0.196257  0  3.431467  0  0  -0.212308  0  3.449276  0  0  -0.209822  -0.185342  0  3.419202  0
N  N63  1  0.78587122  0.07530955  0.76656731  1  0  -0.248125  0  3.138694  0  0  -0.196252  0  3.431531  0  0  -0.212303  0  3.44934  0  0  -0.209815  -0.185337  0  3.419263  0
N  N64  1  0.28715780  0.99528133  0.12023610  1  0  -0.249117  0  2.939652  0  0  -0.229752  0  3.22558  0  0  -0.238917  0  3.241102  0  0  -0.205948  -0.223401  0  3.214853  0
N  N65  1  0.71284415  0.00471767  0.87976348  1  0  -0.249122  0  2.93972  0  0  -0.229768  0  3.225638  0  0  -0.238937  0  3.241164  0  0  -0.205994  -0.223416  0  3.214909  0
N  N66  1  0.04151569  0.08599885  0.17519433  1  0  -0.207943  0  3.451466  0  0  -0.126939  0  3.668936  0  0  -0.143787  0  3.688408  0  0  -0.20115  -0.115715  0  3.65488  0
N  N67  1  0.95848625  0.91399906  0.82480542  1  0  -0.208  0  3.451558  0  0  -0.127027  0  3.669125  0  0  -0.143876  0  3.688597  0  0  -0.201216  -0.115802  0  3.655067  0
N  N68  1  0.42077126  0.26012635  0.77954116  1  0  -0.291211  0  3.237607  0  0  -0.216524  0  3.502011  0  0  -0.23669  0  3.521405  0  0  -0.307775  -0.202401  0  3.488372  0
N  N69  1  0.57922948  0.73987482  0.22045743  1  0  -0.291208  0  3.237662  0  0  -0.216494  0  3.502047  0  0  -0.236661  0  3.521442  0  0  -0.307736  -0.202372  0  3.488408  0
N  N70  1  0.76942013  0.08808588  0.16751625  1  0  -0.359245  0  3.08293  0  0  -0.330655  0  3.350581  0  0  -0.342614  0  3.368277  0  0  -0.315935  -0.321977  0  3.339066  0
N  N71  1  0.23057937  0.91190876  0.83248275  1  0  -0.359251  0  3.082751  0  0  -0.330622  0  3.350506  0  0  -0.342581  0  3.36821  0  0  -0.315896  -0.321942  0  3.33899  0
Cl  Cl72  1  0.24285936  0.54549108  0.18772754  1  0  -0.504569  0  0.921924  0  0  -0.442905  0  1.182302  0  0  -0.459956  0  1.165364  0  0  -0.285589  -0.43111  0  1.193832  0
Cl  Cl73  1  0.75713896  0.45450902  0.81227339  1  0  -0.504575  0  0.921912  0  0  -0.442915  0  1.182291  0  0  -0.459965  0  1.165356  0  0  -0.285585  -0.43112  0  1.193828  0
Cl  Cl74  1  0.34357363  0.65835487  0.53567621  1  0  -0.480014  0  0.951002  0  0  -0.420284  0  1.216678  0  0  -0.438963  0  1.202098  0  0  -0.28141  -0.407514  0  1.227193  0
Cl  Cl75  1  0.65642591  0.34164630  0.46432346  1  0  -0.480027  0  0.950999  0  0  -0.420294  0  1.216672  0  0  -0.438974  0  1.202092  0  0  -0.281415  -0.407525  0  1.227187  0
