# generated using pymatgen
data_H8PbC11(N3O2)2
_symmetry_space_group_name_H-M   'P 1'
_cell_length_a   7.96430743
_cell_length_b   21.45459070
_cell_length_c   22.03891604
_cell_angle_alpha   90.00054174
_cell_angle_beta   90.00007037
_cell_angle_gamma   91.50420705
_symmetry_Int_Tables_number   1
_chemical_formula_structural   H8PbC11(N3O2)2
_chemical_formula_sum   'H64 Pb8 C88 N48 O32'
_cell_volume   3764.51295771
_cell_formula_units_Z   8
loop_
 _symmetry_equiv_pos_site_id
 _symmetry_equiv_pos_as_xyz
  1  'x, y, z'
loop_
 _atom_site_type_symbol
 _atom_site_label
 _atom_site_symmetry_multiplicity
 _atom_site_fract_x
 _atom_site_fract_y
 _atom_site_fract_z
 _atom_site_occupancy
 _atom_site_pbe_bader_charge
 _atom_site_pbe_bader_spin_density
 _atom_site_pbe_cm5_charge
 _atom_site_pbe_ddec_charge
 _atom_site_pbe_ddec_spin_density
 _atom_site_pbe_ddec_sum_bond_order
 _atom_site_pbe_magmom
H  H0  1  0.13970206  0.57056386  0.09421057  1  0.525051  0  0.30065  0.269557  0  1.01164  0
H  H1  1  0.86030097  0.92943373  0.59421701  1  0.524849  0  0.300617  0.269516  0  1.011574  0
H  H2  1  0.86030181  0.42943430  0.90578402  1  0.524856  0  0.300591  0.269424  0  1.011623  0
H  H3  1  0.13970046  0.07056582  0.40578710  1  0.52494  0  0.300618  0.269469  0  1.011607  0
H  H4  1  0.35444768  0.61092819  0.95142719  1  0.520758  0  0.301986  0.272251  0  1.00574  0
H  H5  1  0.64555292  0.88907099  0.45143571  1  0.520729  0  0.302019  0.272275  0  1.005494  0
H  H6  1  0.64556001  0.38907090  0.04856694  1  0.520795  0  0.301985  0.27223  0  1.00551  0
H  H7  1  0.35444483  0.11092995  0.54856750  1  0.520811  0  0.301953  0.272185  0  1.005552  0
H  H8  1  0.35814373  0.51069220  0.00004827  1  0.114038  0  0.117732  0.065701  0  1.040769  0
H  H9  1  0.64186798  0.98930915  0.50005517  1  0.114372  0  0.1178  0.065735  0  1.040679  0
H  H10  1  0.64187021  0.48930644  0.99994723  1  0.114188  0  0.117786  0.065739  0  1.040645  0
H  H11  1  0.35813477  0.01069134  0.49994985  1  0.114078  0  0.11777  0.065756  0  1.040698  0
H  H12  1  0.13501364  0.50775329  0.00240585  1  0.113526  0  0.115556  0.061707  0  1.044527  0
H  H13  1  0.86499541  0.99224527  0.50241470  1  0.113539  0  0.115679  0.061743  0  1.044627  0
H  H14  1  0.86499525  0.49224487  0.99758828  1  0.113492  0  0.11565  0.061683  0  1.044657  0
H  H15  1  0.13500849  0.00775335  0.49758987  1  0.113569  0  0.115639  0.061764  0  1.044552  0
H  H16  1  0.78924870  0.61365969  0.19072247  1  0.161692  0  0.111135  0.098728  0  1.052029  0
H  H17  1  0.21075222  0.88633882  0.69072278  1  0.161678  0  0.111132  0.098685  0  1.052067  0
H  H18  1  0.21075763  0.38633754  0.80927394  1  0.161291  0  0.111151  0.098731  0  1.052048  0
H  H19  1  0.78924917  0.11365979  0.30927862  1  0.16171  0  0.111149  0.098754  0  1.052018  0
H  H20  1  0.79828641  0.56964344  0.08517533  1  0.094851  0  0.118557  0.092276  0  0.997685  0
H  H21  1  0.20171659  0.93035406  0.58517650  1  0.094917  0  0.118538  0.092252  0  0.997744  0
H  H22  1  0.20171759  0.43035705  0.91482062  1  0.094945  0  0.118546  0.092272  0  0.997783  0
H  H23  1  0.79828487  0.06964595  0.41482490  1  0.094859  0  0.118577  0.092279  0  0.997665  0
H  H24  1  0.69983401  0.61059456  0.97877707  1  0.092183  0  0.116641  0.08895  0  1.003861  0
H  H25  1  0.30017167  0.88940396  0.47877863  1  0.092121  0  0.116657  0.088942  0  1.003842  0
H  H26  1  0.30017216  0.38939987  0.02121843  1  0.092034  0  0.116697  0.088959  0  1.003821  0
H  H27  1  0.69982995  0.11059885  0.52121732  1  0.092043  0  0.116644  0.088934  0  1.003791  0
H  H28  1  0.70627914  0.70078137  0.90560873  1  0.140451  0  0.111652  0.100617  0  1.049484  0
H  H29  1  0.29372255  0.79921783  0.40560719  1  0.140416  0  0.111647  0.100627  0  1.049459  0
H  H30  1  0.29372598  0.29921679  0.09439039  1  0.140383  0  0.111647  0.100666  0  1.04944  0
H  H31  1  0.70627273  0.20078403  0.59438967  1  0.140403  0  0.111639  0.100639  0  1.049461  0
H  H32  1  0.21317640  0.55988588  0.32500773  1  0.156862  0  0.117513  0.107448  0  1.043569  0
H  H33  1  0.78679968  0.94010922  0.82500653  1  0.156625  0  0.117547  0.107504  0  1.043427  0
H  H34  1  0.78681507  0.44011504  0.67498822  1  0.156762  0  0.117541  0.107479  0  1.043553  0
H  H35  1  0.21318899  0.05988657  0.17499033  1  0.156751  0  0.117547  0.107471  0  1.043482  0
H  H36  1  0.20329749  0.44917953  0.36403273  1  0.112316  0  0.116984  0.088735  0  0.999766  0
H  H37  1  0.79667057  0.05081778  0.86403021  1  0.111208  0  0.11713  0.088908  0  0.999658  0
H  H38  1  0.79668532  0.55082371  0.63597094  1  0.110954  0  0.117055  0.088759  0  0.999703  0
H  H39  1  0.20332437  0.94917803  0.13596620  1  0.112583  0  0.117078  0.088775  0  0.999754  0
H  H40  1  0.86177957  0.46390788  0.35376883  1  0.516657  0  0.30436  0.272773  0  1.008707  0
H  H41  1  0.13818746  0.03609399  0.85376587  1  0.521598  0  0.304237  0.272555  0  1.008859  0
H  H42  1  0.13820326  0.53609582  0.64623438  1  0.5166  0  0.304333  0.272662  0  1.00876  0
H  H43  1  0.86180652  0.96390694  0.14623507  1  0.51643  0  0.304253  0.27254  0  1.008874  0
H  H44  1  0.86724353  0.35222323  0.35922775  1  0.103336  0  0.125273  0.075601  0  0.972783  0
H  H45  1  0.13274236  0.14777873  0.85923217  1  0.135553  0  0.125329  0.075696  0  0.972848  0
H  H46  1  0.13274805  0.64777956  0.64077002  1  0.103392  0  0.125312  0.075684  0  0.972884  0
H  H47  1  0.86725795  0.85222315  0.14076968  1  0.103308  0  0.12532  0.075703  0  0.972872  0
H  H48  1  0.64149665  0.34892421  0.35915463  1  0.092456  0  0.124703  0.075152  0  0.973001  0
H  H49  1  0.35848889  0.15107169  0.85915646  1  0.092691  0  0.124708  0.075182  0  0.97301  0
H  H50  1  0.35849361  0.65107764  0.64084722  1  0.092518  0  0.124702  0.075168  0  0.972992  0
H  H51  1  0.64151254  0.84892786  0.14084448  1  0.092682  0  0.124724  0.07521  0  0.973025  0
H  H52  1  0.64237163  0.36089717  0.46731926  1  0.547216  0  0.305043  0.273576  0  1.004667  0
H  H53  1  0.35762437  0.13909934  0.96732098  1  0.547184  0  0.305017  0.273485  0  1.004808  0
H  H54  1  0.35763226  0.63910145  0.53268304  1  0.547189  0  0.305029  0.273561  0  1.004642  0
H  H55  1  0.64237963  0.86090115  0.03267950  1  0.547275  0  0.305048  0.273559  0  1.004756  0
H  H56  1  0.28958450  0.34177346  0.56969935  1  0.147838  0  0.116216  0.10251  0  1.04666  0
H  H57  1  0.71042173  0.15822853  0.06970350  1  0.147918  0  0.116265  0.102527  0  1.046658  0
H  H58  1  0.71042688  0.65824662  0.43030249  1  0.148091  0  0.116294  0.102643  0  1.046712  0
H  H59  1  0.28958279  0.84175890  0.93030016  1  0.147988  0  0.116255  0.102589  0  1.04659  0
H  H60  1  0.30133582  0.37623464  0.46058299  1  0.120044  0  0.117321  0.090935  0  0.997167  0
H  H61  1  0.69866054  0.12376879  0.96058699  1  0.120069  0  0.117328  0.090992  0  0.996983  0
H  H62  1  0.69866535  0.62378262  0.53941705  1  0.120179  0  0.117266  0.090992  0  0.997018  0
H  H63  1  0.30134422  0.87622284  0.03941531  1  0.120252  0  0.117277  0.090973  0  0.99702  0
Pb  Pb64  1  0.49620402  0.67659930  0.29189690  1  1.364021  0  0.62697  0.951667  0  2.001273  0
Pb  Pb65  1  0.50378968  0.82339878  0.79189722  1  1.363997  0  0.626934  0.951658  0  2.001321  0
Pb  Pb66  1  0.50379242  0.32340070  0.70809905  1  1.363941  0  0.626949  0.951668  0  2.001327  0
Pb  Pb67  1  0.49620655  0.17659749  0.20810962  1  1.363895  0  0.626939  0.951591  0  2.00138  0
Pb  Pb68  1  0.99928910  0.29434718  0.67716783  1  1.366084  0  0.62842  0.952323  0  1.99448  0
Pb  Pb69  1  0.00071259  0.20565678  0.17716937  1  1.36608  0  0.628401  0.952305  0  1.994503  0
Pb  Pb70  1  0.00070613  0.70565375  0.32283311  1  1.366058  0  0.62843  0.952292  0  1.994499  0
Pb  Pb71  1  0.99928888  0.79434324  0.82283066  1  1.366058  0  0.62839  0.952261  0  1.994531  0
C  C72  1  0.38920485  0.57432613  0.10235850  1  1.016982  0  0.237115  0.330307  0  4.060639  0
C  C73  1  0.61079691  0.92567060  0.60236162  1  1.017931  0  0.237077  0.33025  0  4.060661  0
C  C74  1  0.61079899  0.42567156  0.89763972  1  1.017938  0  0.237097  0.330233  0  4.060602  0
C  C75  1  0.38920317  0.07432708  0.39764068  1  1.017316  0  0.237138  0.330402  0  4.060569  0
C  C76  1  0.24657105  0.53771164  0.00957243  1  0.62843  0  0.035529  0.120759  0  3.943728  0
C  C77  1  0.75343557  0.96228793  0.50957822  1  0.62813  0  0.035365  0.12079  0  3.943683  0
C  C78  1  0.75343909  0.46228653  0.99042397  1  0.628425  0  0.035497  0.120879  0  3.943707  0
C  C79  1  0.24656715  0.03771209  0.49042499  1  0.628323  0  0.035412  0.120654  0  3.943732  0
C  C80  1  0.10576988  0.62026790  0.95340050  1  0.980452  0  0.238291  0.331622  0  4.057584  0
C  C81  1  0.89423828  0.87973178  0.45340361  1  0.980536  0  0.238327  0.331497  0  4.057474  0
C  C82  1  0.89423898  0.37972979  0.04659454  1  0.980479  0  0.23836  0.331531  0  4.05745  0
C  C83  1  0.10576210  0.12027150  0.54659552  1  0.98075  0  0.238372  0.331653  0  4.057414  0
C  C84  1  0.11240306  0.67354470  0.91386569  1  0.529645  0  0.1041  -0.039697  0  3.90521  0
C  C85  1  0.88759990  0.82645412  0.41386829  1  0.529361  0  0.104094  -0.039704  0  3.905174  0
C  C86  1  0.88760083  0.32645392  0.08613072  1  0.52946  0  0.104175  -0.039507  0  3.905143  0
C  C87  1  0.11240049  0.17354915  0.58613083  1  0.529436  0  0.104163  -0.039626  0  3.905231  0
C  C88  1  0.27564075  0.70090492  0.88924803  1  1.596857  0  0.202328  0.553227  0  4.253491  0
C  C89  1  0.72435709  0.79909366  0.38925167  1  1.59769  0  0.202341  0.55337  0  4.253314  0
C  C90  1  0.72436184  0.29909277  0.11074792  1  1.597704  0  0.202191  0.553213  0  4.253632  0
C  C91  1  0.27564322  0.20090822  0.61074791  1  1.597713  0  0.202309  0.553382  0  4.253427  0
C  C92  1  0.21859299  0.62086233  0.19079225  1  1.595834  0  0.202856  0.551793  0  4.249967  0
C  C93  1  0.78140261  0.87913105  0.69079547  1  1.595633  0  0.202848  0.551732  0  4.249924  0
C  C94  1  0.78140575  0.37913395  0.80920370  1  1.595001  0  0.202852  0.551765  0  4.249975  0
C  C95  1  0.21859139  0.12087035  0.30920774  1  1.595959  0  0.202643  0.551603  0  4.250033  0
C  C96  1  0.38205991  0.60305367  0.16119909  1  0.523012  0  0.104178  -0.037994  0  3.904048  0
C  C97  1  0.61793814  0.89694036  0.66120105  1  0.521675  0  0.104181  -0.038009  0  3.903689  0
C  C98  1  0.61794129  0.39694168  0.83879912  1  0.522055  0  0.104168  -0.038052  0  3.903759  0
C  C99  1  0.38205571  0.10305824  0.33880125  1  0.522126  0  0.104132  -0.038136  0  3.903868  0
C  C100  1  0.67400738  0.60331059  0.16560183  1  0.469248  0  0.019772  -0.024388  0  3.986691  0
C  C101  1  0.32599084  0.89668628  0.66560319  1  0.469191  0  0.019789  -0.024242  0  3.986588  0
C  C102  1  0.32599526  0.39668803  0.83439548  1  0.469596  0  0.01974  -0.024365  0  3.986668  0
C  C103  1  0.67400798  0.10331140  0.33439820  1  0.469605  0  0.019704  -0.024503  0  3.986695  0
C  C104  1  0.67805059  0.57798654  0.10728714  1  0.497542  0  0.056168  0.085233  0  3.984724  0
C  C105  1  0.32195125  0.92201116  0.60728964  1  0.497577  0  0.056134  0.085119  0  3.984806  0
C  C106  1  0.32195334  0.42201254  0.89270972  1  0.497471  0  0.056153  0.085102  0  3.984715  0
C  C107  1  0.67805014  0.07798745  0.39271266  1  0.497523  0  0.05612  0.085198  0  3.984656  0
C  C108  1  0.81871332  0.62813221  0.95967143  1  0.527735  0  0.055793  0.085046  0  3.980049  0
C  C109  1  0.18129351  0.87186567  0.45967277  1  0.528103  0  0.055785  0.085138  0  3.979872  0
C  C110  1  0.18129659  0.37186176  0.04032498  1  0.528028  0  0.055659  0.084999  0  3.980121  0
C  C111  1  0.81870688  0.12813761  0.54032408  1  0.528313  0  0.055728  0.084993  0  3.980023  0
C  C112  1  0.82156227  0.67854116  0.91956942  1  0.46766  0  0.019534  -0.025259  0  3.984729  0
C  C113  1  0.17843946  0.82145771  0.41956893  1  0.467651  0  0.019526  -0.025374  0  3.98476  0
C  C114  1  0.17844278  0.32145559  0.08042971  1  0.467515  0  0.019569  -0.025356  0  3.98496  0
C  C115  1  0.82155845  0.17854603  0.58042792  1  0.466849  0  0.019628  -0.025247  0  3.984727  0
C  C116  1  0.32759758  0.53474133  0.33375898  1  0.478298  0  0.031093  -0.008932  0  3.935913  0
C  C117  1  0.67237731  0.96525433  0.83375523  1  0.478717  0  0.031249  -0.00866  0  3.9358  0
C  C118  1  0.67239266  0.46526006  0.66624106  1  0.478454  0  0.031183  -0.008796  0  3.935785  0
C  C119  1  0.32761403  0.03474427  0.16624026  1  0.478615  0  0.031197  -0.008757  0  3.935933  0
C  C120  1  0.32334210  0.47302217  0.35428193  1  0.491194  0  0.059672  0.087387  0  3.980577  0
C  C121  1  0.67662710  0.02697365  0.85427959  1  0.492929  0  0.059428  0.086963  0  3.980736  0
C  C122  1  0.67664191  0.52698014  0.64571992  1  0.492918  0  0.059544  0.087219  0  3.980603  0
C  C123  1  0.32336424  0.97302494  0.14571772  1  0.491319  0  0.059562  0.087237  0  3.980663  0
C  C124  1  0.61128609  0.46985927  0.35279144  1  1.047376  0  0.239788  0.333511  0  4.064875  0
C  C125  1  0.38868682  0.03013562  0.85278536  1  1.047658  0  0.239848  0.333571  0  4.064731  0
C  C126  1  0.38869907  0.53014118  0.64721631  1  1.047038  0  0.23994  0.333863  0  4.06457  0
C  C127  1  0.61130711  0.96986438  0.14721331  1  1.047984  0  0.239941  0.333809  0  4.064585  0
C  C128  1  0.75356637  0.37284775  0.37760259  1  0.69331  0  0.047004  0.132351  0  3.966495  0
C  C129  1  0.24642061  0.12715020  0.87760460  1  0.660687  0  0.046924  0.132215  0  3.966369  0
C  C130  1  0.24642881  0.62715226  0.62239790  1  0.693392  0  0.046957  0.13221  0  3.966685  0
C  C131  1  0.75357834  0.87284981  0.12239679  1  0.693097  0  0.046896  0.132159  0  3.966504  0
C  C132  1  0.89291764  0.36234501  0.47655934  1  0.965554  0  0.240014  0.333089  0  4.06343  0
C  C133  1  0.10707992  0.13765625  0.97656502  1  0.96588  0  0.239908  0.332907  0  4.063686  0
C  C134  1  0.10708665  0.63766060  0.52343978  1  0.965515  0  0.240135  0.333059  0  4.063282  0
C  C135  1  0.89292408  0.86234424  0.02343773  1  0.965896  0  0.23996  0.333061  0  4.06369  0
C  C136  1  0.88398520  0.34780686  0.54005514  1  0.511482  0  0.109536  -0.043712  0  3.903246  0
C  C137  1  0.11601332  0.15219390  0.04005987  1  0.511085  0  0.109521  -0.043827  0  3.903415  0
C  C138  1  0.11602290  0.65219970  0.45994580  1  0.511077  0  0.109491  -0.043629  0  3.903122  0
C  C139  1  0.88399191  0.84780612  0.95994289  1  0.511278  0  0.109494  -0.043866  0  3.903516  0
C  C140  1  0.71978516  0.33970723  0.57304897  1  1.593648  0  0.215033  0.551325  0  4.233341  0
C  C141  1  0.28021964  0.16029153  0.07305385  1  1.593885  0  0.215116  0.551615  0  4.233402  0
C  C142  1  0.28022396  0.66029513  0.42694970  1  1.593905  0  0.215129  0.551424  0  4.233413  0
C  C143  1  0.71978687  0.83970896  0.92694981  1  1.593622  0  0.215089  0.55153  0  4.233411  0
C  C144  1  0.17521514  0.34900005  0.54391679  1  0.456283  0  0.028672  -0.011849  0  3.94684  0
C  C145  1  0.82478952  0.15099796  0.04392047  1  0.456148  0  0.028558  -0.012002  0  3.946998  0
C  C146  1  0.82479202  0.65101209  0.45608506  1  0.45558  0  0.028512  -0.012271  0  3.947251  0
C  C147  1  0.17521650  0.84899368  0.95608184  1  0.455864  0  0.028593  -0.012017  0  3.94695  0
C  C148  1  0.18075636  0.36670523  0.48287757  1  0.522207  0  0.059728  0.08777  0  3.979396  0
C  C149  1  0.81924598  0.13329144  0.98288172  1  0.522281  0  0.059725  0.08778  0  3.979353  0
C  C150  1  0.81925077  0.63330645  0.51712382  1  0.52285  0  0.059729  0.087726  0  3.979428  0
C  C151  1  0.18076119  0.86669832  0.01712104  1  0.522348  0  0.05963  0.087647  0  3.979602  0
C  C152  1  0.61909455  0.53399359  0.33437431  1  0.514479  0  0.10972  -0.044413  0  3.907758  0
C  C153  1  0.38087900  0.96600067  0.83436591  1  0.513318  0  0.109721  -0.044472  0  3.907869  0
C  C154  1  0.38089564  0.46600687  0.66563207  1  0.513538  0  0.109728  -0.044535  0  3.908051  0
C  C155  1  0.61911241  0.03399932  0.16563276  1  0.513405  0  0.109802  -0.044515  0  3.907899  0
C  C156  1  0.78263540  0.56917036  0.32544032  1  1.579002  0  0.215141  0.548783  0  4.232199  0
C  C157  1  0.21733701  0.93082661  0.82542607  1  1.579735  0  0.215225  0.54894  0  4.231835  0
C  C158  1  0.21735353  0.43083009  0.67456743  1  1.579676  0  0.215204  0.548963  0  4.232262  0
C  C159  1  0.78265702  0.06917526  0.17457260  1  1.579423  0  0.215333  0.548967  0  4.232025  0
N  N160  1  0.24749960  0.55699172  0.07259377  1  -1.230654  0  -0.42192  -0.357176  0  3.55063  0
N  N161  1  0.75250476  0.94300845  0.57260120  1  -1.230863  0  -0.421835  -0.357076  0  3.550277  0
N  N162  1  0.75250681  0.44300690  0.92740173  1  -1.231148  0  -0.42183  -0.356955  0  3.550327  0
N  N163  1  0.24749659  0.05698970  0.42740201  1  -1.230695  0  -0.421858  -0.357095  0  3.55046  0
N  N164  1  0.24597739  0.58941868  0.96729309  1  -1.215621  0  -0.421794  -0.356347  0  3.551393  0
N  N165  1  0.75402945  0.91057881  0.46729914  1  -1.215706  0  -0.421858  -0.35638  0  3.551337  0
N  N166  1  0.75403273  0.41057903  0.03270150  1  -1.21549  0  -0.421916  -0.356427  0  3.551345  0
N  N167  1  0.24596830  0.08942213  0.53270271  1  -1.215693  0  -0.421802  -0.356272  0  3.551213  0
N  N168  1  0.95731516  0.59957577  0.97703833  1  -1.176862  0  -0.314361  -0.322989  0  3.290165  0
N  N169  1  0.04269426  0.90042228  0.47704260  1  -1.177259  0  -0.314385  -0.322963  0  3.289881  0
N  N170  1  0.04269476  0.40041820  0.02295580  1  -1.177268  0  -0.314363  -0.322911  0  3.289914  0
N  N171  1  0.95730741  0.09958147  0.52295562  1  -1.177293  0  -0.314401  -0.322986  0  3.289937  0
N  N172  1  0.96935629  0.70045833  0.89809300  1  -1.249854  0  -0.289822  -0.220434  0  3.56344  0
N  N173  1  0.03064289  0.79954126  0.39809315  1  -1.249729  0  -0.289846  -0.220411  0  3.563545  0
N  N174  1  0.03064637  0.29954075  0.10190522  1  -1.249537  0  -0.289867  -0.22053  0  3.563566  0
N  N175  1  0.96935502  0.20046248  0.60190416  1  -1.249147  0  -0.289943  -0.220566  0  3.563599  0
N  N176  1  0.47627895  0.56414430  0.32525601  1  -1.227594  0  -0.273878  -0.173352  0  3.534501  0
N  N177  1  0.52369833  0.93584988  0.82525011  1  -1.228014  0  -0.273841  -0.173368  0  3.534579  0
N  N178  1  0.52371498  0.43585570  0.67474720  1  -1.227516  0  -0.273911  -0.173409  0  3.534533  0
N  N179  1  0.47629052  0.06414917  0.17474766  1  -1.227756  0  -0.273969  -0.173413  0  3.53456  0
N  N180  1  0.52534580  0.61630176  0.19067432  1  -1.244055  0  -0.28966  -0.2196  0  3.567922  0
N  N181  1  0.47465111  0.88369255  0.69067518  1  -1.243687  0  -0.289697  -0.219662  0  3.567803  0
N  N182  1  0.47465414  0.38369359  0.80932390  1  -1.243678  0  -0.289672  -0.219604  0  3.567801  0
N  N183  1  0.52534512  0.11630373  0.30932758  1  -1.244364  0  -0.289585  -0.219429  0  3.567812  0
N  N184  1  0.53947364  0.56436386  0.07558358  1  -1.20179  0  -0.314328  -0.324471  0  3.293872  0
N  N185  1  0.46052806  0.93563354  0.57558491  1  -1.201762  0  -0.314267  -0.324356  0  3.293838  0
N  N186  1  0.46052902  0.43563522  0.92441555  1  -1.201647  0  -0.314295  -0.324323  0  3.293701  0
N  N187  1  0.53947201  0.06436414  0.42441603  1  -1.201725  0  -0.314284  -0.324423  0  3.293836  0
N  N188  1  0.02611139  0.34031664  0.57126788  1  -1.201681  0  -0.274679  -0.175838  0  3.534217  0
N  N189  1  0.97388597  0.15968395  0.07127352  1  -1.201703  0  -0.274568  -0.175613  0  3.534024  0
N  N190  1  0.97389436  0.65969271  0.42873352  1  -1.201523  0  -0.274555  -0.175605  0  3.53398  0
N  N191  1  0.02611648  0.84031140  0.92872924  1  -1.201692  0  -0.274583  -0.175688  0  3.534129  0
N  N192  1  0.46147470  0.44079341  0.36426869  1  -1.169699  0  -0.318376  -0.333735  0  3.271746  0
N  N193  1  0.53849957  0.05920252  0.86426613  1  -1.169524  0  -0.318462  -0.333722  0  3.271462  0
N  N194  1  0.53851052  0.55920797  0.63573542  1  -1.169602  0  -0.318401  -0.333757  0  3.271627  0
N  N195  1  0.46149564  0.94079795  0.13573254  1  -1.169676  0  -0.31851  -0.33385  0  3.271518  0
N  N196  1  0.75316404  0.43731362  0.35855748  1  -1.237697  0  -0.422003  -0.360352  0  3.561386  0
N  N197  1  0.24681522  0.06268226  0.85855573  1  -1.242576  0  -0.421888  -0.360226  0  3.561595  0
N  N198  1  0.24682491  0.56268730  0.64144663  1  -1.237086  0  -0.422057  -0.360407  0  3.561345  0
N  N199  1  0.75317998  0.93731821  0.14144476  1  -1.237621  0  -0.421958  -0.360262  0  3.561503  0
N  N200  1  0.75186062  0.36392849  0.44266337  1  -1.270205  0  -0.421902  -0.360297  0  3.55937  0
N  N201  1  0.24813413  0.13606964  0.94266683  1  -1.270287  0  -0.421826  -0.360037  0  3.559269  0
N  N202  1  0.24814081  0.63607105  0.55733712  1  -1.270504  0  -0.421915  -0.360232  0  3.559383  0
N  N203  1  0.75186987  0.86393085  0.05733502  1  -1.270471  0  -0.421795  -0.360148  0  3.559378  0
N  N204  1  0.04328413  0.37317899  0.44919851  1  -1.171498  0  -0.318648  -0.33357  0  3.274406  0
N  N205  1  0.95671706  0.12682155  0.94920130  1  -1.171351  0  -0.31859  -0.333538  0  3.274493  0
N  N206  1  0.95671906  0.62682942  0.55080243  1  -1.17153  0  -0.318623  -0.333476  0  3.274153  0
N  N207  1  0.04329050  0.87317521  0.05079919  1  -1.171571  0  -0.318517  -0.333441  0  3.274573  0
O  O208  1  0.26417970  0.74775239  0.85275598  1  -1.203323  0  -0.312694  -0.61043  0  2.371012  0
O  O209  1  0.73581823  0.75225002  0.35275329  1  -1.203854  0  -0.312694  -0.610448  0  2.370781  0
O  O210  1  0.73582317  0.25225042  0.14724632  1  -1.203939  0  -0.312656  -0.610434  0  2.370959  0
O  O211  1  0.26418467  0.24775326  0.64724447  1  -1.203905  0  -0.312662  -0.610486  0  2.370896  0
O  O212  1  0.77031469  0.62665863  0.30816750  1  -1.182059  0  -0.287256  -0.549422  0  2.380612  0
O  O213  1  0.22966637  0.87333680  0.80815454  1  -1.181875  0  -0.28722  -0.549542  0  2.380473  0
O  O214  1  0.22967424  0.37334183  0.69184025  1  -1.182156  0  -0.28723  -0.549485  0  2.380677  0
O  O215  1  0.77032884  0.12666367  0.19184323  1  -1.181829  0  -0.287189  -0.549493  0  2.38061  0
O  O216  1  0.91930358  0.54341836  0.33537720  1  -1.149549  0  -0.296404  -0.509529  0  2.14072  0
O  O217  1  0.08066006  0.95657823  0.83534951  1  -1.150082  0  -0.296563  -0.509573  0  2.140589  0
O  O218  1  0.08068410  0.45658210  0.66463373  1  -1.149907  0  -0.29655  -0.509651  0  2.140638  0
O  O219  1  0.91933277  0.04342457  0.16464825  1  -1.149927  0  -0.296701  -0.509644  0  2.140696  0
O  O220  1  0.08252778  0.60825783  0.16412342  1  -1.157679  0  -0.313882  -0.524334  0  2.130091  0
O  O221  1  0.91747122  0.89173064  0.66412909  1  -1.157296  0  -0.313867  -0.524318  0  2.13004  0
O  O222  1  0.91747593  0.39173753  0.83586844  1  -1.157421  0  -0.31388  -0.524307  0  2.130098  0
O  O223  1  0.08252299  0.10827449  0.33587457  1  -1.157627  0  -0.313732  -0.524201  0  2.129892  0
O  O224  1  0.41187948  0.67762014  0.90515981  1  -1.162059  0  -0.314241  -0.526518  0  2.126788  0
O  O225  1  0.58811831  0.82237672  0.40516633  1  -1.162176  0  -0.314221  -0.526599  0  2.12686  0
O  O226  1  0.58812433  0.32237708  0.09483387  1  -1.162085  0  -0.314156  -0.526526  0  2.12691  0
O  O227  1  0.41188064  0.17762328  0.59483371  1  -1.162083  0  -0.314223  -0.526604  0  2.126888  0
O  O228  1  0.73059186  0.32125718  0.62889056  1  -1.173968  0  -0.289176  -0.55627  0  2.384183  0
O  O229  1  0.26941322  0.17874306  0.12889561  1  -1.174253  0  -0.289238  -0.556453  0  2.384345  0
O  O230  1  0.26941217  0.67874378  0.37110720  1  -1.174155  0  -0.289202  -0.556368  0  2.384245  0
O  O231  1  0.73058837  0.82125929  0.87110760  1  -1.174047  0  -0.289224  -0.556395  0  2.384233  0
O  O232  1  0.58452204  0.35121443  0.54683264  1  -1.15189  0  -0.300728  -0.514946  0  2.130757  0
O  O233  1  0.41548101  0.14877707  0.04683929  1  -1.151818  0  -0.30078  -0.515068  0  2.130777  0
O  O234  1  0.41548434  0.64878373  0.45316558  1  -1.151961  0  -0.300816  -0.515022  0  2.130791  0
O  O235  1  0.58452673  0.85122295  0.95316483  1  -1.151818  0  -0.300728  -0.515001  0  2.130785  0
O  O236  1  0.22985803  0.64896339  0.24257986  1  -1.197823  0  -0.312069  -0.606866  0  2.35951  0
O  O237  1  0.77013017  0.85102908  0.74258237  1  -1.197514  0  -0.312039  -0.606789  0  2.359473  0
O  O238  1  0.77013435  0.35103148  0.75741654  1  -1.197231  0  -0.312055  -0.606855  0  2.359511  0
O  O239  1  0.22986243  0.14896952  0.25741993  1  -1.197429  0  -0.311971  -0.606716  0  2.359622  0
