# generated using pymatgen
data_Nd2H15C12(NO4)3
_symmetry_space_group_name_H-M   'P 1'
_cell_length_a   11.81455545
_cell_length_b   19.25751433
_cell_length_c   19.26191768
_cell_angle_alpha   84.61130245
_cell_angle_beta   72.13863845
_cell_angle_gamma   72.12907267
_symmetry_Int_Tables_number   1
_chemical_formula_structural   Nd2H15C12(NO4)3
_chemical_formula_sum   'Nd16 H120 C96 N24 O96'
_cell_volume   3969.96324365
_cell_formula_units_Z   8
loop_
 _symmetry_equiv_pos_site_id
 _symmetry_equiv_pos_as_xyz
  1  'x, y, z'
loop_
 _atom_site_type_symbol
 _atom_site_label
 _atom_site_symmetry_multiplicity
 _atom_site_fract_x
 _atom_site_fract_y
 _atom_site_fract_z
 _atom_site_occupancy
 _atom_site_pbe_bader_charge
 _atom_site_pbe_bader_spin_density
 _atom_site_pbe_cm5_charge
 _atom_site_pbe_ddec_charge
 _atom_site_pbe_ddec_spin_density
 _atom_site_pbe_ddec_sum_bond_order
 _atom_site_pbe_magmom
Nd  Nd0  1  0.00331540  0.79686589  0.36544911  1  2.22548  0  1.537796  2.061016  0  2.190564  0
Nd  Nd1  1  0.66558732  0.70303964  0.13445520  1  2.225497  0  1.538058  2.061588  0  2.190493  0
Nd  Nd2  1  0.36864485  0.63444563  0.29687900  1  2.225749  0  1.537767  2.060947  0  2.192569  0
Nd  Nd3  1  0.80012683  0.86549670  0.20306166  1  2.225923  0  1.538329  2.062063  0  2.190545  0
Nd  Nd4  1  0.99668296  0.20313415  0.63455110  1  2.225465  0  1.537789  2.061017  0  2.190711  0
Nd  Nd5  1  0.33441162  0.29696094  0.86554327  1  2.225506  0  1.538024  2.061513  0  2.190571  0
Nd  Nd6  1  0.63135533  0.36555496  0.70311913  1  2.225751  0  1.537747  2.061016  0  2.192462  0
Nd  Nd7  1  0.19987594  0.13450280  0.79693887  1  2.225834  0  1.538358  2.06206  0  2.190527  0
Nd  Nd8  1  0.06869376  0.97820320  0.39377111  1  2.178888  0  1.493386  1.960869  0  2.277011  0
Nd  Nd9  1  0.94078076  0.52176148  0.10619451  1  2.17875  0  1.492926  1.961457  0  2.276737  0
Nd  Nd10  1  0.46243911  0.60622646  0.47814152  1  2.176683  0  1.493232  1.960179  0  2.277755  0
Nd  Nd11  1  0.04681859  0.89377892  0.02181723  1  2.18002  0  1.492964  1.960948  0  2.275685  0
Nd  Nd12  1  0.93130593  0.02179684  0.60623133  1  2.178974  0  1.493344  1.960876  0  2.277029  0
Nd  Nd13  1  0.05921656  0.47823856  0.89380673  1  2.178854  0  1.492936  1.96141  0  2.276807  0
Nd  Nd14  1  0.53755951  0.39377412  0.52185816  1  2.176677  0  1.493247  1.960182  0  2.277724  0
Nd  Nd15  1  0.95318192  0.10622222  0.97818296  1  2.180005  0  1.493023  1.96101  0  2.275672  0
H  H16  1  0.84910700  0.78101705  0.56226863  1  0.111615  0  0.133513  0.138614  0  0.943893  0
H  H17  1  0.69224447  0.71896031  0.93772533  1  0.112111  0  0.13381  0.139719  0  0.943339  0
H  H18  1  0.41163615  0.43765009  0.28100677  1  0.104668  0  0.133188  0.138732  0  0.94248  0
H  H19  1  0.63008843  0.06232308  0.21897412  1  0.107543  0  0.133813  0.139164  0  0.943103  0
H  H20  1  0.15089497  0.21898300  0.43773242  1  0.111613  0  0.133501  0.138584  0  0.943901  0
H  H21  1  0.30775372  0.28103864  0.06227471  1  0.112089  0  0.133822  0.139723  0  0.94325  0
H  H22  1  0.58836813  0.56234832  0.71899014  1  0.104752  0  0.133209  0.138764  0  0.942537  0
H  H23  1  0.36991454  0.93767642  0.78102710  1  0.107725  0  0.133828  0.139159  0  0.943124  0
H  H24  1  0.70692945  0.85237094  0.57854184  1  0.100843  0  0.118823  0.125287  0  0.946172  0
H  H25  1  0.63769354  0.64765322  0.92138433  1  0.078379  0  0.119286  0.126363  0  0.946631  0
H  H26  1  0.28584043  0.42121960  0.35227985  1  0.09776  0  0.119009  0.125171  0  0.947001  0
H  H27  1  0.55938074  0.07869233  0.14760474  1  0.080749  0  0.118916  0.125569  0  0.946476  0
H  H28  1  0.29306835  0.14762855  0.42146009  1  0.100803  0  0.118838  0.125292  0  0.94619  0
H  H29  1  0.36230768  0.35234464  0.07861501  1  0.07847  0  0.119268  0.126338  0  0.946576  0
H  H30  1  0.71416245  0.57877990  0.64771878  1  0.097735  0  0.119016  0.125209  0  0.947059  0
H  H31  1  0.44062195  0.92130771  0.85239647  1  0.080684  0  0.118906  0.125553  0  0.946451  0
H  H32  1  0.68626076  0.91856904  0.45423162  1  0.098835  0  0.131949  0.141764  0  0.947183  0
H  H33  1  0.55864428  0.58145362  0.04564282  1  0.109263  0  0.132169  0.14195  0  0.947207  0
H  H34  1  0.14027686  0.54558432  0.41852715  1  0.095616  0  0.132533  0.142818  0  0.947928  0
H  H35  1  0.60457087  0.95430991  0.08138808  1  0.123454  0  0.132389  0.142198  0  0.94745  0
H  H36  1  0.31374213  0.08143045  0.54576701  1  0.098877  0  0.131971  0.141777  0  0.947182  0
H  H37  1  0.44135424  0.41854533  0.95435601  1  0.109178  0  0.132175  0.141942  0  0.947243  0
H  H38  1  0.85972896  0.45441845  0.58146871  1  0.09582  0  0.132576  0.142859  0  0.947789  0
H  H39  1  0.39542939  0.04569067  0.91861263  1  0.123452  0  0.132406  0.142237  0  0.947386  0
H  H40  1  0.59616190  0.85587274  0.47647694  1  0.143289  0  0.115419  0.121302  0  0.998181  0
H  H41  1  0.42812838  0.64429648  0.02347894  1  0.13418  0  0.11546  0.121418  0  0.999395  0
H  H42  1  0.07269630  0.52328108  0.35572327  1  0.129777  0  0.11564  0.122545  0  0.999256  0
H  H43  1  0.45182216  0.97656817  0.14414928  1  0.14608  0  0.115151  0.12142  0  0.997747  0
H  H44  1  0.40383818  0.14413003  0.52352463  1  0.143292  0  0.115428  0.121312  0  0.99817  0
H  H45  1  0.57187140  0.35570138  0.97652005  1  0.134132  0  0.115454  0.121371  0  0.999444  0
H  H46  1  0.92730719  0.47671842  0.64427742  1  0.12984  0  0.115633  0.122501  0  0.999249  0
H  H47  1  0.54818028  0.02343132  0.85585245  1  0.146045  0  0.115189  0.121464  0  0.997707  0
H  H48  1  0.96772889  0.05286723  0.21347578  1  0.077161  0  0.124617  0.122272  0  0.956476  0
H  H49  1  0.73422992  0.44721906  0.28642841  1  0.054635  0  0.1244  0.123041  0  0.956018  0
H  H50  1  0.18120288  0.78650872  0.55271923  1  0.05618  0  0.124088  0.121891  0  0.956701  0
H  H51  1  0.02074184  0.71344555  0.94718762  1  0.084968  0  0.124663  0.122341  0  0.957331  0
H  H52  1  0.03226513  0.94713172  0.78652840  1  0.077508  0  0.124615  0.12228  0  0.956518  0
H  H53  1  0.26577307  0.55278207  0.71357108  1  0.054668  0  0.124383  0.123073  0  0.956003  0
H  H54  1  0.81879576  0.21349351  0.44727873  1  0.05618  0  0.124151  0.12197  0  0.956728  0
H  H55  1  0.97926333  0.28655722  0.05281065  1  0.085094  0  0.124683  0.122427  0  0.957166  0
H  H56  1  0.81440318  0.09339238  0.26949995  1  0.096626  0  0.11653  0.114673  0  0.964986  0
H  H57  1  0.67749261  0.40650231  0.23054184  1  0.070487  0  0.116236  0.114388  0  0.966836  0
H  H58  1  0.08378172  0.73059891  0.59337472  1  0.091406  0  0.116155  0.114725  0  0.964721  0
H  H59  1  0.90799301  0.76933770  0.90656560  1  0.083687  0  0.116427  0.114604  0  0.96518  0
H  H60  1  0.18559499  0.90660276  0.73050732  1  0.096521  0  0.116557  0.114713  0  0.964954  0
H  H61  1  0.32250874  0.59349664  0.76946214  1  0.070617  0  0.116209  0.114381  0  0.966789  0
H  H62  1  0.91621608  0.26940331  0.40662497  1  0.091412  0  0.116162  0.114685  0  0.964813  0
H  H63  1  0.09201375  0.23066398  0.09343164  1  0.083998  0  0.116495  0.114741  0  0.965192  0
H  H64  1  0.06202897  0.15707908  0.31494654  1  0.085909  0  0.116748  0.115309  0  0.985733  0
H  H65  1  0.03428201  0.34299342  0.18501396  1  0.083475  0  0.116436  0.114833  0  0.985986  0
H  H66  1  0.37689124  0.68503827  0.65697521  1  0.050807  0  0.116432  0.115394  0  0.985929  0
H  H67  1  0.21901601  0.81495058  0.84286618  1  0.081898  0  0.116693  0.115239  0  0.985893  0
H  H68  1  0.93796853  0.84292206  0.68505487  1  0.085963  0  0.116742  0.115266  0  0.985809  0
H  H69  1  0.96571835  0.65700498  0.81498331  1  0.083505  0  0.11644  0.114848  0  0.985962  0
H  H70  1  0.62310780  0.31496068  0.34302310  1  0.050493  0  0.116474  0.115436  0  0.985871  0
H  H71  1  0.78099170  0.18505056  0.15713570  1  0.081893  0  0.116725  0.115265  0  0.985935  0
H  H72  1  0.02699734  0.15597752  0.23188000  1  0.042767  0  0.095724  0.086488  0  0.996531  0
H  H73  1  0.91501441  0.34392879  0.26801411  1  0.030691  0  0.095558  0.085996  0  0.99622  0
H  H74  1  0.25870490  0.76811647  0.65595058  1  0.020289  0  0.095581  0.086305  0  0.99745  0
H  H75  1  0.18301140  0.73180943  0.84410552  1  0.02351  0  0.095834  0.086714  0  0.996286  0
H  H76  1  0.97299907  0.84402252  0.76812038  1  0.042723  0  0.09574  0.086476  0  0.996587  0
H  H77  1  0.08498837  0.65606579  0.73198264  1  0.030795  0  0.09554  0.085991  0  0.996295  0
H  H78  1  0.74129675  0.23188303  0.34404840  1  0.020278  0  0.095581  0.086318  0  0.99739  0
H  H79  1  0.81699517  0.26819279  0.15589429  1  0.023662  0  0.09584  0.086738  0  0.996232  0
H  H80  1  0.46545416  0.84504861  0.32290828  1  0.098126  0  0.118415  0.126536  0  0.988442  0
H  H81  1  0.13328940  0.65495311  0.17717205  1  0.102066  0  0.118464  0.127103  0  0.988592  0
H  H82  1  0.78819309  0.67711196  0.34493116  1  0.099912  0  0.118215  0.126706  0  0.989364  0
H  H83  1  0.31058214  0.82284467  0.15482700  1  0.10348  0  0.118431  0.126813  0  0.988532  0
H  H84  1  0.53454592  0.15495089  0.67709226  1  0.098126  0  0.118409  0.126489  0  0.988429  0
H  H85  1  0.86671118  0.34504475  0.82282970  1  0.102013  0  0.118461  0.127122  0  0.988543  0
H  H86  1  0.21180448  0.32288808  0.65506630  1  0.099946  0  0.118206  0.126687  0  0.989315  0
H  H87  1  0.68941678  0.17715755  0.84517423  1  0.103399  0  0.118444  0.126846  0  0.988557  0
H  H88  1  0.37189458  0.90374389  0.27122584  1  0.10616  0  0.127189  0.132179  0  0.980871  0
H  H89  1  0.04681361  0.59620629  0.22876281  1  0.104969  0  0.127175  0.131881  0  0.981563  0
H  H90  1  0.64293746  0.72878293  0.40364684  1  0.105154  0  0.127198  0.132146  0  0.981148  0
H  H91  1  0.27560245  0.77115164  0.09618001  1  0.096365  0  0.126921  0.131475  0  0.982151  0
H  H92  1  0.62810458  0.09625561  0.72877385  1  0.106126  0  0.127194  0.13214  0  0.980948  0
H  H93  1  0.95318187  0.40379375  0.77123672  1  0.105086  0  0.127186  0.131863  0  0.981587  0
H  H94  1  0.35706160  0.27121766  0.59634974  1  0.1051  0  0.1272  0.132086  0  0.981159  0
H  H95  1  0.72439699  0.22885058  0.90382070  1  0.096298  0  0.126908  0.131488  0  0.982079  0
H  H96  1  0.42043691  0.92459161  0.45198561  1  0.081006  0  0.110086  0.108323  0  0.987807  0
H  H97  1  0.29706763  0.57549144  0.04800421  1  0.08308  0  0.109864  0.108596  0  0.987121  0
H  H98  1  0.87242374  0.54799038  0.42445446  1  0.068061  0  0.110242  0.108885  0  0.987345  0
H  H99  1  0.34515818  0.95186372  0.07532471  1  0.049918  0  0.110308  0.109103  0  0.987596  0
H  H100  1  0.57956454  0.07540516  0.54801493  1  0.080935  0  0.110094  0.108331  0  0.987814  0
H  H101  1  0.70292545  0.42451461  0.95199739  1  0.082979  0  0.109857  0.10863  0  0.987106  0
H  H102  1  0.12757433  0.45201075  0.57554196  1  0.068053  0  0.110224  0.108901  0  0.987241  0
H  H103  1  0.65484453  0.04813796  0.92467479  1  0.049898  0  0.110328  0.109103  0  0.987567  0
H  H104  1  0.36135544  0.85038954  0.45578661  1  0.112257  0  0.122899  0.131175  0  0.966307  0
H  H105  1  0.16750934  0.64968051  0.04423739  1  0.066925  0  0.122921  0.131479  0  0.965857  0
H  H106  1  0.81710434  0.54411182  0.35030194  1  0.114829  0  0.122791  0.131564  0  0.965982  0
H  H107  1  0.21184606  0.95574893  0.14952976  1  0.082113  0  0.123084  0.131762  0  0.965943  0
H  H108  1  0.63864106  0.14960886  0.54421360  1  0.112379  0  0.122929  0.13121  0  0.966323  0
H  H109  1  0.83247987  0.35032280  0.95576233  1  0.066326  0  0.122951  0.131493  0  0.96588  0
H  H110  1  0.18289367  0.45588877  0.64969568  1  0.114907  0  0.122815  0.13161  0  0.965946  0
H  H111  1  0.78815566  0.04425329  0.85046957  1  0.082095  0  0.123089  0.131757  0  0.96588  0
H  H112  1  0.77823665  0.75962202  0.47334632  1  0.421548  0  0.315432  0.264022  0  0.929689  0
H  H113  1  0.51106033  0.74038137  0.02661294  1  0.429898  0  0.315365  0.264239  0  0.930425  0
H  H114  1  0.25168045  0.52645403  0.25964644  1  0.423214  0  0.315669  0.265621  0  0.928007  0
H  H115  1  0.53770932  0.97348857  0.24027687  1  0.431627  0  0.315574  0.265518  0  0.928279  0
H  H116  1  0.22176237  0.24037857  0.52665474  1  0.42155  0  0.31546  0.264068  0  0.92969  0
H  H117  1  0.48893557  0.25961703  0.97338521  1  0.429915  0  0.315399  0.264269  0  0.930392  0
H  H118  1  0.74832239  0.47354437  0.74035013  1  0.423265  0  0.315685  0.265681  0  0.928019  0
H  H119  1  0.46229245  0.02651147  0.75972349  1  0.431623  0  0.315574  0.265528  0  0.928275  0
H  H120  1  0.88884969  0.11800266  0.35520731  1  0.395767  0  0.301267  0.241652  0  0.979117  0
H  H121  1  0.86224501  0.38194358  0.14473313  1  0.414286  0  0.30108  0.240371  0  0.980079  0
H  H122  1  0.24402036  0.64475291  0.61787419  1  0.426196  0  0.300537  0.239474  0  0.981233  0
H  H123  1  0.00678775  0.85519717  0.88203509  1  0.405672  0  0.301225  0.241664  0  0.979976  0
H  H124  1  0.11115255  0.88199410  0.64479598  1  0.395763  0  0.301256  0.241707  0  0.97908  0
H  H125  1  0.13775174  0.61805537  0.85526657  1  0.414183  0  0.301111  0.240454  0  0.980047  0
H  H126  1  0.75597783  0.35524877  0.38212360  1  0.426178  0  0.300513  0.239437  0  0.981251  0
H  H127  1  0.99321817  0.14480451  0.11796387  1  0.405646  0  0.30125  0.24176  0  0.980037  0
H  H128  1  0.33055664  0.97879230  0.36216592  1  0.429252  0  0.311085  0.256046  0  0.941161  0
H  H129  1  0.17169427  0.52122810  0.13779681  1  0.421791  0  0.311426  0.256396  0  0.940687  0
H  H130  1  0.69268176  0.63786467  0.47865368  1  0.425342  0  0.310997  0.255075  0  0.942698  0
H  H131  1  0.30933607  0.86206592  0.02114324  1  0.431454  0  0.310979  0.254942  0  0.942222  0
H  H132  1  0.66944496  0.02120665  0.63783427  1  0.429238  0  0.311059  0.256024  0  0.941153  0
H  H133  1  0.82830244  0.47877303  0.86220185  1  0.423462  0  0.311392  0.256341  0  0.940622  0
H  H134  1  0.30731723  0.36213646  0.52134359  1  0.425429  0  0.310991  0.254978  0  0.942771  0
H  H135  1  0.69066396  0.13793575  0.97885627  1  0.431447  0  0.310984  0.254933  0  0.942242  0
C  C136  1  0.87375084  0.88440283  0.52688909  1  1.58212  0  0.242862  0.675682  0  4.10568  0
C  C137  1  0.78489784  0.61556044  0.97306138  1  1.570792  0  0.242761  0.676568  0  4.105202  0
C  C138  1  0.40070130  0.47301537  0.38442609  1  1.573816  0  0.242299  0.673916  0  4.108475  0
C  C139  1  0.75821348  0.02691261  0.11560756  1  1.584989  0  0.24266  0.674872  0  4.109264  0
C  C140  1  0.12624738  0.11559830  0.47311249  1  1.581785  0  0.242907  0.675733  0  4.105356  0
C  C141  1  0.21510495  0.38443742  0.02693640  1  1.570785  0  0.242725  0.676476  0  4.105155  0
C  C142  1  0.59930061  0.52698630  0.61557066  1  1.573869  0  0.242349  0.673897  0  4.108379  0
C  C143  1  0.24179043  0.97308852  0.88439278  1  1.58494  0  0.24263  0.674794  0  4.109331  0
C  C144  1  0.79840204  0.83033942  0.53835139  1  0.236829  0  -0.058429  -0.187554  0  3.91273  0
C  C145  1  0.66690681  0.66965306  0.96160730  1  0.272795  0  -0.059516  -0.19151  0  3.913231  0
C  C146  1  0.33691479  0.46151008  0.33033662  1  0.253257  0  -0.058146  -0.186529  0  3.911424  0
C  C147  1  0.62874553  0.03842856  0.16962247  1  0.269045  0  -0.059027  -0.188794  0  3.912386  0
C  C148  1  0.20159871  0.16966226  0.46164828  1  0.23688  0  -0.058409  -0.187471  0  3.912529  0
C  C149  1  0.33308919  0.33034698  0.03839171  1  0.27276  0  -0.059475  -0.191382  0  3.913028  0
C  C150  1  0.66308927  0.53848996  0.66966235  1  0.25325  0  -0.058202  -0.186665  0  3.911571  0
C  C151  1  0.37125798  0.96156985  0.83037875  1  0.268918  0  -0.059063  -0.18876  0  3.912349  0
C  C152  1  0.68765863  0.86246383  0.44534259  1  0.230776  0  -0.060616  -0.18676  0  3.878859  0
C  C153  1  0.49514976  0.63757994  0.05460263  1  0.215806  0  -0.060376  -0.186308  0  3.878792  0
C  C154  1  0.13289738  0.55447129  0.36242929  1  0.235137  0  -0.061599  -0.189975  0  3.881446  0
C  C155  1  0.54995763  0.94539494  0.13747599  1  0.184538  0  -0.060703  -0.186763  0  3.877333  0
C  C156  1  0.31234188  0.13753785  0.55466087  1  0.230717  0  -0.060695  -0.186881  0  3.878931  0
C  C157  1  0.50484858  0.36241792  0.94539603  1  0.216087  0  -0.060339  -0.186245  0  3.878779  0
C  C158  1  0.86710936  0.44552548  0.63756865  1  0.234902  0  -0.061581  -0.189854  0  3.881332  0
C  C159  1  0.45004404  0.05460674  0.86252454  1  0.184544  0  -0.06071  -0.186816  0  3.877238  0
C  C160  1  0.71022956  0.85680493  0.36388657  1  1.531723  0  0.217379  0.637307  0  4.15247  0
C  C161  1  0.43071419  0.64319637  0.13605563  1  1.540304  0  0.216556  0.636406  0  4.150574  0
C  C162  1  0.07393848  0.63594257  0.35678541  1  1.558068  0  0.217003  0.63853  0  4.146731  0
C  C163  1  0.56693141  0.86393683  0.14313552  1  1.542006  0  0.2164  0.636916  0  4.15131  0
C  C164  1  0.28976928  0.14319457  0.63611432  1  1.531704  0  0.217444  0.637526  0  4.152402  0
C  C165  1  0.56928406  0.35680313  0.86394320  1  1.540235  0  0.216684  0.636633  0  4.150383  0
C  C166  1  0.92605728  0.36405965  0.64321188  1  1.55757  0  0.217087  0.638638  0  4.146617  0
C  C167  1  0.43306992  0.13606266  0.85686468  1  1.541815  0  0.216413  0.636957  0  4.151287  0
C  C168  1  0.89249669  0.98016912  0.28714236  1  1.615187  0  0.247625  0.69753  0  4.094197  0
C  C169  1  0.65980852  0.51976401  0.21271447  1  1.590459  0  0.248658  0.699561  0  4.090082  0
C  C170  1  0.17945494  0.71275362  0.48015860  1  1.622207  0  0.247957  0.6983  0  4.093508  0
C  C171  1  0.87259176  0.78712147  0.01978728  1  1.618093  0  0.248194  0.698596  0  4.09326  0
C  C172  1  0.10750767  0.01982710  0.71286264  1  1.615075  0  0.247527  0.697523  0  4.094464  0
C  C173  1  0.34019290  0.48023385  0.78728555  1  1.5907  0  0.248652  0.699608  0  4.090023  0
C  C174  1  0.82054348  0.28724697  0.51984039  1  1.622189  0  0.247853  0.698154  0  4.093576  0
C  C175  1  0.12740827  0.21287693  0.98021119  1  1.618103  0  0.248179  0.698589  0  4.093153  0
C  C176  1  0.90614618  0.05672653  0.27004695  1  0.244427  0  -0.058715  -0.170968  0  3.899694  0
C  C177  1  0.73302966  0.44324831  0.22987537  1  0.282596  0  -0.058777  -0.172997  0  3.90153  0
C  C178  1  0.17608623  0.72993743  0.55666410  1  0.272199  0  -0.058414  -0.171967  0  3.899901  0
C  C179  1  0.96292077  0.76999859  0.94327899  1  0.241444  0  -0.059038  -0.171757  0  3.901634  0
C  C180  1  0.09385301  0.94327242  0.72995652  1  0.244042  0  -0.058774  -0.171027  0  3.899787  0
C  C181  1  0.26696993  0.55675009  0.77012621  1  0.282261  0  -0.0587  -0.172957  0  3.901477  0
C  C182  1  0.82391201  0.27006206  0.44333473  1  0.272177  0  -0.058451  -0.171962  0  3.899986  0
C  C183  1  0.03708477  0.23000199  0.05671911  1  0.24109  0  -0.059103  -0.172044  0  3.901792  0
C  C184  1  0.05295332  0.12136354  0.27694942  1  0.213973  0  -0.077234  -0.190652  0  3.949869  0
C  C185  1  0.95136251  0.37860789  0.22301784  1  0.242962  0  -0.077015  -0.189576  0  3.948595  0
C  C186  1  0.32976253  0.72304706  0.62131137  1  0.286968  0  -0.077113  -0.190482  0  3.951607  0
C  C187  1  0.17431006  0.77697065  0.87863396  1  0.244479  0  -0.077138  -0.189818  0  3.951463  0
C  C188  1  0.94704649  0.87863378  0.72305337  1  0.213678  0  -0.077279  -0.190585  0  3.949903  0
C  C189  1  0.04863888  0.62138779  0.77698064  1  0.242954  0  -0.076996  -0.189628  0  3.94875  0
C  C190  1  0.67023608  0.27695352  0.37868832  1  0.287265  0  -0.077122  -0.190509  0  3.95158  0
C  C191  1  0.82569457  0.22303048  0.12136655  1  0.244374  0  -0.077152  -0.189893  0  3.951438  0
C  C192  1  0.18308345  0.06618123  0.24680849  1  1.603767  0  0.191893  0.607008  0  4.227037  0
C  C193  1  0.99589983  0.43383759  0.25327085  1  1.584546  0  0.192016  0.606946  0  4.230966  0
C  C194  1  0.42972817  0.75322090  0.56617825  1  1.602663  0  0.190245  0.604589  0  4.231128  0
C  C195  1  0.24937496  0.74693422  0.93375562  1  1.598904  0  0.190067  0.604578  0  4.231862  0
C  C196  1  0.81691541  0.93382044  0.75319394  1  1.60404  0  0.191918  0.607067  0  4.226816  0
C  C197  1  0.00410164  0.56615808  0.74673021  1  1.584115  0  0.191965  0.607045  0  4.231065  0
C  C198  1  0.57027214  0.24678024  0.43382125  1  1.602748  0  0.190234  0.60458  0  4.231318  0
C  C199  1  0.75062162  0.25306746  0.06624820  1  1.59888  0  0.190071  0.604559  0  4.231801  0
C  C200  1  0.29358965  0.82390636  0.32878745  1  1.585078  0  0.254676  0.703958  0  4.068742  0
C  C201  1  0.94623988  0.67604015  0.17120654  1  1.573645  0  0.25574  0.706605  0  4.066591  0
C  C202  1  0.62221554  0.67116815  0.32385333  1  1.596384  0  0.25472  0.70429  0  4.065265  0
C  C203  1  0.11755314  0.82876612  0.17604301  1  1.575321  0  0.253993  0.702987  0  4.072506  0
C  C204  1  0.70641026  0.17609205  0.67121293  1  1.584741  0  0.254658  0.703906  0  4.068585  0
C  C205  1  0.05375893  0.32396044  0.82879384  1  1.573611  0  0.255695  0.706643  0  4.066679  0
C  C206  1  0.37778099  0.32883189  0.67614516  1  1.596341  0  0.25479  0.704415  0  4.065117  0
C  C207  1  0.88244607  0.17123447  0.82395874  1  1.575369  0  0.253939  0.702894  0  4.072424  0
C  C208  1  0.36979703  0.87581965  0.32399091  1  0.261297  0  -0.06519  -0.197127  0  3.898736  0
C  C209  1  0.06957957  0.62415204  0.17601948  1  0.272616  0  -0.065369  -0.197958  0  3.897859  0
C  C210  1  0.69365678  0.67600579  0.37571350  1  0.254996  0  -0.065746  -0.198469  0  3.899726  0
C  C211  1  0.24564267  0.82393775  0.12410114  1  0.278632  0  -0.064598  -0.196863  0  3.897016  0
C  C212  1  0.63020163  0.12417875  0.67600981  1  0.261592  0  -0.065147  -0.196876  0  3.898709  0
C  C213  1  0.93041902  0.37584691  0.82398193  1  0.272595  0  -0.065386  -0.197971  0  3.89785  0
C  C214  1  0.30634313  0.32399534  0.62428463  1  0.254886  0  -0.06568  -0.198309  0  3.899409  0
C  C215  1  0.75435629  0.17606502  0.87589888  1  0.278714  0  -0.064597  -0.19695  0  3.89698  0
C  C216  1  0.33842737  0.91022172  0.45013287  1  0.226739  0  -0.06605  -0.168711  0  3.890574  0
C  C217  1  0.19882160  0.58983707  0.04986361  1  0.285845  0  -0.065675  -0.170844  0  3.890414  0
C  C218  1  0.78855086  0.54983109  0.41010996  1  0.244081  0  -0.066419  -0.170294  0  3.889206  0
C  C219  1  0.24874223  0.95007678  0.08970735  1  0.295386  0  -0.066739  -0.17252  0  3.891572  0
C  C220  1  0.66157152  0.08977832  0.54986681  1  0.226285  0  -0.066064  -0.168758  0  3.890523  0
C  C221  1  0.80117354  0.41016406  0.95013661  1  0.286505  0  -0.065724  -0.17092  0  3.890379  0
C  C222  1  0.21145063  0.45016895  0.58988713  1  0.24409  0  -0.066393  -0.170364  0  3.889182  0
C  C223  1  0.75125937  0.04992544  0.91029386  1  0.295513  0  -0.066755  -0.172434  0  3.891507  0
C  C224  1  0.22975190  0.94240996  0.51677463  1  1.548763  0  0.210812  0.613808  0  4.178301  0
C  C225  1  0.18902448  0.55764618  0.98321254  1  1.546881  0  0.211827  0.617834  0  4.175721  0
C  C226  1  0.74651329  0.48321370  0.44238926  1  1.558791  0  0.212234  0.616259  0  4.176438  0
C  C227  1  0.17230529  0.01672740  0.05752815  1  1.546169  0  0.211374  0.617169  0  4.17312  0
C  C228  1  0.77024876  0.05759008  0.48322419  1  1.548841  0  0.210856  0.613889  0  4.178402  0
C  C229  1  0.81097292  0.44235332  0.01678801  1  1.546912  0  0.211791  0.617742  0  4.175742  0
C  C230  1  0.25348664  0.51678635  0.55760939  1  1.558306  0  0.212294  0.61638  0  4.176292  0
C  C231  1  0.82769826  0.98327428  0.94246961  1  1.546155  0  0.211368  0.617138  0  4.172907  0
N  N232  1  0.78987108  0.81045554  0.46880525  1  -1.091761  0  -0.538393  -0.381416  0  3.52938  0
N  N233  1  0.56893517  0.68952428  0.03114568  1  -1.10334  0  -0.538864  -0.381875  0  3.528511  0
N  N234  1  0.25867931  0.53103615  0.31049049  1  -1.087476  0  -0.53859  -0.383318  0  3.529317  0
N  N235  1  0.60022787  0.96889870  0.18945902  1  -1.100584  0  -0.538867  -0.384032  0  3.527627  0
N  N236  1  0.21012799  0.18954560  0.53119460  1  -1.091761  0  -0.538457  -0.381537  0  3.529398  0
N  N237  1  0.43106210  0.31047467  0.96885350  1  -1.103417  0  -0.538934  -0.382001  0  3.528475  0
N  N238  1  0.74132363  0.46896389  0.68950694  1  -1.087574  0  -0.538647  -0.383451  0  3.529286  0
N  N239  1  0.39977365  0.03110080  0.81054186  1  -1.100519  0  -0.538893  -0.384092  0  3.527637  0
N  N240  1  0.95981389  0.08447819  0.31699112  1  -1.066633  0  -0.546627  -0.393871  0  3.577964  0
N  N241  1  0.86144490  0.41548427  0.18293565  1  -1.081999  0  -0.545797  -0.391374  0  3.577604  0
N  N242  1  0.27671790  0.68299270  0.58439949  1  -1.123353  0  -0.545059  -0.389557  0  3.577764  0
N  N243  1  0.04425611  0.81699433  0.91554512  1  -1.067522  0  -0.546085  -0.393459  0  3.579435  0
N  N244  1  0.04018421  0.91551967  0.68301133  1  -1.06659  0  -0.546608  -0.393972  0  3.578004  0
N  N245  1  0.13855433  0.58451468  0.81706334  1  -1.081886  0  -0.545832  -0.391497  0  3.577684  0
N  N246  1  0.72328025  0.31700843  0.41559951  1  -1.12337  0  -0.545011  -0.38946  0  3.577749  0
N  N247  1  0.95575001  0.18300735  0.08445453  1  -1.067604  0  -0.546164  -0.393571  0  3.579709  0
N  N248  1  0.30884246  0.93176553  0.38101642  1  -1.093775  0  -0.544654  -0.374089  0  3.553521  0
N  N249  1  0.12172098  0.56824090  0.11896989  1  -1.089932  0  -0.545117  -0.373881  0  3.552358  0
N  N250  1  0.68982675  0.61898061  0.43164109  1  -1.086124  0  -0.543778  -0.371987  0  3.553226  0
N  N251  1  0.24062756  0.88095402  0.06817467  1  -1.098446  0  -0.545002  -0.372085  0  3.552013  0
N  N252  1  0.69115794  0.06823451  0.61898618  1  -1.09341  0  -0.544664  -0.374166  0  3.5535  0
N  N253  1  0.87827672  0.43175969  0.88102894  1  -1.091603  0  -0.545058  -0.373794  0  3.552158  0
N  N254  1  0.31017199  0.38101998  0.56835670  1  -1.086204  0  -0.543809  -0.371927  0  3.55314  0
N  N255  1  0.75937346  0.11904712  0.93182500  1  -1.098466  0  -0.544994  -0.372071  0  3.552116  0
O  O256  1  0.94197035  0.89108276  0.46203519  1  -1.209255  0  -0.411139  -0.708726  0  2.403075  0
O  O257  1  0.79498177  0.60885154  0.03790479  1  -1.204893  0  -0.41107  -0.708762  0  2.40224  0
O  O258  1  0.40421318  0.53785673  0.39102677  1  -1.202742  0  -0.41079  -0.7084  0  2.406774  0
O  O259  1  0.83307502  0.96202277  0.10890677  1  -1.213217  0  -0.411162  -0.707553  0  2.404167  0
O  O260  1  0.05802862  0.10891729  0.53796707  1  -1.208989  0  -0.41119  -0.708852  0  2.403169  0
O  O261  1  0.20501295  0.39114851  0.96209905  1  -1.204995  0  -0.410965  -0.708575  0  2.402468  0
O  O262  1  0.59578675  0.46214331  0.60897188  1  -1.202713  0  -0.410793  -0.708402  0  2.406727  0
O  O263  1  0.16692846  0.03797673  0.89109393  1  -1.213233  0  -0.41111  -0.707483  0  2.404225  0
O  O264  1  0.86515395  0.91826901  0.58208627  1  -1.200297  0  -0.369035  -0.625679  0  2.254183  0
O  O265  1  0.86537095  0.58171422  0.91783491  1  -1.207154  0  -0.368579  -0.625252  0  2.25508  0
O  O266  1  0.44711655  0.41784213  0.41841269  1  -1.205094  0  -0.368745  -0.624694  0  2.253295  0
O  O267  1  0.78359178  0.08210312  0.08177448  1  -1.204053  0  -0.368499  -0.624914  0  2.256548  0
O  O268  1  0.13484308  0.08173266  0.41791446  1  -1.200231  0  -0.369029  -0.625653  0  2.25403  0
O  O269  1  0.13462603  0.41828691  0.08216702  1  -1.207137  0  -0.368667  -0.625384  0  2.254608  0
O  O270  1  0.55288932  0.58215846  0.58158421  1  -1.205174  0  -0.368776  -0.624633  0  2.253351  0
O  O271  1  0.21640964  0.91789801  0.91822657  1  -1.20402  0  -0.368509  -0.624932  0  2.256586  0
O  O272  1  0.82130541  0.82071401  0.32595512  1  -1.213339  0  -0.471787  -0.756488  0  2.443288  0
O  O273  1  0.46784366  0.67922556  0.17398379  1  -1.202649  0  -0.4712  -0.756052  0  2.44374  0
O  O274  1  0.14702188  0.67388911  0.32068772  1  -1.21841  0  -0.471084  -0.756819  0  2.443883  0
O  O275  1  0.64191830  0.82600713  0.17919852  1  -1.208378  0  -0.471322  -0.75692  0  2.444469  0
O  O276  1  0.17869472  0.17928331  0.67404646  1  -1.213305  0  -0.471768  -0.7565  0  2.443369  0
O  O277  1  0.53215833  0.32077285  0.82601451  1  -1.202672  0  -0.471236  -0.756112  0  2.443682  0
O  O278  1  0.85298188  0.32611202  0.67930746  1  -1.218372  0  -0.471053  -0.75683  0  2.444032  0
O  O279  1  0.35808734  0.17399182  0.82079941  1  -1.208278  0  -0.471339  -0.756922  0  2.444472  0
O  O280  1  0.62824125  0.88751015  0.33314416  1  -1.179012  0  -0.33135  -0.577606  0  2.153662  0
O  O281  1  0.34868733  0.61251315  0.16681923  1  -1.180576  0  -0.330876  -0.577093  0  2.153337  0
O  O282  1  0.96120089  0.66671379  0.38749550  1  -1.190174  0  -0.331393  -0.578074  0  2.149468  0
O  O283  1  0.51567158  0.83315315  0.11245492  1  -1.178651  0  -0.330617  -0.5769  0  2.151778  0
O  O284  1  0.37175535  0.11248989  0.66685692  1  -1.179005  0  -0.331377  -0.577685  0  2.153619  0
O  O285  1  0.65131111  0.38748635  0.83318028  1  -1.180516  0  -0.330962  -0.577227  0  2.15333  0
O  O286  1  0.03880410  0.33328406  0.61249831  1  -1.189746  0  -0.331495  -0.578209  0  2.149041  0
O  O287  1  0.48433163  0.16684689  0.88754578  1  -1.178533  0  -0.33062  -0.576905  0  2.151616  0
O  O288  1  0.96311142  0.93490111  0.32030352  1  -1.225203  0  -0.406563  -0.721417  0  2.377332  0
O  O289  1  0.71831996  0.56502017  0.17951358  1  -1.218025  0  -0.407866  -0.722453  0  2.375558  0
O  O290  1  0.28325388  0.67962103  0.43487478  1  -1.222572  0  -0.406655  -0.721141  0  2.376134  0
O  O291  1  0.89785232  0.82032569  0.06506593  1  -1.224385  0  -0.406601  -0.72107  0  2.37371  0
O  O292  1  0.03689271  0.06509620  0.67970028  1  -1.22536  0  -0.406462  -0.721377  0  2.377425  0
O  O293  1  0.28167968  0.43497878  0.82048679  1  -1.218064  0  -0.407892  -0.722493  0  2.375504  0
O  O294  1  0.71674377  0.32037901  0.56512526  1  -1.222602  0  -0.40663  -0.721139  0  2.376128  0
O  O295  1  0.10214553  0.17967435  0.93493479  1  -1.224467  0  -0.406624  -0.72105  0  2.373814  0
O  O296  1  0.81552252  0.96540781  0.26225511  1  -1.205595  0  -0.390676  -0.643514  0  2.291189  0
O  O297  1  0.54319329  0.53452071  0.23759877  1  -1.188903  0  -0.39061  -0.644106  0  2.290951  0
O  O298  1  0.07754672  0.73758190  0.46542900  1  -1.212359  0  -0.391147  -0.644354  0  2.29212  0
O  O299  1  0.78092078  0.76219692  0.03451840  1  -1.208059  0  -0.391143  -0.64453  0  2.292792  0
O  O300  1  0.18448082  0.03458678  0.73774818  1  -1.205218  0  -0.390628  -0.643478  0  2.291206  0
O  O301  1  0.45680590  0.46547769  0.76240143  1  -1.188905  0  -0.390576  -0.644107  0  2.290985  0
O  O302  1  0.92244934  0.26241596  0.53457105  1  -1.212233  0  -0.3911  -0.644257  0  2.292137  0
O  O303  1  0.21908434  0.23780148  0.96547679  1  -1.208045  0  -0.391115  -0.644487  0  2.292534  0
O  O304  1  0.19395043  0.00061792  0.27326288  1  -1.211117  0  -0.429865  -0.687996  0  2.251203  0
O  O305  1  0.96779098  0.49937269  0.22673285  1  -1.208089  0  -0.429688  -0.688372  0  2.252689  0
O  O306  1  0.46704811  0.72678077  0.50060521  1  -1.20959  0  -0.429726  -0.68804  0  2.252191  0
O  O307  1  0.19449895  0.77324740  0.99936236  1  -1.210458  0  -0.429254  -0.687677  0  2.252813  0
O  O308  1  0.80605236  0.99938375  0.72673919  1  -1.2111  0  -0.429866  -0.688084  0  2.251187  0
O  O309  1  0.03220468  0.50062572  0.77326909  1  -1.20826  0  -0.42964  -0.688378  0  2.252966  0
O  O310  1  0.53295080  0.27322091  0.49939275  1  -1.20968  0  -0.429761  -0.688004  0  2.252263  0
O  O311  1  0.80550451  0.22675319  0.00063782  1  -1.210346  0  -0.429272  -0.687705  0  2.252657  0
O  O312  1  0.26637557  0.08733866  0.20204869  1  -1.177352  0  -0.35073  -0.556722  0  2.042586  0
O  O313  1  0.05526979  0.41273772  0.29820778  1  -1.167775  0  -0.350544  -0.556407  0  2.045725  0
O  O314  1  0.46823760  0.79795334  0.58739157  1  -1.171064  0  -0.349374  -0.554982  0  2.04425  0
O  O315  1  0.35405508  0.70238904  0.91250819  1  -1.185022  0  -0.349832  -0.555457  0  2.043404  0
O  O316  1  0.73362357  0.91266247  0.79795375  1  -1.17739  0  -0.350739  -0.556729  0  2.042579  0
O  O317  1  0.94473064  0.58725741  0.70179105  1  -1.167437  0  -0.350565  -0.556488  0  2.045591  0
O  O318  1  0.53176382  0.20204452  0.41260845  1  -1.171047  0  -0.349381  -0.555034  0  2.04427  0
O  O319  1  0.64594875  0.29760663  0.08749406  1  -1.185037  0  -0.349807  -0.555374  0  2.043588  0
O  O320  1  0.17605028  0.84736275  0.36131672  1  -1.216443  0  -0.437732  -0.717113  0  2.368771  0
O  O321  1  0.88467987  0.65256273  0.13870718  1  -1.217177  0  -0.438351  -0.718441  0  2.370244  0
O  O322  1  0.53716105  0.63868936  0.34735642  1  -1.219094  0  -0.437571  -0.716474  0  2.367027  0
O  O323  1  0.02343351  0.86125826  0.15260762  1  -1.218847  0  -0.437145  -0.717072  0  2.372242  0
O  O324  1  0.82394863  0.15263674  0.63868675  1  -1.216436  0  -0.437675  -0.717069  0  2.368861  0
O  O325  1  0.11531890  0.34744004  0.86129216  1  -1.217199  0  -0.43837  -0.718474  0  2.370243  0
O  O326  1  0.46283643  0.36130959  0.65264345  1  -1.21902  0  -0.437577  -0.716504  0  2.366748  0
O  O327  1  0.97656585  0.13874396  0.84739051  1  -1.218857  0  -0.437063  -0.71693  0  2.372227  0
O  O328  1  0.34680044  0.76265698  0.29887416  1  -1.210577  0  -0.372851  -0.641921  0  2.326883  0
O  O329  1  0.90826901  0.73730199  0.20108120  1  -1.213849  0  -0.373471  -0.643499  0  2.327717  0
O  O330  1  0.64546822  0.70103028  0.26262055  1  -1.216275  0  -0.373281  -0.642206  0  2.327945  0
O  O331  1  0.10960717  0.79888317  0.23725723  1  -1.21375  0  -0.372829  -0.641451  0  2.328179  0
O  O332  1  0.65319442  0.23734470  0.70112606  1  -1.210561  0  -0.37291  -0.642033  0  2.326731  0
O  O333  1  0.09173254  0.26269969  0.79892123  1  -1.213779  0  -0.373383  -0.643476  0  2.327832  0
O  O334  1  0.35452439  0.29896976  0.73737830  1  -1.216254  0  -0.373373  -0.642285  0  2.327941  0
O  O335  1  0.89039027  0.20111960  0.76273987  1  -1.21377  0  -0.37292  -0.641515  0  2.328063  0
O  O336  1  0.11842820  0.94944886  0.51130443  1  -1.218388  0  -0.470809  -0.776388  0  2.38223  0
O  O337  1  0.07928199  0.55058634  0.98867851  1  -1.224994  0  -0.470931  -0.778234  0  2.382283  0
O  O338  1  0.62972972  0.48866635  0.44938933  1  -1.228546  0  -0.470872  -0.77751  0  2.383647  0
O  O339  1  0.06796656  0.01131164  0.05052966  1  -1.222161  0  -0.470449  -0.777908  0  2.382625  0
O  O340  1  0.88157201  0.05055118  0.48869749  1  -1.218476  0  -0.470843  -0.776457  0  2.382182  0
O  O341  1  0.92071685  0.44941316  0.01132238  1  -1.224891  0  -0.470925  -0.778197  0  2.382097  0
O  O342  1  0.37026817  0.51133424  0.55061019  1  -1.228467  0  -0.470939  -0.777599  0  2.383641  0
O  O343  1  0.93203740  0.98869003  0.94946948  1  -1.222341  0  -0.470473  -0.777965  0  2.382596  0
O  O344  1  0.24933178  0.95800531  0.57212099  1  -1.168182  0  -0.297786  -0.518214  0  2.119169  0
O  O345  1  0.27957349  0.54208669  0.92787879  1  -1.170374  0  -0.298253  -0.519662  0  2.116687  0
O  O346  1  0.82139730  0.42792349  0.45810185  1  -1.175859  0  -0.29875  -0.51916  0  2.117639  0
O  O347  1  0.20759092  0.07204037  0.04188361  1  -1.164652  0  -0.297975  -0.518705  0  2.113497  0
O  O348  1  0.75067007  0.04199746  0.42787971  1  -1.168151  0  -0.297805  -0.51821  0  2.119404  0
O  O349  1  0.72042612  0.45791063  0.07212330  1  -1.170446  0  -0.29822  -0.5196  0  2.11681  0
O  O350  1  0.17860333  0.57207764  0.54189645  1  -1.17549  0  -0.298775  -0.51923  0  2.117567  0
O  O351  1  0.79240914  0.92796022  0.95811642  1  -1.164553  0  -0.297941  -0.518676  0  2.113297  0
