# generated using pymatgen
data_CuH9C9NO4
_symmetry_space_group_name_H-M   'P 1'
_cell_length_a   6.64324956
_cell_length_b   9.27282655
_cell_length_c   16.43729855
_cell_angle_alpha   76.56356037
_cell_angle_beta   78.37566070
_cell_angle_gamma   68.97451995
_symmetry_Int_Tables_number   1
_chemical_formula_structural   CuH9C9NO4
_chemical_formula_sum   'Cu4 H36 C36 N4 O16'
_cell_volume   911.46504618
_cell_formula_units_Z   4
loop_
 _symmetry_equiv_pos_site_id
 _symmetry_equiv_pos_as_xyz
  1  'x, y, z'
loop_
 _atom_site_type_symbol
 _atom_site_label
 _atom_site_symmetry_multiplicity
 _atom_site_fract_x
 _atom_site_fract_y
 _atom_site_fract_z
 _atom_site_occupancy
 _atom_site_hle17_ddec_charge
 _atom_site_hle17_ddec_spin_density
 _atom_site_hle17_ddec_sum_bond_order
 _atom_site_hle17_magmom
 _atom_site_hse06_10hf_ddec_charge
 _atom_site_hse06_10hf_ddec_spin_density
 _atom_site_hse06_10hf_ddec_sum_bond_order
 _atom_site_hse06_10hf_magmom
 _atom_site_hse06_ddec_charge
 _atom_site_hse06_ddec_spin_density
 _atom_site_hse06_ddec_sum_bond_order
 _atom_site_hse06_magmom
 _atom_site_pbe_cm5_charge
 _atom_site_pbe_ddec_charge
 _atom_site_pbe_ddec_spin_density
 _atom_site_pbe_ddec_sum_bond_order
 _atom_site_pbe_magmom
Cu  Cu0  1  0.03476038  0.96087657  0.79756705  1  0.920493  0.735678  1.783051  0.518  0.906961  0.817601  2.174705  0.637  1.007411  0.889805  2.083185  0.719  0.729174  0.850426  0.761469  2.225386  0.579
Cu  Cu1  1  0.79243769  0.53945116  0.70253333  1  0.920361  -0.737185  1.784469  -0.52  0.907949  -0.818605  2.174423  -0.638  1.007332  -0.890348  2.084105  -0.72  0.729166  0.850917  -0.761544  2.224785  -0.579
Cu  Cu2  1  0.96523738  0.03912611  0.20243094  1  0.920452  0.735654  1.78308  0.518  0.90696  0.817578  2.174617  0.637  1.007378  0.889794  2.083183  0.719  0.729162  0.850452  0.761463  2.22529  0.579
Cu  Cu3  1  0.20757086  0.46054433  0.29746854  1  0.92028  -0.737179  1.784607  -0.52  0.908013  -0.818609  2.174391  -0.638  1.007308  -0.890348  2.084161  -0.72  0.729171  0.850944  -0.761544  2.224782  -0.579
H  H4  1  0.25830190  0.13226299  0.70574990  1  0.407783  0.000225  0.83471  0.0  0.397465  0.000491  0.883547  0.001  0.4061  0.000354  0.874523  0.0  0.320439  0.391048  0.000669  0.890799  0.001
H  H5  1  0.09582146  0.36786561  0.79437896  1  0.40692  -0.000168  0.835648  0.0  0.396605  -0.000447  0.884618  -0.001  0.405159  -0.000325  0.875737  0.0  0.320104  0.390303  -0.000665  0.891585  -0.001
H  H6  1  0.74170192  0.86773489  0.29425080  1  0.407805  0.000224  0.83477  0.0  0.397511  0.00049  0.883561  0.001  0.406145  0.000354  0.874538  0.0  0.320467  0.391092  0.000668  0.890817  0.001
H  H7  1  0.90418431  0.63213109  0.20562196  1  0.406965  -0.000168  0.835601  0.0  0.396651  -0.000447  0.884571  -0.001  0.405203  -0.000325  0.875692  0.0  0.320114  0.390347  -0.000665  0.891532  -0.001
H  H8  1  0.01303843  0.21200972  0.67951550  1  0.423091  -0.000648  0.892287  0.0  0.390975  -0.000322  0.959042  0.0  0.403914  -0.000181  0.941092  0.0  0.288816  0.381802  -0.000485  0.971929  0.0
H  H9  1  0.90419281  0.28826799  0.82065020  1  0.422894  0.000725  0.892445  0.0  0.390412  0.000366  0.959824  0.0  0.403291  0.000203  0.941917  0.0  0.288915  0.381644  0.000479  0.972075  0.0
H  H10  1  0.98696094  0.78799169  0.32048467  1  0.423081  -0.000648  0.892313  0.0  0.390963  -0.000322  0.959069  0.0  0.403902  -0.000181  0.94112  0.0  0.288798  0.381786  -0.000485  0.971963  0.0
H  H11  1  0.09581047  0.71173106  0.17935041  1  0.4229  0.000725  0.892439  0.0  0.390399  0.000366  0.959846  0.0  0.403277  0.000203  0.941939  0.0  0.288911  0.381631  0.000479  0.972097  0.0
H  H12  1  0.21631344  0.57498649  0.93739434  1  0.093119  0.001479  0.93595  0.001  0.109368  0.001392  0.998792  0.001  0.109946  0.001081  0.999025  0.001  0.109756  0.108802  0.001546  0.998818  0.001
H  H13  1  0.72745472  0.92531682  0.56257106  1  0.09323  -0.001451  0.936152  -0.001  0.109387  -0.001367  0.998779  -0.001  0.109952  -0.001068  0.999069  -0.001  0.109936  0.109169  -0.001557  0.998228  -0.001
H  H14  1  0.78368543  0.42501729  0.06260503  1  0.093128  0.001483  0.935907  0.001  0.109407  0.001393  0.998726  0.001  0.109986  0.001081  0.99896  0.001  0.10978  0.10884  0.001546  0.998753  0.001
H  H15  1  0.27255686  0.07467514  0.43743123  1  0.093217  -0.001454  0.936121  -0.001  0.109401  -0.001367  0.998733  -0.001  0.109966  -0.001067  0.999028  -0.001  0.109986  0.109182  -0.001557  0.998186  -0.001
H  H16  1  0.03086488  0.59217894  0.86727296  1  0.118659  0.000679  0.925119  0.001  0.135467  0.000317  0.983942  0.0  0.137383  0.000326  0.981984  0.0  0.118249  0.134376  0.000242  0.984781  0.0
H  H17  1  0.48936148  0.90815265  0.63272925  1  0.119316  -0.000631  0.923636  -0.001  0.135633  -0.000262  0.982738  0.0  0.137473  -0.000292  0.980876  0.0  0.118044  0.134217  -0.000243  0.98436  0.0
H  H18  1  0.96913590  0.40782247  0.13272733  1  0.118636  0.000684  0.925106  0.001  0.135457  0.000317  0.983941  0.0  0.137373  0.000326  0.981987  0.0  0.118231  0.134367  0.000242  0.984778  0.0
H  H19  1  0.51064561  0.09184164  0.36727321  1  0.119361  -0.00063  0.923498  -0.001  0.135658  -0.000262  0.982696  0.0  0.137502  -0.000292  0.980837  0.0  0.118059  0.13425  -0.000243  0.984311  0.0
H  H20  1  0.92674268  0.73227883  0.02174835  1  0.07078  0.009905  0.91173  0.012  0.082473  0.00611  0.975326  0.007  0.082733  0.004381  0.972053  0.005  0.116489  0.081721  0.007343  0.978059  0.008
H  H21  1  0.68048809  0.76755497  0.47814590  1  0.071398  -0.009753  0.911435  -0.012  0.083265  -0.005934  0.974543  -0.007  0.083543  -0.004269  0.97137  -0.005  0.116535  0.082019  -0.007346  0.977877  -0.008
H  H22  1  0.07325342  0.26772616  0.97825006  1  0.070762  0.009904  0.911778  0.012  0.082444  0.006111  0.975372  0.007  0.082708  0.004381  0.972105  0.005  0.116463  0.081695  0.007344  0.978102  0.008
H  H23  1  0.31951622  0.23244054  0.52185561  1  0.071396  -0.00975  0.911398  -0.012  0.083257  -0.005934  0.974505  -0.007  0.083537  -0.004269  0.971338  -0.005  0.116541  0.082006  -0.007346  0.977839  -0.008
H  H24  1  0.68834102  0.87425323  0.11605999  1  0.078582  0.000314  0.95164  0.0  0.090796  6.5e-05  1.013837  0.0  0.09367  2.2e-05  1.011598  0.0  0.096751  0.088464  9.9e-05  1.016091  0.0
H  H25  1  0.67847615  0.62549844  0.38396530  1  0.078846  -0.000332  0.950851  0.0  0.091249  -8.6e-05  1.012903  0.0  0.094193  -3.5e-05  1.010536  0.0  0.097008  0.088959  -0.000102  1.015063  0.0
H  H26  1  0.31165513  0.12575297  0.88393771  1  0.07851  0.000314  0.95161  0.0  0.090717  6.5e-05  1.013826  0.0  0.09359  2.2e-05  1.011588  0.0  0.096733  0.088386  9.9e-05  1.016082  0.0
H  H27  1  0.32151799  0.37449942  0.61603588  1  0.078818  -0.000333  0.950861  0.0  0.091237  -8.6e-05  1.012893  0.0  0.094179  -3.5e-05  1.010528  0.0  0.097017  0.088949  -0.000102  1.015046  0.0
H  H28  1  0.44258746  0.12308990  0.16235046  1  0.104347  -0.000114  0.990718  0.0  0.110858  -4e-05  1.05879  0.0  0.114178  -4e-05  1.058425  0.0  0.097766  0.108167  -3.8e-05  1.059693  0.0
H  H29  1  0.72801598  0.37666726  0.33774430  1  0.104227  9.7e-05  0.991201  0.0  0.110739  1.7e-05  1.059202  0.0  0.114024  2.5e-05  1.058873  0.0  0.097653  0.107999  3.8e-05  1.060276  0.0
H  H30  1  0.55740874  0.87691749  0.83764654  1  0.104334  -0.000111  0.990699  0.0  0.110915  -4e-05  1.058712  0.0  0.11424  -4e-05  1.058336  0.0  0.097785  0.108227  -3.8e-05  1.059614  0.0
H  H31  1  0.27197444  0.62332945  0.66225660  1  0.104162  9.2e-05  0.991272  0.0  0.110725  1.7e-05  1.059226  0.0  0.114012  2.5e-05  1.058889  0.0  0.097667  0.107982  3.8e-05  1.060302  0.0
H  H32  1  0.38857088  0.37401206  0.06098283  1  0.086248  0.000593  0.938254  0.001  0.100201  0.00028  0.994502  0.0  0.102307  0.000178  0.993383  0.0  0.099627  0.098547  0.00038  0.995505  0.0
H  H33  1  0.82439825  0.12574232  0.43914439  1  0.085524  -0.000483  0.939411  -0.001  0.099613  -0.000203  0.995637  0.0  0.101737  -0.000131  0.994456  0.0  0.099539  0.098261  -0.000378  0.996071  0.0
H  H34  1  0.61143075  0.62599537  0.93901332  1  0.086248  0.000592  0.938191  0.001  0.100178  0.00028  0.994474  0.0  0.10228  0.000178  0.993356  0.0  0.099621  0.098524  0.00038  0.995477  0.0
H  H35  1  0.17558815  0.87425660  0.56085938  1  0.085565  -0.000484  0.939402  -0.001  0.099659  -0.000203  0.995621  0.0  0.101784  -0.00013  0.994437  0.0  0.099546  0.098309  -0.000378  0.996056  0.0
H  H36  1  0.57626392  0.37551349  0.91261030  1  0.118537  -0.000107  0.986557  0.0  0.126552  0.000151  1.051031  0.0  0.130528  7.9e-05  1.049222  0.0  0.098119  0.123567  0.000238  1.052424  0.0
H  H37  1  0.86544944  0.12434649  0.58751883  1  0.118252  -8.8e-05  0.986107  0.0  0.126158  -0.000287  1.050757  0.0  0.129941  -0.000169  1.049303  0.0  0.09792  0.123143  -0.000236  1.052383  0.0
H  H38  1  0.42374075  0.62449042  0.08738625  1  0.118538  -0.000105  0.986462  0.0  0.12656  0.000151  1.050945  0.0  0.130508  7.9e-05  1.04917  0.0  0.098107  0.123577  0.000238  1.052335  0.0
H  H39  1  0.13454156  0.87565250  0.41248335  1  0.118248  -8.8e-05  0.986106  0.0  0.126151  -0.000286  1.05076  0.0  0.129932  -0.000169  1.049311  0.0  0.097922  0.12314  -0.000236  1.052388  0.0
C  C40  1  0.30774306  0.65372707  0.80408105  1  0.665571  -0.004132  3.858894  -0.007  0.628927  0.000472  4.164027  -0.001  0.664877  0.00024  4.159619  -0.001  0.20635  0.604298  0.000619  4.166708  -0.001
C  C41  1  0.76508436  0.84650596  0.69586276  1  0.667444  0.003837  3.859725  0.006  0.631165  -0.000593  4.163346  0.001  0.6671  -0.00032  4.158765  0.001  0.207388  0.6067  -0.00061  4.165836  0.001
C  C42  1  0.69225383  0.34627444  0.19591692  1  0.66547  -0.004124  3.859011  -0.007  0.628858  0.000472  4.164103  -0.001  0.664808  0.000238  4.159691  -0.001  0.206326  0.604233  0.000618  4.16678  -0.001
C  C43  1  0.23492699  0.15348607  0.30413818  1  0.667162  0.003836  3.860125  0.006  0.631105  -0.000593  4.163418  0.001  0.66704  -0.000318  4.158832  0.001  0.207403  0.606644  -0.00061  4.165899  0.001
C  C44  1  0.13832590  0.64739122  0.88183376  1  -0.152464  0.004683  3.705702  0.003  -0.210804  0.003972  3.963901  0.002  -0.210411  0.002513  3.974373  0.001  -0.071197  -0.211018  0.004871  3.957327  0.003
C  C45  1  0.66666464  0.85287046  0.61812921  1  -0.154186  -0.004811  3.705678  -0.003  -0.212111  -0.003964  3.963487  -0.002  -0.211658  -0.002501  3.973942  -0.001  -0.071532  -0.212306  -0.004873  3.95725  -0.003
C  C46  1  0.86167347  0.35261019  0.11816641  1  -0.152371  0.00466  3.705698  0.003  -0.210805  0.00397  3.963975  0.002  -0.210415  0.002516  3.97445  0.001  -0.071188  -0.211023  0.00487  3.957406  0.003
C  C47  1  0.33334777  0.14712148  0.38187381  1  -0.154029  -0.004798  3.705599  -0.003  -0.212109  -0.003963  3.963545  -0.002  -0.211665  -0.002504  3.974001  -0.001  -0.071601  -0.212304  -0.004873  3.957306  -0.003
C  C48  1  0.91105510  0.83254161  0.96936886  1  0.174207  -0.020238  3.707008  -0.021  0.1322  -0.005073  3.968115  -0.007  0.153416  -0.006462  3.981571  -0.008  0.082171  0.118212  -0.004002  3.959758  -0.005
C  C49  1  0.71262575  0.66746568  0.53062905  1  0.173352  0.020406  3.706166  0.022  0.131492  0.005115  3.967775  0.007  0.152438  0.006463  3.98139  0.008  0.082292  0.117659  0.003995  3.959851  0.005
C  C50  1  0.08894295  0.16746220  0.03062977  1  0.174287  -0.020225  3.706964  -0.021  0.132301  -0.005072  3.968061  -0.007  0.15351  -0.006464  3.981509  -0.008  0.082225  0.11831  -0.004002  3.9597  -0.005
C  C51  1  0.28737572  0.33252984  0.46937221  1  0.173386  0.020409  3.706074  0.022  0.131545  0.005117  3.967666  0.007  0.152482  0.006462  3.981281  0.008  0.082334  0.117726  0.003996  3.959721  0.005
C  C52  1  0.77738946  0.98316084  0.99003136  1  -0.112206  0.009164  3.818696  0.011  -0.089336  0.003206  4.047707  0.005  -0.103862  0.002384  4.076047  0.004  -0.031946  -0.079524  0.00409  4.027711  0.006
C  C53  1  0.75059626  0.51676821  0.51004345  1  -0.111025  -0.009442  3.819136  -0.011  -0.089433  -0.003071  4.049189  -0.005  -0.103916  -0.002322  4.077751  -0.004  -0.032431  -0.079801  -0.004079  4.029288  -0.006
C  C54  1  0.22260899  0.01684651  0.00996649  1  -0.112264  0.009162  3.818494  0.011  -0.089413  0.003205  4.047499  0.005  -0.103942  0.002386  4.075845  0.004  -0.032026  -0.079618  0.004091  4.027556  0.006
C  C55  1  0.24940360  0.48323083  0.48995752  1  -0.111044  -0.009442  3.819107  -0.011  -0.089453  -0.003071  4.049157  -0.005  -0.103933  -0.002321  4.077718  -0.004  -0.032455  -0.079817  -0.004079  4.029245  -0.006
C  C56  1  0.66781392  0.98604692  0.07290689  1  -0.074358  -0.007622  3.787648  -0.007  -0.104508  -0.002076  4.058213  -0.002  -0.102224  -0.002163  4.080419  -0.002  -0.087168  -0.106191  -0.001987  4.044095  -0.002
C  C57  1  0.72683848  0.51374236  0.42714898  1  -0.074797  0.008011  3.787954  0.007  -0.104901  0.002094  4.058847  0.002  -0.10252  0.002186  4.080773  0.002  -0.08747  -0.106616  0.00198  4.044805  0.002
C  C58  1  0.33218365  0.01395927  0.92709094  1  -0.074233  -0.007624  3.78754  -0.007  -0.104354  -0.002075  4.058107  -0.002  -0.10207  -0.002164  4.080316  -0.002  -0.087164  -0.106041  -0.001987  4.043994  -0.002
C  C59  1  0.27315483  0.48625553  0.57285146  1  -0.074795  0.008012  3.787771  0.007  -0.104911  0.002094  4.058686  0.002  -0.102532  0.002186  4.080621  0.002  -0.087468  -0.106631  0.00198  4.044647  0.002
C  C60  1  0.53080178  0.12403151  0.09916786  1  -0.113893  0.004874  3.796737  0.005  -0.142039  -0.000454  4.075909  0.0  -0.149474  -0.00024  4.099307  0.0  -0.116058  -0.137805  -0.000432  4.061435  0.0
C  C61  1  0.75424467  0.37573369  0.40091818  1  -0.114721  -0.005011  3.797856  -0.005  -0.141872  0.000394  4.076028  0.0  -0.149164  0.00018  4.099151  0.0  -0.115737  -0.137769  0.000446  4.061787  0.0
C  C62  1  0.46919589  0.87597708  0.90082855  1  -0.113952  0.004875  3.796738  0.005  -0.14217  -0.000454  4.075908  0.0  -0.149608  -0.000239  4.099309  0.0  -0.116061  -0.137937  -0.000432  4.061441  0.0
C  C63  1  0.24574613  0.62426881  0.59908384  1  -0.114618  -0.004996  3.797729  -0.005  -0.141819  0.000394  4.075895  0.0  -0.149111  0.000181  4.09902  0.0  -0.11578  -0.137717  0.000447  4.06167  0.0
C  C64  1  0.49903189  0.26483786  0.04106026  1  -0.020342  -0.005861  3.765475  -0.005  -0.036674  -0.000945  4.023162  -0.001  -0.033051  -0.001278  4.043021  -0.001  -0.090935  -0.039032  -0.000673  4.009685  0.0
C  C65  1  0.80558929  0.23494322  0.45904491  1  -0.019078  0.005056  3.765746  0.004  -0.035848  0.000757  4.023307  0.0  -0.032192  0.001207  4.042972  0.001  -0.090791  -0.038318  0.000668  4.009098  0.0
C  C66  1  0.50096910  0.73516834  0.95893720  1  -0.02026  -0.005865  3.765505  -0.005  -0.036577  -0.000944  4.023207  -0.001  -0.03295  -0.00128  4.043064  -0.001  -0.09085  -0.038937  -0.000673  4.009734  0.0
C  C67  1  0.19440166  0.76505456  0.54095798  1  -0.019213  0.005052  3.765775  0.004  -0.035993  0.000757  4.023372  0.0  -0.032338  0.001205  4.043038  0.001  -0.090816  -0.038462  0.000668  4.009173  0.0
C  C68  1  0.60456190  0.26720541  0.95893209  1  -0.22687  0.012659  3.715211  0.013  -0.245706  0.00543  3.969367  0.007  -0.255201  0.003906  3.988154  0.005  -0.118876  -0.239372  0.006798  3.956549  0.008
C  C69  1  0.83142788  0.23266034  0.54118198  1  -0.227028  -0.011874  3.715603  -0.013  -0.245606  -0.005386  3.969443  -0.007  -0.254991  -0.003951  3.988214  -0.005  -0.11851  -0.238789  -0.006785  3.955996  -0.008
C  C70  1  0.39544311  0.73280084  0.04106440  1  -0.226829  0.012661  3.71523  0.013  -0.245657  0.005428  3.969361  0.007  -0.255136  0.003908  3.988175  0.005  -0.118907  -0.239315  0.006798  3.956536  0.008
C  C71  1  0.16856371  0.76733867  0.45881959  1  -0.226973  -0.011872  3.715639  -0.013  -0.245536  -0.005386  3.969465  -0.007  -0.254923  -0.003949  3.988241  -0.005  -0.118479  -0.238724  -0.006785  3.956034  -0.008
C  C72  1  0.74763271  0.12741597  0.93125828  1  0.34752  -0.003502  3.797544  -0.006  0.336794  0.000353  4.050229  -0.001  0.355942  -0.000524  4.067044  -0.002  0.091461  0.324038  0.001154  4.03839  -0.001
C  C73  1  0.80647731  0.37254970  0.56886041  1  0.345179  0.004427  3.800923  0.007  0.336251  3.4e-05  4.052236  0.002  0.355403  0.000751  4.068855  0.002  0.091246  0.323438  -0.001149  4.04016  0.001
C  C74  1  0.25236872  0.87258666  0.06874069  1  0.347439  -0.003498  3.797575  -0.006  0.336709  0.000354  4.050286  -0.001  0.355859  -0.000526  4.067095  -0.002  0.09149  0.323953  0.001154  4.038429  -0.001
C  C75  1  0.19351794  0.62744927  0.43114214  1  0.345115  0.00443  3.801076  0.007  0.33619  3.4e-05  4.052404  0.002  0.355338  0.000749  4.069022  0.002  0.091226  0.323372  -0.00115  4.040333  0.001
N  N76  1  0.00997288  0.80540047  0.89561838  1  -0.312476  0.116035  3.36475  0.142  -0.264339  0.07209  3.678487  0.095  -0.302464  0.059741  3.699935  0.083  -0.38079  -0.243157  0.078021  3.666664  0.099
N  N77  1  0.71027467  0.69484690  0.60438601  1  -0.311573  -0.116622  3.364041  -0.143  -0.263712  -0.072063  3.677207  -0.095  -0.3016  -0.059649  3.698674  -0.083  -0.381078  -0.242848  -0.077987  3.665962  -0.099
N  N78  1  0.99002571  0.19460217  0.10438034  1  -0.31254  0.116031  3.36484  0.142  -0.264391  0.072092  3.678585  0.095  -0.30251  0.059745  3.700047  0.083  -0.380785  -0.243214  0.078021  3.666773  0.099
N  N79  1  0.28973218  0.30514745  0.39561510  1  -0.311551  -0.116629  3.364055  -0.143  -0.263708  -0.072062  3.677273  -0.095  -0.301567  -0.059647  3.698733  -0.083  -0.381055  -0.242855  -0.077986  3.666029  -0.099
O  O80  1  0.84872039  0.13716035  0.85270856  1  -0.600404  0.079326  2.158778  0.105  -0.558076  0.05255  2.433531  0.076  -0.603462  0.040801  2.42681  0.062  -0.340363  -0.528937  0.060386  2.437244  0.084
O  O81  1  0.83832546  0.36294962  0.64748105  1  -0.599362  -0.079409  2.160103  -0.105  -0.558246  -0.052571  2.434396  -0.076  -0.603485  -0.040764  2.427869  -0.062  -0.340282  -0.528631  -0.060209  2.438531  -0.084
O  O82  1  0.15128134  0.86284116  0.14728916  1  -0.600389  0.079317  2.158861  0.105  -0.558032  0.052549  2.433584  0.076  -0.60341  0.040799  2.426876  0.062  -0.340366  -0.528899  0.060383  2.437293  0.084
O  O83  1  0.16167493  0.63704825  0.35252002  1  -0.599325  -0.079418  2.160108  -0.105  -0.558243  -0.052572  2.434396  -0.076  -0.603456  -0.040766  2.427868  -0.062  -0.340256  -0.528612  -0.060212  2.438526  -0.084
O  O84  1  0.27924537  0.78818866  0.75508003  1  -0.591304  0.094647  2.039382  0.123  -0.564003  0.060669  2.3243  0.087  -0.609739  0.046654  2.316896  0.07  -0.322815  -0.53466  0.069266  2.328975  0.096
O  O85  1  0.82213226  0.71207738  0.74491473  1  -0.593628  -0.094564  2.041013  -0.123  -0.565703  -0.060449  2.324663  -0.086  -0.611101  -0.046532  2.317223  -0.07  -0.323235  -0.535698  -0.069397  2.32846  -0.096
O  O86  1  0.72074379  0.21181166  0.24491863  1  -0.591301  0.094658  2.039421  0.123  -0.563948  0.060675  2.324233  0.087  -0.60968  0.046656  2.316837  0.07  -0.322806  -0.534614  0.069271  2.328916  0.096
O  O87  1  0.17788334  0.28791463  0.25508659  1  -0.593578  -0.094567  2.041139  -0.123  -0.565725  -0.060448  2.324645  -0.086  -0.6111  -0.04653  2.3172  -0.07  -0.323278  -0.535715  -0.069396  2.32844  -0.096
O  O88  1  0.77796638  0.96973856  0.71011527  1  -0.605255  -0.015521  1.935377  -0.018  -0.573963  -0.00823  2.17666  -0.01  -0.604617  -0.004758  2.164365  -0.005  -0.320704  -0.552392  -0.013241  2.184001  -0.016
O  O89  1  0.45796534  0.53040789  0.78977407  1  -0.604141  0.016948  1.936517  0.02  -0.573067  0.008605  2.177935  0.01  -0.603726  0.004869  2.165536  0.006  -0.320379  -0.551398  0.013221  2.184975  0.016
O  O90  1  0.22204590  0.03025583  0.28988500  1  -0.60517  -0.015527  1.93548  -0.018  -0.573942  -0.008231  2.176603  -0.01  -0.604591  -0.004758  2.164313  -0.005  -0.32072  -0.552379  -0.013242  2.183942  -0.016
O  O91  1  0.54203008  0.46959242  0.21022448  1  -0.604069  0.016946  1.936628  0.02  -0.573041  0.008605  2.178049  0.01  -0.603682  0.004868  2.165644  0.006  -0.320367  -0.551369  0.013221  2.185089  0.016
O  O92  1  0.13395022  0.10803123  0.69730649  1  -0.799199  0.02853  1.948245  0.036  -0.760086  0.026364  2.165416  0.035  -0.788263  0.022774  2.129757  0.032  -0.574476  -0.742318  0.02804  2.190532  0.036
O  O93  1  0.93875894  0.39219919  0.80289050  1  -0.797527  -0.028722  1.948581  -0.036  -0.758914  -0.026459  2.16609  -0.035  -0.786857  -0.022802  2.130642  -0.032  -0.574141  -0.7413  -0.028037  2.189758  -0.036
O  O94  1  0.86604964  0.89196781  0.30269448  1  -0.799229  0.028527  1.948311  0.036  -0.76015  0.026363  2.165445  0.035  -0.788319  0.022774  2.129797  0.032  -0.574503  -0.742377  0.028038  2.190572  0.036
O  O95  1  0.06124570  0.60779866  0.19711093  1  -0.797576  -0.028721  1.948578  -0.036  -0.759001  -0.026458  2.166123  -0.035  -0.786923  -0.022801  2.13068  -0.032  -0.574153  -0.741379  -0.028036  2.189788  -0.036
