# generated using pymatgen
data_U2H12C16O15
_symmetry_space_group_name_H-M   'P 1'
_cell_length_a   8.67582402
_cell_length_b   10.59242552
_cell_length_c   14.18867288
_cell_angle_alpha   71.14033603
_cell_angle_beta   72.54690592
_cell_angle_gamma   65.04663038
_symmetry_Int_Tables_number   1
_chemical_formula_structural   U2H12C16O15
_chemical_formula_sum   'U4 H24 C32 O30'
_cell_volume   1098.21046016
_cell_formula_units_Z   2
loop_
 _symmetry_equiv_pos_site_id
 _symmetry_equiv_pos_as_xyz
  1  'x, y, z'
loop_
 _atom_site_type_symbol
 _atom_site_label
 _atom_site_symmetry_multiplicity
 _atom_site_fract_x
 _atom_site_fract_y
 _atom_site_fract_z
 _atom_site_occupancy
 _atom_site_hle17_bader_spin_density
 _atom_site_hle17_ddec_charge
 _atom_site_hle17_ddec_spin_density
 _atom_site_hle17_ddec_sum_bond_order
 _atom_site_hle17_magmom
 _atom_site_hse06_10hf_bader_spin_density
 _atom_site_hse06_10hf_ddec_charge
 _atom_site_hse06_10hf_ddec_spin_density
 _atom_site_hse06_10hf_ddec_sum_bond_order
 _atom_site_hse06_10hf_magmom
 _atom_site_hse06_bader_spin_density
 _atom_site_hse06_ddec_charge
 _atom_site_hse06_ddec_spin_density
 _atom_site_hse06_ddec_sum_bond_order
 _atom_site_hse06_magmom
 _atom_site_pbe_bader_spin_density
 _atom_site_pbe_cm5_charge
 _atom_site_pbe_ddec_charge
 _atom_site_pbe_ddec_spin_density
 _atom_site_pbe_ddec_sum_bond_order
 _atom_site_pbe_magmom
U  U0  1  0.40085909  0.27350477  0.04289041  1  0  2.50781  0  4.112288  0  0  2.567336  0  4.769578  0  0  2.677321  0  4.730257  0  0  2.199955  2.489452  0  4.797631  0
U  U1  1  0.59912372  0.72649678  0.95711152  1  0  2.508189  0  4.112227  0  0  2.567385  0  4.769626  0  0  2.677287  0  4.730443  0  0  2.200031  2.489472  0  4.79777  0
U  U2  1  0.14024020  0.21480121  0.50209361  1  0  2.513137  0  4.095063  0  0  2.572944  0  4.747836  0  0  2.677731  0  4.712692  0  0  2.174787  2.498758  0  4.772964  0
U  U3  1  0.85978292  0.78519930  0.49790252  1  0  2.513275  0  4.095224  0  0  2.572906  0  4.748064  0  0  2.677708  0  4.712916  0  0  2.174795  2.498677  0  4.773303  0
H  H4  1  0.08812741  0.22145754  0.22509376  1  0  0.462193  0  0.830114  0  0  0.433577  0  0.888896  0  0  0.445725  0  0.871379  0  0  0.31505  0.425063  0  0.90114  0
H  H5  1  0.91185628  0.77854186  0.77490921  1  0  0.462219  0  0.830077  0  0  0.433575  0  0.888913  0  0  0.445729  0  0.871386  0  0  0.315047  0.425061  0  0.90116  0
H  H6  1  0.08403849  0.38152108  0.20289181  1  0  0.457297  0  0.780117  0  0  0.445794  0  0.820652  0  0  0.454793  0  0.81121  0  0  0.35072  0.439231  0  0.827715  0
H  H7  1  0.91595305  0.61847383  0.79711357  1  0  0.45725  0  0.780195  0  0  0.445744  0  0.820731  0  0  0.454741  0  0.811289  0  0  0.350679  0.439184  0  0.827795  0
H  H8  1  0.30123358  0.21197343  0.28506832  1  0  0.434487  0  0.866996  0  0  0.404588  0  0.930712  0  0  0.416506  0  0.913299  0  0  0.309588  0.396136  0  0.943066  0
H  H9  1  0.69876451  0.78801720  0.71493121  1  0  0.434555  0  0.866888  0  0  0.404644  0  0.930627  0  0  0.416565  0  0.913207  0  0  0.309585  0.396192  0  0.942982  0
H  H10  1  0.45943446  0.20620386  0.32205203  1  0  0.461332  0  0.776921  0  0  0.452714  0  0.815344  0  0  0.461726  0  0.803847  0  0  0.352824  0.446228  0  0.822339  0
H  H11  1  0.54056456  0.79379638  0.67793945  1  0  0.461354  0  0.776929  0  0  0.452743  0  0.815334  0  0  0.461755  0  0.803812  0  0  0.352831  0.446259  0  0.822326  0
H  H12  1  0.15709374  0.95212025  0.43589766  1  0  0.443002  0  0.849405  0  0  0.41852  0  0.90308  0  0  0.431341  0  0.88459  0  0  0.309875  0.409295  0  0.91637  0
H  H13  1  0.84291528  0.04787631  0.56410552  1  0  0.443017  0  0.849367  0  0  0.418557  0  0.903013  0  0  0.431379  0  0.884521  0  0  0.309899  0.40933  0  0.916311  0
H  H14  1  0.34565012  0.95651637  0.41422906  1  0  0.446325  0  0.808645  0  0  0.430498  0  0.861557  0  0  0.439575  0  0.848433  0  0  0.328973  0.423938  0  0.871108  0
H  H15  1  0.65436150  0.04347375  0.58577654  1  0  0.446312  0  0.80867  0  0  0.430456  0  0.861622  0  0  0.439534  0  0.848495  0  0  0.328937  0.4239  0  0.871167  0
H  H16  1  0.99301356  0.27756657  0.96826728  1  0  0.117886  0  0.938406  0  0  0.129715  0  0.992501  0  0  0.133337  0  0.989261  0  0  0.117327  0.127238  0  0.994856  0
H  H17  1  0.00696986  0.72242751  0.03173909  1  0  0.117948  0  0.938374  0  0  0.129749  0  0.992501  0  0  0.133416  0  0.989203  0  0  0.117355  0.127277  0  0.994846  0
H  H18  1  0.22556934  0.04437733  0.94645696  1  0  0.107671  0  0.971174  0  0  0.113977  0  1.03693  0  0  0.117799  0  1.035397  0  0  0.111879  0.111182  0  1.038183  0
H  H19  1  0.77441943  0.95563042  0.05354242  1  0  0.107627  0  0.971097  0  0  0.11401  0  1.036781  0  0  0.117834  0  1.035247  0  0  0.111898  0.11125  0  1.037989  0
H  H20  1  0.21437500  0.91840951  0.82898662  1  0  0.116996  0  0.968874  0  0  0.127674  0  1.027563  0  0  0.13135  0  1.024178  0  0  0.111978  0.125178  0  1.029961  0
H  H21  1  0.78563630  0.08159031  0.17100833  1  0  0.116912  0  0.96893  0  0  0.127624  0  1.027589  0  0  0.131301  0  1.0242  0  0  0.111961  0.125131  0  1.029986  0
H  H22  1  0.34963605  0.19256189  0.75039787  1  0  0.106804  0  0.949991  0  0  0.117622  0  1.009958  0  0  0.11992  0  1.009542  0  0  0.11315  0.116099  0  1.010181  0
H  H23  1  0.65035804  0.80745652  0.24958747  1  0  0.106838  0  0.949928  0  0  0.117626  0  1.00995  0  0  0.119923  0  1.009535  0  0  0.113134  0.1161  0  1.010177  0
H  H24  1  0.28933206  0.42311752  0.62029524  1  0  0.109657  0  0.938873  0  0  0.118158  0  0.998558  0  0  0.121495  0  0.997012  0  0  0.115056  0.115935  0  0.999619  0
H  H25  1  0.71068740  0.57689800  0.37969243  1  0  0.109711  0  0.938702  0  0  0.118192  0  0.998428  0  0  0.12153  0  0.996881  0  0  0.115113  0.115967  0  0.99949  0
H  H26  1  0.49632695  0.55192395  0.56650535  1  0  0.104061  0  0.947449  0  0  0.114735  0  1.006624  0  0  0.117586  0  1.005139  0  0  0.11229  0.112785  0  1.007579  0
H  H27  1  0.50370098  0.44807963  0.43348848  1  0  0.104049  0  0.947305  0  0  0.114721  0  1.006482  0  0  0.117574  0  1.004994  0  0  0.112294  0.11277  0  1.007437  0
C  C28  1  0.84676240  0.21281248  0.79637025  1  0  0.048756  0  3.736309  0  0  0.049464  0  3.969027  0  0  0.053719  0  3.989576  0  0  0.009436  0.046846  0  3.954985  0
C  C29  1  0.15322129  0.78716892  0.20363761  1  0  0.048794  0  3.73629  0  0  0.049443  0  3.96915  0  0  0.053698  0  3.989699  0  0  0.009396  0.046824  0  3.955107  0
C  C30  1  0.85140360  0.27973400  0.86606983  1  0  -0.118483  0  3.722303  0  0  -0.108615  0  3.963608  0  0  -0.118454  0  3.984191  0  0  -0.010048  -0.101947  0  3.949681  0
C  C31  1  0.14860407  0.72026281  0.13392297  1  0  -0.118595  0  3.722758  0  0  -0.108651  0  3.964086  0  0  -0.118496  0  3.984674  0  0  -0.010049  -0.101984  0  3.950154  0
C  C32  1  0.99093312  0.22184520  0.91653987  1  0  -0.029754  0  3.679783  0  0  -0.058264  0  3.931176  0  0  -0.056255  0  3.949679  0  0  -0.064917  -0.059426  0  3.918335  0
C  C33  1  0.00904949  0.77815093  0.08347040  1  0  -0.029835  0  3.679607  0  0  -0.058328  0  3.931007  0  0  -0.056354  0  3.949502  0  0  -0.064915  -0.059494  0  3.918179  0
C  C34  1  0.12125482  0.09174649  0.90381792  1  0  -0.062941  0  3.731133  0  0  -0.07842  0  3.995601  0  0  -0.082947  0  4.017315  0  0  -0.078787  -0.075244  0  3.980545  0
C  C35  1  0.87873920  0.90826630  0.09618496  1  0  -0.062858  0  3.73068  0  0  -0.078399  0  3.995203  0  0  -0.082925  0  4.016922  0  0  -0.078819  -0.075246  0  3.980141  0
C  C36  1  0.11464259  0.02124805  0.83847941  1  0  -0.039655  0  3.692204  0  0  -0.071263  0  3.950753  0  0  -0.070074  0  3.969982  0  0  -0.066542  -0.071664  0  3.937259  0
C  C37  1  0.88535367  0.97875619  0.16152646  1  0  -0.039541  0  3.692307  0  0  -0.07119  0  3.950915  0  0  -0.070001  0  3.970143  0  0  -0.066566  -0.071594  0  3.937433  0
C  C38  1  0.98185353  0.08308126  0.78274548  1  0  -0.119246  0  3.746079  0  0  -0.111698  0  3.997898  0  0  -0.121011  0  4.019426  0  0  -0.010392  -0.105698  0  3.983294  0
C  C39  1  0.01815282  0.91692184  0.21725033  1  0  -0.119378  0  3.746136  0  0  -0.111828  0  3.997987  0  0  -0.121142  0  4.019518  0  0  -0.010374  -0.105826  0  3.983381  0
C  C40  1  0.70419398  0.40514885  0.89840932  1  0  0.719954  0  3.812374  0  0  0.687692  0  4.108487  0  0  0.729085  0  4.093636  0  0  0.25604  0.658814  0  4.118051  0
C  C41  1  0.29579454  0.59483863  0.10160328  1  0  0.720288  0  3.8125  0  0  0.687875  0  4.108787  0  0  0.729281  0  4.093902  0  0  0.256041  0.659008  0  4.118332  0
C  C42  1  0.99072440  0.00799868  0.70726263  1  0  0.689738  0  3.84128  0  0  0.643314  0  4.151062  0  0  0.679495  0  4.141115  0  0  0.242456  0.618553  0  4.156748  0
C  C43  1  0.00925492  0.99201762  0.29274426  1  0  0.689526  0  3.841455  0  0  0.643139  0  4.151194  0  0  0.679318  0  4.141246  0  0  0.24242  0.618378  0  4.156881  0
C  C44  1  0.69796195  0.27113447  0.74362487  1  0  0.052381  0  3.735221  0  0  0.051429  0  3.968136  0  0  0.055949  0  3.988474  0  0  0.01171  0.048295  0  3.954462  0
C  C45  1  0.30203877  0.72886765  0.25637573  1  0  0.052575  0  3.735018  0  0  0.051544  0  3.967957  0  0  0.056064  0  3.988294  0  0  0.011766  0.04841  0  3.954282  0
C  C46  1  0.57882737  0.20104510  0.77451749  1  0  -0.117344  0  3.719458  0  0  -0.1076  0  3.962353  0  0  -0.11629  0  3.981539  0  0  -0.007182  -0.101718  0  3.949188  0
C  C47  1  0.42118022  0.79895490  0.22547388  1  0  -0.117533  0  3.719506  0  0  -0.107539  0  3.962171  0  0  -0.116227  0  3.981356  0  0  -0.00718  -0.101659  0  3.949005  0
C  C48  1  0.43688048  0.25148919  0.72719814  1  0  -0.032302  0  3.686719  0  0  -0.061822  0  3.941945  0  0  -0.059525  0  3.960103  0  0  -0.064335  -0.062726  0  3.928865  0
C  C49  1  0.56311838  0.74852355  0.27280033  1  0  -0.032227  0  3.686716  0  0  -0.061792  0  3.941899  0  0  -0.059493  0  3.960053  0  0  -0.064322  -0.062698  0  3.928822  0
C  C50  1  0.40390465  0.37996343  0.65412835  1  0  -0.059035  0  3.720719  0  0  -0.075594  0  3.982485  0  0  -0.079586  0  4.002783  0  0  -0.076375  -0.072794  0  3.967854  0
C  C51  1  0.59610610  0.62004071  0.34586218  1  0  -0.05924  0  3.720703  0  0  -0.07579  0  3.982519  0  0  -0.079784  0  4.002818  0  0  -0.076534  -0.072987  0  3.96788  0
C  C52  1  0.51880306  0.45225260  0.62419934  1  0  -0.034854  0  3.691177  0  0  -0.064279  0  3.944222  0  0  -0.062326  0  3.963903  0  0  -0.065731  -0.065013  0  3.93024  0
C  C53  1  0.48120204  0.54775365  0.37579878  1  0  -0.034629  0  3.691029  0  0  -0.06404  0  3.944065  0  0  -0.062088  0  3.963748  0  0  -0.065604  -0.064771  0  3.930081  0
C  C54  1  0.67027313  0.39456663  0.66428794  1  0  -0.107227  0  3.707453  0  0  -0.09649  0  3.94619  0  0  -0.106369  0  3.966553  0  0  -0.006159  -0.089939  0  3.932538  0
C  C55  1  0.32973702  0.60543004  0.33570796  1  0  -0.107553  0  3.707802  0  0  -0.096817  0  3.946535  0  0  -0.106693  0  3.966893  0  0  -0.006279  -0.090267  0  3.932885  0
C  C56  1  0.59586264  0.07741001  0.86500756  1  0  0.721786  0  3.817377  0  0  0.688596  0  4.11106  0  0  0.728934  0  4.09663  0  0  0.256937  0.660603  0  4.120162  0
C  C57  1  0.40411595  0.92259596  0.13498989  1  0  0.72217  0  3.81711  0  0  0.688828  0  4.110962  0  0  0.729162  0  4.096527  0  0  0.257064  0.660838  0  4.120063  0
C  C58  1  0.80497122  0.46015443  0.61289923  1  0  0.717936  0  3.813084  0  0  0.686251  0  4.108157  0  0  0.727605  0  4.092995  0  0  0.253304  0.657402  0  4.117898  0
C  C59  1  0.19506119  0.53983818  0.38710971  1  0  0.71791  0  3.81349  0  0  0.686297  0  4.10843  0  0  0.727651  0  4.093274  0  0  0.253434  0.65745  0  4.118167  0
O  O60  1  0.24275469  0.31853850  0.96758224  1  0  -0.6958  0  1.526107  0  0  -0.704005  0  1.797485  0  0  -0.725018  0  1.783817  0  0  -0.756326  -0.691884  0  1.807917  0
O  O61  1  0.75723536  0.68146606  0.03241694  1  0  -0.695833  0  1.526067  0  0  -0.703946  0  1.797474  0  0  -0.724943  0  1.783842  0  0  -0.756235  -0.691821  0  1.807906  0
O  O62  1  0.55390423  0.23575354  0.12020321  1  0  -0.702062  0  1.56013  0  0  -0.703869  0  1.833769  0  0  -0.725367  0  1.819729  0  0  -0.75789  -0.691473  0  1.844506  0
O  O63  1  0.44608898  0.76423720  0.87979790  1  0  -0.702194  0  1.560179  0  0  -0.703936  0  1.833897  0  0  -0.725398  0  1.819831  0  0  -0.75806  -0.691541  0  1.844646  0
O  O64  1  0.97909806  0.29544139  0.42325316  1  0  -0.690218  0  1.516407  0  0  -0.697744  0  1.785246  0  0  -0.716926  0  1.772062  0  0  -0.763688  -0.687151  0  1.795463  0
O  O65  1  0.02091042  0.70456253  0.57675123  1  0  -0.6903  0  1.516566  0  0  -0.697779  0  1.785433  0  0  -0.716966  0  1.772244  0  0  -0.7637  -0.687179  0  1.795668  0
O  O66  1  0.30451377  0.13369785  0.57934304  1  0  -0.703124  0  1.496107  0  0  -0.706909  0  1.763571  0  0  -0.72839  0  1.751957  0  0  -0.758338  -0.694317  0  1.772384  0
O  O67  1  0.69550589  0.86629326  0.42065451  1  0  -0.703323  0  1.496059  0  0  -0.707011  0  1.763499  0  0  -0.728498  0  1.751886  0  0  -0.758379  -0.694384  0  1.772285  0
O  O68  1  0.54962455  0.40702386  0.91678511  1  0  -0.657658  0  2.064767  0  0  -0.651737  0  2.334629  0  0  -0.689288  0  2.328843  0  0  -0.360811  -0.624284  0  2.337306  0
O  O69  1  0.45035437  0.59298426  0.08320966  1  0  -0.657815  0  2.064899  0  0  -0.651817  0  2.334836  0  0  -0.689357  0  2.329043  0  0  -0.360822  -0.624362  0  2.337509  0
O  O70  1  0.74152413  0.50205281  0.91065727  1  0  -0.653149  0  2.053086  0  0  -0.638924  0  2.314151  0  0  -0.673221  0  2.304623  0  0  -0.354211  -0.613965  0  2.319759  0
O  O71  1  0.25845696  0.49795302  0.08934397  1  0  -0.653293  0  2.053166  0  0  -0.638995  0  2.314277  0  0  -0.673308  0  2.304742  0  0  -0.354209  -0.614048  0  2.319877  0
O  O72  1  0.96784810  0.08795392  0.61614215  1  0  -0.71637  0  2.094828  0  0  -0.693875  0  2.362931  0  0  -0.732608  0  2.359429  0  0  -0.383483  -0.665369  0  2.363899  0
O  O73  1  0.03217289  0.91203698  0.38386366  1  0  -0.716245  0  2.094441  0  0  -0.69379  0  2.362589  0  0  -0.732526  0  2.359094  0  0  -0.383515  -0.665277  0  2.36356  0
O  O74  1  0.02070793  0.87739180  0.73062215  1  0  -0.556813  0  1.948225  0  0  -0.517422  0  2.157858  0  0  -0.541234  0  2.146312  0  0  -0.282828  -0.499952  0  2.164917  0
O  O75  1  0.97926972  0.12260457  0.26938264  1  0  -0.556607  0  1.948831  0  0  -0.517216  0  2.158448  0  0  -0.541016  0  2.146897  0  0  -0.282745  -0.499752  0  2.16551  0
O  O76  1  0.58777350  0.10235469  0.94932160  1  0  -0.674382  0  2.113001  0  0  -0.666092  0  2.395609  0  0  -0.703598  0  2.391194  0  0  -0.363121  -0.63845  0  2.397083  0
O  O77  1  0.41221543  0.89764362  0.05067571  1  0  -0.674669  0  2.113008  0  0  -0.666241  0  2.395579  0  0  -0.70376  0  2.391227  0  0  -0.36319  -0.638594  0  2.397055  0
O  O78  1  0.61601438  0.95705142  0.85463922  1  0  -0.633812  0  2.026286  0  0  -0.617015  0  2.285802  0  0  -0.650183  0  2.278589  0  0  -0.34159  -0.592893  0  2.289921  0
O  O79  1  0.38397570  0.04295004  0.14535715  1  0  -0.633878  0  2.026231  0  0  -0.617114  0  2.285884  0  0  -0.650291  0  2.278669  0  0  -0.341648  -0.593  0  2.290003  0
O  O80  1  0.96501117  0.37802589  0.60310536  1  0  -0.671774  0  2.061188  0  0  -0.666497  0  2.33587  0  0  -0.703596  0  2.330306  0  0  -0.366891  -0.639188  0  2.338264  0
O  O81  1  0.03501768  0.62195746  0.39689794  1  0  -0.671623  0  2.061084  0  0  -0.666362  0  2.335765  0  0  -0.70346  0  2.330201  0  0  -0.366893  -0.639044  0  2.33816  0
O  O82  1  0.75426811  0.59433915  0.57686812  1  0  -0.66838  0  2.072656  0  0  -0.65716  0  2.341238  0  0  -0.691046  0  2.331951  0  0  -0.358967  -0.632172  0  2.346404  0
O  O83  1  0.24575433  0.40565709  0.42313195  1  0  -0.668447  0  2.073042  0  0  -0.657289  0  2.34163  0  0  -0.691176  0  2.332346  0  0  -0.359113  -0.632308  0  2.346793  0
O  O84  1  0.16134052  0.28338337  0.20095346  1  0  -0.878824  0  1.938803  0  0  -0.839167  0  2.126466  0  0  -0.863376  0  2.09812  0  0  -0.570368  -0.821765  0  2.146037  0
O  O85  1  0.83864967  0.71661485  0.79904647  1  0  -0.878891  0  1.938835  0  0  -0.839179  0  2.126443  0  0  -0.863383  0  2.098099  0  0  -0.570362  -0.821772  0  2.146019  0
O  O86  1  0.36457685  0.17088501  0.34265842  1  0  -0.867  0  1.887336  0  0  -0.837158  0  2.070509  0  0  -0.858862  0  2.039051  0  0  -0.589893  -0.82138  0  2.091163  0
O  O87  1  0.63542061  0.82911617  0.65734088  1  0  -0.867074  0  1.8872  0  0  -0.837234  0  2.070381  0  0  -0.858941  0  2.038903  0  0  -0.589898  -0.821446  0  2.091035  0
O  O88  1  0.23531101  0.97441177  0.46216052  1  0  -0.848988  0  1.831081  0  0  -0.8229  0  2.003608  0  0  -0.845353  0  1.973101  0  0  -0.59438  -0.806549  0  2.024935  0
O  O89  1  0.76469764  0.02558269  0.53784251  1  0  -0.848958  0  1.831092  0  0  -0.822858  0  2.003576  0  0  -0.845315  0  1.973069  0  0  -0.594343  -0.806502  0  2.024902  0
