# generated using pymatgen
data_MnH22C30(NO)4
_symmetry_space_group_name_H-M   'P 1'
_cell_length_a   10.15916711
_cell_length_b   11.62485948
_cell_length_c   12.10701707
_cell_angle_alpha   63.78710317
_cell_angle_beta   71.52060111
_cell_angle_gamma   84.08348122
_symmetry_Int_Tables_number   1
_chemical_formula_structural   MnH22C30(NO)4
_chemical_formula_sum   'Mn2 H44 C60 N8 O8'
_cell_volume   1215.49127468
_cell_formula_units_Z   2
loop_
 _symmetry_equiv_pos_site_id
 _symmetry_equiv_pos_as_xyz
  1  'x, y, z'
loop_
 _atom_site_type_symbol
 _atom_site_label
 _atom_site_symmetry_multiplicity
 _atom_site_fract_x
 _atom_site_fract_y
 _atom_site_fract_z
 _atom_site_occupancy
 _atom_site_pbe_bader_charge
 _atom_site_pbe_bader_spin_density
 _atom_site_pbe_cm5_charge
 _atom_site_pbe_ddec_charge
 _atom_site_pbe_ddec_spin_density
 _atom_site_pbe_ddec_sum_bond_order
 _atom_site_pbe_magmom
Mn  Mn0  1  0.99999831  0.49999821  0.50000168  1  1.55633  4.427297  0.630926  0.957857  4.567845  2.504507  4.375
Mn  Mn1  1  0.50000064  0.49999988  0.50000162  1  1.53656  4.531676  0.611474  0.946184  4.66645  2.359706  4.461
H  H2  1  0.09558090  0.19054348  0.57065555  1  0.082573  0.000594  0.103167  0.121355  1.5e-05  1.035267  0.0
H  H3  1  0.90440815  0.80946119  0.42934399  1  0.082704  0.000594  0.103158  0.121424  1.5e-05  1.035054  0.0
H  H4  1  0.41295934  0.17093658  0.47395738  1  0.05678  0.000288  0.100619  0.093245  -0.000136  1.055291  0.0
H  H5  1  0.58702831  0.82906053  0.52604067  1  0.05669  0.000288  0.100608  0.093313  -0.000136  1.055233  0.0
H  H6  1  0.06529445  0.99638485  0.57896957  1  0.058871  0.000199  0.097787  0.096605  0.000102  1.03441  0.0
H  H7  1  0.93469614  0.00360850  0.42102592  1  0.058931  0.000199  0.097805  0.096608  0.000102  1.0345  0.0
H  H8  1  0.04536624  0.80743354  0.54047893  1  0.095022  0.000138  0.101087  0.096706  -0.000187  1.046464  0.0
H  H9  1  0.95463377  0.19256169  0.45951493  1  0.095191  0.000138  0.10105  0.096619  -0.000187  1.046424  0.0
H  H10  1  0.48513217  0.83028501  0.35796442  1  0.10498  5.6e-05  0.104608  0.106758  -0.000538  1.048301  0.0
H  H11  1  0.51487123  0.16971587  0.64203119  1  0.104811  5.7e-05  0.104594  0.106754  -0.000538  1.048334  0.0
H  H12  1  0.50411046  0.03268637  0.37810730  1  0.061149  0.000158  0.10149  0.10362  6.8e-05  1.008254  0.0
H  H13  1  0.49587945  0.96731445  0.62189442  1  0.060952  0.000158  0.101519  0.103705  6.8e-05  1.008254  0.0
H  H14  1  0.08610505  0.59413361  0.67260899  1  0.127914  0.001424  0.119013  0.086455  0.000712  1.018877  0.0
H  H15  1  0.91389713  0.40586337  0.32739101  1  0.127947  0.001424  0.119038  0.086499  0.000712  1.018812  0.0
H  H16  1  0.99381708  0.59486781  0.88904105  1  0.07837  0.000623  0.108981  0.118752  0.000337  1.015868  0.0
H  H17  1  0.00619246  0.40513105  0.11095787  1  0.078156  0.000623  0.108985  0.118758  0.000337  1.015914  0.0
H  H18  1  0.60317372  0.44122256  0.92666092  1  0.106102  0.000581  0.106463  0.111653  0.000313  1.045735  0.0
H  H19  1  0.39682987  0.55878189  0.07334475  1  0.105938  0.000581  0.1065  0.111693  0.000313  1.045758  0.0
H  H20  1  0.70963095  0.45752054  0.70296624  1  0.134522  0.001149  0.119342  0.091952  0.000247  1.04446  0.0
H  H21  1  0.29036943  0.54248199  0.29704107  1  0.134433  0.001149  0.11933  0.091931  0.000246  1.044484  0.0
H  H22  1  0.58911865  0.34413878  0.13165059  1  0.112594  0.000483  0.104964  0.111277  0.000263  1.040344  0.0
H  H23  1  0.41089094  0.65586091  0.86835376  1  0.113005  0.000483  0.104951  0.111267  0.000263  1.040195  0.0
H  H24  1  0.49143841  0.34128916  0.35043402  1  0.117862  0.00091  0.1129  0.078665  0.00037  1.057889  0.001
H  H25  1  0.50857227  0.65871151  0.64956882  1  0.1178  0.00091  0.112896  0.078631  0.00037  1.057897  0.001
H  H26  1  0.74789649  0.64734011  0.24920376  1  0.116833  0.001191  0.116789  0.086136  0.000396  1.040397  0.0
H  H27  1  0.25210105  0.35266833  0.75079529  1  0.116585  0.001191  0.116817  0.086208  0.000396  1.040381  0.0
H  H28  1  0.86012013  0.66489358  0.02801635  1  0.139458  0.00049  0.101738  0.102375  0.000273  1.069539  0.0
H  H29  1  0.13988445  0.33511002  0.97198444  1  0.139428  0.00049  0.101747  0.102376  0.000272  1.069498  0.0
H  H30  1  0.41344964  0.74725350  0.12092022  1  0.101061  0.000149  0.10971  0.079134  -7e-05  1.006911  0.0
H  H31  1  0.58655083  0.25275106  0.87908128  1  0.100869  0.000149  0.109736  0.079176  -7e-05  1.006822  0.0
H  H32  1  0.54003981  0.89334967  0.15381486  1  0.082257  5.3e-05  0.105188  0.110855  5e-06  1.03007  0.0
H  H33  1  0.45996265  0.10665301  0.84618523  1  0.082299  5.3e-05  0.105193  0.110852  5e-06  1.030054  0.0
H  H34  1  0.85313102  0.95306919  0.79269381  1  0.060497  2.7e-05  0.10355  0.108866  1.4e-05  1.015223  0.0
H  H35  1  0.14686972  0.04691908  0.20731343  1  0.060317  2.7e-05  0.103564  0.108879  1.4e-05  1.015149  0.0
H  H36  1  0.71160082  0.80506107  0.77402331  1  0.060698  8.6e-05  0.105326  0.074493  6.3e-05  1.003558  0.0
H  H37  1  0.28839487  0.19493002  0.22598661  1  0.060762  8.6e-05  0.105307  0.074463  6.3e-05  1.003525  0.0
H  H38  1  0.71989599  0.93445030  0.20246730  1  0.064732  0.000138  0.102852  0.111481  3.3e-05  1.020842  0.0
H  H39  1  0.28010855  0.06555234  0.79753390  1  0.064668  0.000138  0.102859  0.111491  3.3e-05  1.02081  0.0
H  H40  1  0.84542997  0.09404292  0.21982338  1  0.058723  4.5e-05  0.10215  0.066681  2.7e-05  1.021575  0.0
H  H41  1  0.15457604  0.90596943  0.78016851  1  0.058753  4.5e-05  0.102139  0.066647  2.7e-05  1.021537  0.0
H  H42  1  0.00235641  0.29398153  0.82134792  1  0.088543  0.000156  0.109639  0.082034  -0.000351  1.025473  0.0
H  H43  1  0.99763774  0.70602136  0.17864521  1  0.08861  0.000156  0.109634  0.082056  -0.000351  1.025466  0.0
H  H44  1  0.87778599  0.14972306  0.78611611  1  0.098411  0.000193  0.105186  0.116643  -0.000186  1.028377  0.0
H  H45  1  0.12221421  0.85027597  0.21387781  1  0.098558  0.000193  0.105219  0.116625  -0.000185  1.028435  0.0
C  C46  1  0.24436747  0.32005984  0.56147048  1  1.538753  0.031645  0.210654  0.615409  0.029887  4.194807  0.026
C  C47  1  0.75563070  0.67994002  0.43852942  1  1.538738  0.031649  0.210652  0.615435  0.029891  4.19494  0.026
C  C48  1  0.20679810  0.20981414  0.54492347  1  -0.090448  0.00328  -0.102154  -0.251302  0.001996  3.919202  0.001
C  C49  1  0.79319181  0.79018676  0.45507491  1  -0.088918  0.003277  -0.102126  -0.25132  0.001994  3.9191  0.001
C  C50  1  0.30494251  0.14091117  0.49891964  1  -0.019085  0.017834  -0.08373  -0.086774  0.01396  3.995766  0.01
C  C51  1  0.69504523  0.85908786  0.50107760  1  -0.020631  0.017842  -0.083782  -0.086973  0.013965  3.995973  0.01
C  C52  1  0.28655418  0.02890848  0.48048621  1  0.003334  0.006469  -0.016121  0.091708  0.004986  4.051154  0.003
C  C53  1  0.71343460  0.97109057  0.51950992  1  0.011636  0.006466  -0.016063  0.091834  0.004985  4.051032  0.003
C  C54  1  0.15727520  0.96310442  0.52690641  1  -0.115866  0.004392  -0.090867  -0.129032  0.003399  3.967727  0.002
C  C55  1  0.84271669  0.03689468  0.47308639  1  -0.054501  0.004337  -0.090919  -0.129123  0.0034  3.967623  0.002
C  C56  1  0.14591771  0.85660628  0.50651994  1  -0.059348  0.003997  -0.09112  -0.109145  0.002974  4.010609  0.002
C  C57  1  0.85407829  0.14339179  0.49347549  1  -0.129226  0.004054  -0.091099  -0.109021  0.002973  4.010477  0.002
C  C58  1  0.26390185  0.80855250  0.44442537  1  -0.057773  0.006229  -0.017922  -0.03583  0.004371  3.968597  0.003
C  C59  1  0.73609618  0.19144455  0.55557240  1  -0.05765  0.006232  -0.017937  -0.035889  0.004373  3.968643  0.003
C  C60  1  0.39339230  0.87122614  0.40101733  1  0.004514  0.006567  -0.085852  -0.101484  0.004902  3.989269  0.004
C  C61  1  0.60660479  0.12877276  0.59898325  1  0.004603  0.006566  -0.085811  -0.101462  0.004901  3.989222  0.004
C  C62  1  0.40379782  0.98146860  0.41603006  1  -0.066752  0.002845  -0.087172  -0.129507  0.002283  3.969581  0.001
C  C63  1  0.59619408  0.01853030  0.58397191  1  -0.066671  0.002847  -0.087162  -0.12955  0.002284  3.969453  0.001
C  C64  1  0.25066187  0.69309603  0.42281063  1  1.560893  0.029742  0.218903  0.580097  0.02793  4.190219  0.025
C  C65  1  0.74933819  0.30690013  0.57718450  1  1.561078  0.029737  0.218822  0.580063  0.027927  4.19034  0.025
C  C66  1  0.97856332  0.56406668  0.73096968  1  0.488635  0.007833  0.05147  0.0958  0.005916  3.953782  0.005
C  C67  1  0.02144099  0.43593122  0.26903103  1  0.488634  0.007833  0.051401  0.095721  0.005916  3.953706  0.005
C  C68  1  0.92688728  0.56266953  0.85243066  1  -0.117871  -4.2e-05  -0.080026  -0.171875  -0.000708  3.925824  0.0
C  C69  1  0.07312118  0.43732836  0.14756978  1  -0.11791  -4.2e-05  -0.080057  -0.171875  -0.000708  3.925937  0.0
C  C70  1  0.79033558  0.51573030  0.92769080  1  0.045456  0.006805  0.013577  0.108302  0.005259  3.973306  0.004
C  C71  1  0.20967193  0.48426941  0.07231328  1  0.045634  0.006804  0.013473  0.108159  0.005257  3.973245  0.004
C  C72  1  0.71019782  0.47785743  0.87291197  1  -0.074628  0.000139  -0.079307  -0.165343  -0.000479  3.913406  0.0
C  C73  1  0.28980862  0.52214128  0.12709445  1  -0.07448  0.00014  -0.079217  -0.165284  -0.000479  3.913247  0.0
C  C74  1  0.76855735  0.48622483  0.74901507  1  0.498816  0.007901  0.049125  0.087693  0.006192  3.934202  0.005
C  C75  1  0.23144385  0.51377294  0.25099231  1  0.498906  0.007901  0.049006  0.087699  0.006191  3.934178  0.005
C  C76  1  0.73272940  0.50631250  0.05957550  1  -0.055187  0.005436  0.011454  0.102428  0.004162  3.97108  0.003
C  C77  1  0.26727703  0.49368627  0.94042842  1  -0.055443  0.005437  0.011506  0.102427  0.004163  3.971243  0.003
C  C78  1  0.62796987  0.41357247  0.15327970  1  0.038374  0.001719  -0.082106  -0.168489  0.001155  3.922036  0.001
C  C79  1  0.37203968  0.58642630  0.84672339  1  0.038181  0.001718  -0.082137  -0.168493  0.001154  3.921947  0.001
C  C80  1  0.57317119  0.41101960  0.27511843  1  0.405415  0.006279  0.045925  0.094839  0.004791  3.941358  0.004
C  C81  1  0.42683627  0.58897921  0.72488354  1  0.4054  0.00628  0.045887  0.0948  0.004792  3.94139  0.004
C  C82  1  0.71623349  0.58215237  0.21899841  1  0.489227  0.00716  0.05021  0.096309  0.005551  3.943407  0.005
C  C83  1  0.28376698  0.41785215  0.78100475  1  0.489573  0.007161  0.050173  0.096188  0.005552  3.943527  0.005
C  C84  1  0.77873703  0.59061858  0.09545823  1  -0.04744  0.000308  -0.082989  -0.171487  -0.000211  3.937157  0.0
C  C85  1  0.22126665  0.40938789  0.90454246  1  -0.047261  0.000307  -0.082969  -0.17139  -0.000212  3.937289  0.0
C  C86  1  0.51148110  0.79435653  0.04906549  1  0.485857  5.7e-05  0.038825  0.095385  -8.2e-05  3.991383  0.0
C  C87  1  0.48851905  0.20564128  0.95094050  1  0.486017  5.7e-05  0.038801  0.095323  -8.2e-05  3.991364  0.0
C  C88  1  0.58396144  0.87557628  0.06855398  1  0.001362  0.000166  -0.083933  -0.17113  3.8e-05  3.941786  0.0
C  C89  1  0.41604097  0.12442543  0.93144734  1  0.001399  0.000167  -0.083985  -0.171118  3.9e-05  3.941814  0.0
C  C90  1  0.70955034  0.93699361  0.97606937  1  -0.074098  3e-05  0.008124  0.096258  1.9e-05  3.978976  0.0
C  C91  1  0.29045185  0.06300335  0.02393147  1  -0.074097  3e-05  0.008156  0.096173  1.9e-05  3.978963  0.0
C  C92  1  0.75558087  0.91044009  0.86782259  1  0.000822  0.000138  -0.084426  -0.170626  0.000109  3.939843  0.0
C  C93  1  0.24441915  0.08955488  0.13218294  1  0.001004  0.000138  -0.084436  -0.170585  0.000109  3.939766  0.0
C  C94  1  0.67598228  0.82712661  0.85729700  1  0.501658  0.000105  0.034526  0.088149  8.2e-05  4.015016  0.0
C  C95  1  0.32401657  0.17286545  0.14271169  1  0.501489  0.000105  0.034544  0.088159  8.2e-05  4.015183  0.0
C  C96  1  0.78689035  0.02688334  0.99184438  1  -0.028965  8.7e-05  0.007859  0.098819  8.3e-05  3.982111  0.0
C  C97  1  0.21311197  0.97311653  0.00815358  1  -0.029039  8.7e-05  0.007818  0.09884  8.3e-05  3.982164  0.0
C  C98  1  0.77918005  0.01409683  0.11473785  1  -0.064111  6.6e-05  -0.087468  -0.175198  6.4e-05  3.9364  0.0
C  C99  1  0.22081938  0.98590779  0.88526143  1  -0.064266  6.6e-05  -0.087502  -0.175318  6.4e-05  3.936495  0.0
C  C100  1  0.85139715  0.10303324  0.12454556  1  0.521514  5.9e-05  0.032592  0.085189  4.5e-05  4.020975  0.0
C  C101  1  0.14860030  0.89697331  0.87545263  1  0.521778  5.9e-05  0.032674  0.085355  4.5e-05  4.020979  0.0
C  C102  1  0.93826836  0.21376258  0.90492473  1  0.490449  0.000113  0.039419  0.096293  -4e-06  3.973658  0.0
C  C103  1  0.06172972  0.78623547  0.09507097  1  0.490516  0.000113  0.039426  0.09628  -4e-06  3.973599  0.0
C  C104  1  0.86919937  0.13041378  0.88492262  1  -0.024197  0.000121  -0.085217  -0.173522  1.8e-05  3.920843  0.0
C  C105  1  0.13080186  0.86958525  0.11507102  1  -0.02433  0.000121  -0.08522  -0.173449  1.8e-05  3.92087  0.0
N  N106  1  0.90154571  0.52678346  0.67928278  1  -1.267949  0.043396  -0.320672  -0.248646  0.029111  3.506722  0.012
N  N107  1  0.09845359  0.47321823  0.32072020  1  -1.267981  0.043397  -0.320527  -0.248593  0.029111  3.506676  0.012
N  N108  1  0.61481459  0.49414153  0.30859022  1  -1.24487  0.046555  -0.312581  -0.241923  0.031555  3.470311  0.015
N  N109  1  0.38518692  0.50586306  0.69141017  1  -1.24496  0.046559  -0.31253  -0.241831  0.031553  3.470217  0.015
N  N110  1  0.55480598  0.76945930  0.94519323  1  -1.212256  0.000192  -0.325245  -0.283359  0.000138  3.33462  0.0
N  N111  1  0.44519296  0.23053463  0.05481631  1  -1.212259  0.000192  -0.325247  -0.283343  0.000138  3.334786  0.0
N  N112  1  0.93071093  0.20208929  0.02232829  1  -1.206467  0.00015  -0.32691  -0.28216  0.000109  3.330779  0.0
N  N113  1  0.06928741  0.79791457  0.97766249  1  -1.206594  0.00015  -0.326939  -0.282214  0.000109  3.330763  0.0
O  O114  1  0.14668818  0.38950538  0.59137490  1  -1.205227  0.061425  -0.315046  -0.570902  0.043485  2.346962  0.026
O  O115  1  0.85331654  0.61050119  0.40862052  1  -1.205199  0.061424  -0.315006  -0.570904  0.043485  2.346945  0.026
O  O116  1  0.37158501  0.33787477  0.54864580  1  -1.195806  0.073804  -0.311236  -0.566213  0.053848  2.340433  0.039
O  O117  1  0.62841717  0.66212231  0.45135003  1  -1.195816  0.073809  -0.311275  -0.566226  0.053853  2.340512  0.039
O  O118  1  0.12996970  0.66881871  0.42454763  1  -1.196735  0.066857  -0.314789  -0.57322  0.04938  2.351943  0.033
O  O119  1  0.87003144  0.33117843  0.57544515  1  -1.196589  0.066852  -0.314802  -0.573287  0.049385  2.351906  0.033
O  O120  1  0.35816017  0.63042947  0.40077684  1  -1.204408  0.061517  -0.309502  -0.563273  0.044764  2.326037  0.029
O  O121  1  0.64184192  0.36956568  0.59921980  1  -1.204606  0.061519  -0.30946  -0.563201  0.044762  2.326138  0.029
