# generated using pymatgen
data_Co2H24C37(NO2)4
_symmetry_space_group_name_H-M   'P 1'
_cell_length_a   11.33933681
_cell_length_b   17.54318451
_cell_length_c   26.33890843
_cell_angle_alpha   89.99961996
_cell_angle_beta   89.99904243
_cell_angle_gamma   90.00055305
_symmetry_Int_Tables_number   1
_chemical_formula_structural   Co2H24C37(NO2)4
_chemical_formula_sum   'Co8 H96 C148 N16 O32'
_cell_volume   5239.54842878
_cell_formula_units_Z   4
loop_
 _symmetry_equiv_pos_site_id
 _symmetry_equiv_pos_as_xyz
  1  'x, y, z'
loop_
 _atom_site_type_symbol
 _atom_site_label
 _atom_site_symmetry_multiplicity
 _atom_site_fract_x
 _atom_site_fract_y
 _atom_site_fract_z
 _atom_site_occupancy
 _atom_site_pbe_bader_charge
 _atom_site_pbe_bader_spin_density
 _atom_site_pbe_cm5_charge
 _atom_site_pbe_ddec_charge
 _atom_site_pbe_ddec_spin_density
 _atom_site_pbe_ddec_sum_bond_order
 _atom_site_pbe_magmom
Co  Co0  1  0.06474578  0.26377607  0.35679833  1  1.300514  2.607512  0.682622  0.878228  2.847494  2.569877  2.586
Co  Co1  1  0.93525873  0.76377724  0.64320268  1  1.300546  2.607509  0.682587  0.878228  2.847468  2.569823  2.586
Co  Co2  1  0.06473687  0.76378043  0.14320295  1  1.300661  2.607516  0.682559  0.878252  2.847458  2.569323  2.586
Co  Co3  1  0.93526323  0.26377516  0.85679540  1  1.300717  2.607518  0.682575  0.878207  2.847511  2.569859  2.586
Co  Co4  1  0.97709990  0.48438066  0.39309673  1  1.299517  2.602634  0.676878  0.869792  2.846949  2.553799  2.582
Co  Co5  1  0.02291583  0.98438161  0.60690369  1  1.299422  2.602625  0.676835  0.869615  2.84696  2.554278  2.581
Co  Co6  1  0.97707916  0.98438366  0.10690381  1  1.29929  2.602638  0.676883  0.869666  2.846986  2.554338  2.582
Co  Co7  1  0.02290834  0.48438259  0.89309471  1  1.299608  2.602625  0.67685  0.86971  2.846942  2.553867  2.582
H  H8  1  0.95229458  0.19522199  0.99383154  1  0.101411  0.000592  0.110177  0.12731  0.000267  0.998312  0.0
H  H9  1  0.04769392  0.69523478  0.00617319  1  0.101512  0.000592  0.110197  0.127323  0.000267  0.99832  0.0
H  H10  1  0.95231124  0.69522543  0.50617393  1  0.101256  0.000592  0.110233  0.127362  0.000267  0.998306  0.0
H  H11  1  0.04770018  0.19522222  0.49383156  1  0.101587  0.000592  0.110186  0.127318  0.000267  0.998354  0.0
H  H12  1  0.01380425  0.55681843  0.25573255  1  0.124687  0.000623  0.110679  0.12792  0.000302  0.997341  0.0
H  H13  1  0.98615131  0.05683341  0.74425456  1  0.125293  0.000624  0.110686  0.128089  0.000302  0.997053  0.0
H  H14  1  0.01383338  0.05684027  0.24426241  1  0.125294  0.000624  0.110705  0.12805  0.000302  0.997172  0.0
H  H15  1  0.98617157  0.55682923  0.75573685  1  0.125122  0.000624  0.110671  0.127927  0.000302  0.997213  0.0
H  H16  1  0.12809547  0.40566206  0.02992775  1  0.056384  0.000278  0.103569  0.110218  0.000101  1.015984  0.0
H  H17  1  0.87189704  0.90567325  0.97006846  1  0.056101  0.000278  0.103596  0.110228  0.000101  1.015877  0.0
H  H18  1  0.12809070  0.90567285  0.47007245  1  0.05612  0.000278  0.103539  0.110163  0.000101  1.015917  0.0
H  H19  1  0.87190886  0.40566304  0.52992983  1  0.056445  0.000278  0.103567  0.110244  0.000101  1.015954  0.0
H  H20  1  0.12454506  0.22090771  0.13821967  1  0.087554  0.00036  0.104282  0.111555  0.000176  1.002309  0.0
H  H21  1  0.87546057  0.72091316  0.86178229  1  0.087647  0.00036  0.104255  0.111506  0.000176  1.002486  0.0
H  H22  1  0.12454271  0.72091673  0.36178174  1  0.08767  0.00036  0.104268  0.111621  0.000176  1.002572  0.0
H  H23  1  0.87546204  0.22091042  0.63822287  1  0.080536  0.000357  0.10427  0.111572  0.000176  1.002287  0.0
H  H24  1  0.28061536  0.39715462  0.09798243  1  0.033839  0.000108  0.096055  0.098585  4.2e-05  0.978862  0.0
H  H25  1  0.71938584  0.89715984  0.90201875  1  0.033744  0.000108  0.096054  0.098564  4.2e-05  0.978817  0.0
H  H26  1  0.28060793  0.89716609  0.40201594  1  0.034282  0.000108  0.096044  0.098566  4.2e-05  0.978738  0.0
H  H27  1  0.71939063  0.39715293  0.59798638  1  0.034033  0.000108  0.095938  0.098325  4.2e-05  0.978813  0.0
H  H28  1  0.27494076  0.32353148  0.14379658  1  0.037042  9.1e-05  0.096717  0.099702  3.4e-05  0.977652  0.0
H  H29  1  0.72505406  0.82353890  0.85620416  1  0.037162  9.1e-05  0.096734  0.099664  3.4e-05  0.977714  0.0
H  H30  1  0.27493685  0.82354569  0.35620026  1  0.037266  9.1e-05  0.0968  0.099765  3.4e-05  0.977607  0.0
H  H31  1  0.72506678  0.32353097  0.64380201  1  0.03699  9.1e-05  0.096721  0.099605  3.4e-05  0.977622  0.0
H  H32  1  0.56277417  0.45976942  0.47020702  1  0.067254  0.000994  0.106446  0.110035  0.000513  1.007405  0.0
H  H33  1  0.43722884  0.95978000  0.52979350  1  0.031396  0.001007  0.106425  0.109968  0.000513  1.007518  0.0
H  H34  1  0.56277053  0.95978004  0.02980270  1  0.031671  0.001007  0.106412  0.10998  0.000513  1.007603  0.0
H  H35  1  0.43722455  0.45977166  0.97020048  1  0.031632  0.001007  0.106377  0.109967  0.000513  1.007474  0.0
H  H36  1  0.13601682  0.33178289  0.21711901  1  0.09008  0.000242  0.105875  0.115128  5.6e-05  1.004382  0.0
H  H37  1  0.86399576  0.83178792  0.78288398  1  0.089959  0.000241  0.105909  0.115184  5.6e-05  1.004444  0.0
H  H38  1  0.13599458  0.83179326  0.28288411  1  0.089764  0.000241  0.105827  0.114979  5.6e-05  1.004606  0.0
H  H39  1  0.86400212  0.33178438  0.71711926  1  0.089902  0.000241  0.10591  0.115187  5.6e-05  1.00441  0.0
H  H40  1  0.25598273  0.22141911  0.43064172  1  0.120513  0.001441  0.125023  0.104533  0.000277  0.97897  0.001
H  H41  1  0.74401938  0.72142780  0.56935986  1  0.120585  0.001441  0.12506  0.104667  0.000277  0.97879  0.001
H  H42  1  0.25598990  0.72141680  0.06936216  1  0.120555  0.001441  0.125061  0.10457  0.000277  0.978759  0.001
H  H43  1  0.74401309  0.22142385  0.93063637  1  0.120762  0.001441  0.12509  0.104638  0.000277  0.9788  0.001
H  H44  1  0.87216512  0.19637261  0.42280285  1  0.121297  0.001381  0.124849  0.099812  0.000293  0.989141  0.001
H  H45  1  0.12784279  0.69639788  0.57719580  1  0.138683  0.001387  0.124797  0.099643  0.000293  0.989249  0.001
H  H46  1  0.87216317  0.69640384  0.07719934  1  0.138532  0.001387  0.124816  0.099623  0.000293  0.989295  0.001
H  H47  1  0.12784033  0.19638432  0.92279741  1  0.121201  0.001382  0.124815  0.099695  0.000293  0.9891  0.001
H  H48  1  0.16383849  0.51548392  0.10847619  1  0.090874  0.000524  0.103534  0.111924  0.000276  1.003592  0.0
H  H49  1  0.83613322  0.01549707  0.89151566  1  0.090321  0.000525  0.103625  0.112056  0.000276  1.003431  0.0
H  H50  1  0.16386722  0.01550487  0.39151484  1  0.090794  0.000525  0.103548  0.112005  0.000276  1.00348  0.0
H  H51  1  0.83613182  0.51549208  0.60848423  1  0.090778  0.000524  0.103568  0.112008  0.000276  1.003511  0.0
H  H52  1  0.65156759  0.33291791  0.29123411  1  0.060758  0.000852  0.106948  0.10843  0.000419  1.01324  0.0
H  H53  1  0.34844147  0.83294325  0.70876659  1  0.060813  0.000852  0.106951  0.108406  0.000419  1.013076  0.0
H  H54  1  0.65154557  0.83294897  0.20876831  1  0.060642  0.000852  0.106962  0.108422  0.000419  1.013065  0.0
H  H55  1  0.34844321  0.33294012  0.79122859  1  0.060598  0.000852  0.106979  0.108492  0.000419  1.013092  0.0
H  H56  1  0.65424222  0.19404393  0.42728181  1  0.070033  0.001022  0.109069  0.113526  0.000524  1.001708  0.0
H  H57  1  0.34576478  0.69407632  0.57271647  1  0.070435  0.001022  0.109143  0.113567  0.000524  1.001726  0.0
H  H58  1  0.65424220  0.69407977  0.07271666  1  0.070217  0.001021  0.109147  0.113558  0.000524  1.00174  0.0
H  H59  1  0.34576126  0.19406100  0.92727479  1  0.070509  0.001022  0.109049  0.113413  0.000524  1.001786  0.0
H  H60  1  0.39585514  0.40938929  0.45577889  1  0.063223  0.000907  0.106125  0.109038  0.000442  1.008943  0.0
H  H61  1  0.60415418  0.90940932  0.54422337  1  0.063865  0.000907  0.106143  0.108944  0.000442  1.009173  0.0
H  H62  1  0.39584565  0.90941743  0.04423226  1  0.063822  0.000907  0.106156  0.109009  0.000442  1.008844  0.0
H  H63  1  0.60414427  0.40939999  0.95577494  1  0.063277  0.000907  0.106082  0.108837  0.000442  1.009282  0.0
H  H64  1  0.47486491  0.22062687  0.43628049  1  0.077946  0.000973  0.107404  0.110906  0.000498  1.006031  0.0
H  H65  1  0.52513719  0.72065248  0.56371843  1  0.078126  0.000972  0.107386  0.110781  0.000498  1.006273  0.0
H  H66  1  0.47487494  0.72064741  0.06371953  1  0.078009  0.000973  0.107396  0.110788  0.000498  1.006167  0.0
H  H67  1  0.52513068  0.22064164  0.93627559  1  0.078178  0.000973  0.107393  0.110752  0.000498  1.006248  0.0
H  H68  1  0.48013075  0.30979675  0.28289617  1  0.0248  0.000985  0.106562  0.109905  0.000491  1.010087  0.0
H  H69  1  0.51987356  0.80979857  0.71710578  1  0.024756  0.000985  0.106598  0.109907  0.000491  1.01011  0.0
H  H70  1  0.48012163  0.80980493  0.21710722  1  0.024734  0.000985  0.106602  0.109893  0.000491  1.010131  0.0
H  H71  1  0.51988885  0.30980293  0.78288865  1  0.02478  0.000985  0.106604  0.110032  0.000491  1.010041  0.0
H  H72  1  0.26214528  0.30976129  0.28560284  1  0.108397  0.00149  0.117858  0.090701  0.0004  1.022864  0.001
H  H73  1  0.73786167  0.80975880  0.71440214  1  0.108306  0.00149  0.117849  0.090689  0.0004  1.022852  0.001
H  H74  1  0.26213098  0.80975182  0.21440365  1  0.107828  0.00149  0.117866  0.090702  0.0004  1.022786  0.001
H  H75  1  0.73787686  0.30976370  0.78559716  1  0.108413  0.00149  0.117794  0.090624  0.0004  1.022812  0.001
H  H76  1  0.86764013  0.32477183  0.29118133  1  0.103314  0.001549  0.123119  0.096373  0.000262  0.999978  0.001
H  H77  1  0.13236704  0.82478784  0.70882206  1  0.103  0.001549  0.123207  0.096415  0.000262  0.999848  0.001
H  H78  1  0.86762252  0.82479776  0.20882336  1  0.103274  0.001549  0.123245  0.096382  0.000262  0.999839  0.001
H  H79  1  0.13237143  0.32478870  0.79117700  1  0.102892  0.001548  0.123225  0.096448  0.000262  0.999901  0.001
H  H80  1  0.38684415  0.55623042  0.32372795  1  0.063506  0.000956  0.108476  0.114271  0.000493  1.000353  0.0
H  H81  1  0.61318548  0.05624717  0.67627549  1  0.063252  0.000956  0.108477  0.114133  0.000493  1.000441  0.0
H  H82  1  0.38680359  0.05623869  0.17629204  1  0.063546  0.000956  0.108472  0.114127  0.000493  1.000443  0.0
H  H83  1  0.61317401  0.55622009  0.82371292  1  0.063936  0.000956  0.108514  0.114274  0.000493  1.000255  0.0
H  H84  1  0.56596128  0.51292477  0.30974086  1  0.062597  0.001032  0.107228  0.110668  0.00053  1.002595  0.0
H  H85  1  0.43404478  0.01294140  0.69026239  1  0.062548  0.001032  0.107169  0.11057  0.00053  1.002606  0.0
H  H86  1  0.56595633  0.01293975  0.19027194  1  0.06236  0.001032  0.107258  0.110655  0.00053  1.002389  0.0
H  H87  1  0.43405061  0.51292472  0.80973283  1  0.067056  0.001029  0.107235  0.110577  0.00053  1.002528  0.0
H  H88  1  0.78169535  0.46400766  0.46771295  1  0.13244  0.001571  0.119637  0.092118  0.000416  1.014366  0.001
H  H89  1  0.21831126  0.96400944  0.53229211  1  0.132685  0.001572  0.119637  0.092078  0.000416  1.014381  0.001
H  H90  1  0.78168543  0.96401540  0.03229669  1  0.132601  0.001572  0.119713  0.092043  0.000416  1.01464  0.001
H  H91  1  0.21830530  0.46401480  0.96770685  1  0.13242  0.001571  0.11968  0.09207  0.000416  1.014392  0.001
H  H92  1  0.78548197  0.51652284  0.31513474  1  0.100236  0.0014  0.124829  0.104676  0.000257  0.980783  0.001
H  H93  1  0.21452414  0.01652960  0.68486622  1  0.100018  0.0014  0.124812  0.104696  0.000257  0.980873  0.001
H  H94  1  0.78548076  0.01652647  0.18487153  1  0.10011  0.0014  0.124732  0.10464  0.000257  0.980872  0.001
H  H95  1  0.21452800  0.51651742  0.81512754  1  0.100336  0.0014  0.124777  0.104652  0.000257  0.980859  0.001
H  H96  1  0.17868550  0.41389976  0.45633284  1  0.123151  0.001595  0.121666  0.095182  0.000316  1.000697  0.001
H  H97  1  0.82132212  0.91390862  0.54366978  1  0.123404  0.001596  0.121679  0.095143  0.000317  1.00068  0.001
H  H98  1  0.17868220  0.91392734  0.04367037  1  0.12301  0.001597  0.121665  0.095186  0.000317  1.000793  0.001
H  H99  1  0.82131220  0.41390897  0.95632998  1  0.123412  0.001596  0.121708  0.095217  0.000316  1.000724  0.001
H  H100  1  0.16845382  0.55052493  0.32850534  1  0.123447  0.001256  0.122959  0.098387  0.000227  1.001155  0.001
H  H101  1  0.83157044  0.05053227  0.67149510  1  0.123459  0.001256  0.123008  0.098532  0.000227  1.001396  0.001
H  H102  1  0.16841609  0.05053554  0.17150335  1  0.12298  0.001256  0.123007  0.09853  0.000227  1.001264  0.001
H  H103  1  0.83156143  0.55051939  0.82849518  1  0.123523  0.001256  0.123067  0.098555  0.000227  1.001236  0.001
C  C104  1  0.00121038  0.23043868  0.02064575  1  -0.003271  1.8e-05  -0.080712  -0.119021  -0.000589  3.928032  0.0
C  C105  1  0.99877863  0.73045114  0.97935655  1  -0.004022  1.6e-05  -0.080706  -0.119017  -0.000592  3.928147  0.0
C  C106  1  0.00122024  0.73044538  0.47935728  1  -0.003486  1.6e-05  -0.080735  -0.119052  -0.000591  3.928142  0.0
C  C107  1  0.99878729  0.23043988  0.52064692  1  -0.003468  1.9e-05  -0.080747  -0.119054  -0.000589  3.928295  0.0
C  C108  1  0.03417873  0.30477655  0.00749192  1  -0.034287  0.009977  -0.025772  -0.044942  0.005071  4.026838  0.008
C  C109  1  0.96581316  0.80478753  0.99250967  1  -0.032942  0.009973  -0.025781  -0.044877  0.005071  4.026411  0.008
C  C110  1  0.03418279  0.80478255  0.49250978  1  -0.033102  0.009974  -0.025839  -0.045124  0.005071  4.026769  0.008
C  C111  1  0.96581968  0.30477754  0.50749333  1  -0.03418  0.009978  -0.02582  -0.044997  0.005071  4.026786  0.008
C  C112  1  0.06997891  0.44081864  0.24113671  1  -0.053147  0.010051  -0.02572  -0.04523  0.005035  4.028286  0.008
C  C113  1  0.93000177  0.94082888  0.75885820  1  -0.053271  0.010049  -0.025762  -0.045115  0.005034  4.028345  0.008
C  C114  1  0.06998406  0.94083210  0.25886034  1  -0.053189  0.010049  -0.025861  -0.045304  0.005034  4.028389  0.008
C  C115  1  0.93001779  0.44082568  0.74113913  1  -0.05335  0.01005  -0.02567  -0.045024  0.005034  4.02832  0.008
C  C116  1  0.13858815  0.31838917  0.08782058  1  -0.036415  0.001426  -0.012345  0.117026  0.000598  3.991728  0.001
C  C117  1  0.86141100  0.81839745  0.91217905  1  -0.03616  0.001426  -0.012395  0.116851  0.000598  3.992015  0.001
C  C118  1  0.13858385  0.81840110  0.41217878  1  -0.036048  0.001426  -0.012312  0.117047  0.000598  3.991885  0.001
C  C119  1  0.86141618  0.31839293  0.58782312  1  -0.035897  0.001426  -0.012363  0.116905  0.000598  3.991759  0.001
C  C120  1  0.05237817  0.51744328  0.22834184  1  -0.015315  -0.000903  -0.079561  -0.116113  -0.001424  3.923674  0.0
C  C121  1  0.94757681  0.01745832  0.77164582  1  -0.016527  -0.000897  -0.079542  -0.116418  -0.001419  3.92339  0.0
C  C122  1  0.05240800  0.01746656  0.27165074  1  -0.016432  -0.000897  -0.07952  -0.116304  -0.001419  3.923177  0.0
C  C123  1  0.94759371  0.51745442  0.72834756  1  -0.01582  -0.000899  -0.0796  -0.116336  -0.001421  3.923584  0.0
C  C124  1  0.54303667  0.48536203  0.38974926  1  -0.016404  -0.016914  0.004718  0.095882  -0.018105  4.000831  -0.01
C  C125  1  0.45697378  0.98537707  0.61025305  1  -0.016192  -0.016915  0.004828  0.095941  -0.018107  4.000493  -0.01
C  C126  1  0.54302550  0.98537527  0.11026353  1  -0.016693  -0.016919  0.00489  0.095802  -0.018111  4.000615  -0.01
C  C127  1  0.45696907  0.48535813  0.88974068  1  -0.016949  -0.016913  0.004763  0.095841  -0.018104  4.000794  -0.01
C  C128  1  0.41307138  0.48316191  0.38968557  1  -0.057448  -0.016229  0.004163  0.09405  -0.017167  4.00372  -0.009
C  C129  1  0.58694433  0.98318118  0.61031713  1  -0.059712  -0.016225  0.004365  0.094259  -0.017161  4.003589  -0.009
C  C130  1  0.41305316  0.98317971  0.11033007  1  -0.059094  -0.016227  0.004321  0.094239  -0.017164  4.002891  -0.009
C  C131  1  0.58693786  0.48315768  0.88967301  1  -0.057199  -0.016224  0.004278  0.094066  -0.017162  4.003474  -0.009
C  C132  1  0.03698018  0.41210229  0.29256082  1  1.542691  -0.00134  0.215398  0.572024  -0.002918  4.204108  0.001
C  C133  1  0.96301948  0.91211268  0.70743764  1  1.542417  -0.001326  0.2153  0.571757  -0.002908  4.204754  0.001
C  C134  1  0.03697144  0.91212424  0.20743697  1  1.542079  -0.00132  0.21522  0.571558  -0.002905  4.205158  0.001
C  C135  1  0.96303086  0.41210896  0.79256034  1  1.542544  -0.001327  0.215179  0.571662  -0.00291  4.204854  0.001
C  C136  1  0.07295545  0.62562754  0.16658878  1  1.548924  -0.005493  0.187653  0.541782  -0.007434  4.222234  -0.007
C  C137  1  0.92700908  0.12563785  0.83339879  1  1.54924  -0.005495  0.187671  0.541733  -0.007435  4.222552  -0.007
C  C138  1  0.07298995  0.12564223  0.33340204  1  1.549036  -0.005494  0.187543  0.541563  -0.007435  4.222344  -0.007
C  C139  1  0.92701338  0.62563513  0.66659540  1  1.548966  -0.005494  0.187474  0.541555  -0.007435  4.222433  -0.007
C  C140  1  0.10249633  0.34815469  0.04112585  1  -0.044647  -0.001496  -0.0854  -0.148585  -0.002039  3.934181  -0.001
C  C141  1  0.89749532  0.84816559  0.95887251  1  -0.044724  -0.001498  -0.085327  -0.148459  -0.002041  3.933571  -0.001
C  C142  1  0.10249640  0.84816559  0.45887441  1  -0.044454  -0.001497  -0.085312  -0.148354  -0.00204  3.933809  -0.001
C  C143  1  0.89750672  0.34815526  0.54112851  1  -0.044724  -0.001495  -0.085339  -0.148513  -0.002038  3.934205  -0.001
C  C144  1  0.10021208  0.24543586  0.10159784  1  -0.000494  -0.001141  -0.081395  -0.147319  -0.001527  3.918454  -0.001
C  C145  1  0.89978334  0.74544566  0.89840401  1  -0.000615  -0.001145  -0.081313  -0.147037  -0.00153  3.918623  -0.001
C  C146  1  0.10021272  0.74544736  0.39840327  1  -0.000778  -0.001144  -0.081374  -0.147423  -0.001529  3.918917  -0.001
C  C147  1  0.89979240  0.24543815  0.60160162  1  0.00583  -0.001139  -0.08132  -0.147165  -0.001527  3.918383  -0.001
C  C148  1  0.22031483  0.36362106  0.12190854  1  -0.016688  0.000237  -0.151872  -0.236621  0.000134  3.990377  0.0
C  C149  1  0.77968411  0.86362975  0.87809089  1  -0.016494  0.000237  -0.151925  -0.236556  0.000134  3.990334  0.0
C  C150  1  0.22030831  0.86363505  0.37808928  1  -0.017684  0.000237  -0.151967  -0.236695  0.000134  3.990187  0.0
C  C151  1  0.77969062  0.36362260  0.62191281  1  -0.01693  0.000237  -0.151762  -0.236136  0.000134  3.989962  0.0
C  C152  1  0.00083946  0.33642959  0.95683466  1  1.547195  0.000933  0.215253  0.572976  -0.0006  4.200416  0.002
C  C153  1  0.99915730  0.83644569  0.04316376  1  1.546397  0.000927  0.215351  0.573178  -0.000607  4.200597  0.002
C  C154  1  0.00084147  0.83643551  0.54316569  1  1.546915  0.000931  0.215401  0.573307  -0.000605  4.20057  0.002
C  C155  1  0.99916411  0.33642722  0.45683576  1  1.547281  0.000936  0.215344  0.573097  -0.000599  4.200382  0.002
C  C156  1  0.63020384  0.26408279  0.35961113  1  -0.094175  -0.016589  0.004702  0.091412  -0.017388  3.994461  -0.01
C  C157  1  0.36980243  0.76410952  0.64038874  1  -0.091194  -0.016592  0.004643  0.091425  -0.017391  3.994635  -0.01
C  C158  1  0.63019504  0.76411397  0.14038986  1  -0.091063  -0.01659  0.004743  0.091444  -0.01739  3.994736  -0.01
C  C159  1  0.36980418  0.26410057  0.85960394  1  -0.094797  -0.016593  0.004675  0.091576  -0.017392  3.994812  -0.01
C  C160  1  0.60741689  0.47163303  0.43443922  1  -0.087797  0.001314  -0.08827  -0.182425  -0.000108  3.966032  0.002
C  C161  1  0.39259424  0.97164469  0.56556315  1  -0.051736  0.001304  -0.088342  -0.182442  -0.000106  3.965988  0.002
C  C162  1  0.60740305  0.97164443  0.06557165  1  -0.051648  0.001304  -0.08834  -0.18236  -0.000107  3.965707  0.002
C  C163  1  0.39258868  0.47163557  0.93443148  1  -0.051647  0.001303  -0.08822  -0.182344  -0.000107  3.965717  0.002
C  C164  1  0.12289677  0.39119743  0.20618150  1  -0.050418  -0.002249  -0.086102  -0.152369  -0.00278  3.932357  -0.001
C  C165  1  0.87709993  0.89120642  0.79381705  1  -0.049953  -0.002246  -0.086158  -0.152552  -0.002777  3.932455  -0.001
C  C166  1  0.12288558  0.89121397  0.29381766  1  -0.049845  -0.002244  -0.086022  -0.152321  -0.002775  3.932609  -0.001
C  C167  1  0.87711112  0.39120129  0.70618354  1  -0.049879  -0.002247  -0.086189  -0.152576  -0.002778  3.932385  -0.001
C  C168  1  0.03273843  0.20122435  0.06809338  1  -0.044281  0.003866  -0.017396  -0.012251  0.002078  3.997182  0.003
C  C169  1  0.96725456  0.70123195  0.93191133  1  -0.044024  0.003866  -0.017485  -0.012576  0.002078  3.997234  0.003
C  C170  1  0.03274483  0.70123152  0.43190993  1  -0.043953  0.003866  -0.017395  -0.01235  0.002078  3.997212  0.003
C  C171  1  0.96726403  0.20122820  0.56809477  1  -0.044261  0.003866  -0.017433  -0.012425  0.002078  3.997691  0.003
C  C172  1  0.49999958  0.26499043  0.35969057  1  0.058313  -0.015205  0.006296  0.096922  -0.016479  3.993789  -0.009
C  C173  1  0.50000494  0.76500885  0.64030930  1  0.057504  -0.015204  0.006225  0.09693  -0.016478  3.993814  -0.009
C  C174  1  0.49999784  0.76501077  0.14030984  1  0.05749  -0.015208  0.006184  0.09685  -0.016482  3.993901  -0.009
C  C175  1  0.50000668  0.26500219  0.85968471  1  0.05786  -0.015207  0.006332  0.097003  -0.016481  3.993728  -0.009
C  C176  1  0.31029178  0.24073007  0.39901033  1  0.49087  -0.009245  0.051686  0.101486  -0.010043  3.942904  -0.005
C  C177  1  0.68970886  0.74073982  0.60099154  1  0.490637  -0.009242  0.051629  0.10143  -0.01004  3.943018  -0.005
C  C178  1  0.31030214  0.74073314  0.10099422  1  0.490739  -0.009239  0.051638  0.101489  -0.010037  3.943037  -0.005
C  C179  1  0.68970643  0.24073561  0.89900462  1  0.490639  -0.009246  0.051642  0.101459  -0.010044  3.942778  -0.005
C  C180  1  0.81918395  0.22605305  0.39444948  1  0.519642  -0.010595  0.049738  0.099194  -0.011203  3.934487  -0.006
C  C181  1  0.18082528  0.72608123  0.60554903  1  0.50273  -0.010602  0.049903  0.099616  -0.011202  3.934715  -0.006
C  C182  1  0.81917562  0.72608800  0.10555182  1  0.50272  -0.010596  0.049963  0.099638  -0.011198  3.934899  -0.006
C  C183  1  0.18082215  0.22606909  0.89444328  1  0.520331  -0.010596  0.049931  0.099591  -0.011202  3.934803  -0.006
C  C184  1  0.00124189  0.12144448  0.08231331  1  1.534643  -0.00486  0.187551  0.541091  -0.006511  4.225135  -0.006
C  C185  1  0.99874726  0.62145242  0.91769326  1  1.532355  -0.004857  0.187508  0.541388  -0.006511  4.224544  -0.006
C  C186  1  0.00125237  0.62145066  0.41769095  1  1.534036  -0.004858  0.187482  0.54141  -0.00651  4.224533  -0.006
C  C187  1  0.99875795  0.12144624  0.58231372  1  1.534627  -0.004858  0.18744  0.541007  -0.006509  4.225346  -0.006
C  C188  1  0.13804245  0.49322658  0.14554924  1  -0.014527  -0.001702  -0.081718  -0.146355  -0.002064  3.918648  -0.001
C  C189  1  0.86192491  0.99324000  0.85444278  1  -0.011725  -0.001698  -0.081959  -0.146781  -0.002059  3.918679  -0.001
C  C190  1  0.13806860  0.99324707  0.35444366  1  -0.011951  -0.001697  -0.081867  -0.146762  -0.002058  3.918631  -0.001
C  C191  1  0.86193051  0.49323433  0.64555634  1  -0.012108  -0.001699  -0.081798  -0.146615  -0.00206  3.918796  -0.001
C  C192  1  0.69494585  0.30089007  0.32126868  1  0.051837  0.000233  -0.084074  -0.172101  -0.000835  3.95604  0.001
C  C193  1  0.30506009  0.80091259  0.67873217  1  0.051284  0.000233  -0.083945  -0.172026  -0.000835  3.955859  0.001
C  C194  1  0.69493469  0.80091915  0.17873244  1  0.051154  0.000231  -0.083936  -0.17201  -0.000836  3.955801  0.001
C  C195  1  0.30506419  0.30090745  0.82126272  1  0.051428  0.000233  -0.084014  -0.172179  -0.000835  3.955877  0.001
C  C196  1  0.08637246  0.54357685  0.18037195  1  -0.065252  0.004323  -0.018878  -0.016898  0.002312  3.997169  0.003
C  C197  1  0.91358026  0.04359006  0.81961485  1  -0.06555  0.004321  -0.018768  -0.01653  0.002311  3.996866  0.003
C  C198  1  0.08641191  0.04359224  0.31961914  1  -0.065903  0.00432  -0.018803  -0.016474  0.002311  3.996958  0.003
C  C199  1  0.91358932  0.54358606  0.68037980  1  -0.066009  0.004322  -0.018767  -0.0166  0.002311  3.996973  0.003
C  C200  1  0.15851549  0.41698671  0.15838852  1  -0.003885  0.001582  -0.012288  0.118829  0.000667  3.991791  0.001
C  C201  1  0.84147366  0.91699557  0.84160840  1  -0.005593  0.001581  -0.012285  0.118866  0.000666  3.99189  0.001
C  C202  1  0.15851744  0.91699821  0.34160761  1  -0.005194  0.001581  -0.012275  0.119  0.000667  3.991588  0.001
C  C203  1  0.84148229  0.41698978  0.65839272  1  -0.00551  0.001581  -0.012329  0.118797  0.000667  3.991872  0.001
C  C204  1  0.69667057  0.22553793  0.39668388  1  -0.076578  0.002092  -0.083507  -0.172985  0.000503  3.944651  0.003
C  C205  1  0.30333337  0.72556917  0.60331388  1  -0.079762  0.00209  -0.083561  -0.172984  0.000501  3.944845  0.003
C  C206  1  0.69666937  0.72557347  0.10331527  1  -0.079391  0.002087  -0.083603  -0.172994  0.000499  3.945006  0.003
C  C207  1  0.30333192  0.22555587  0.89667831  1  -0.076124  0.00209  -0.083502  -0.172958  0.000501  3.944885  0.003
C  C208  1  0.35025628  0.44283647  0.42699723  1  -0.033882  0.000287  -0.085925  -0.178573  -0.000806  3.961569  0.001
C  C209  1  0.64975618  0.94285650  0.57300299  1  -0.032601  0.000288  -0.0861  -0.178707  -0.000807  3.961666  0.001
C  C210  1  0.35024215  0.94285977  0.07301221  1  -0.032738  0.000285  -0.086183  -0.178776  -0.000808  3.961087  0.001
C  C211  1  0.64974651  0.44283890  0.92698991  1  -0.033837  0.000286  -0.085943  -0.178454  -0.000806  3.961764  0.001
C  C212  1  0.43277861  0.24021116  0.40146253  1  -0.048393  0.000951  -0.087118  -0.183538  -0.000223  3.959952  0.002
C  C213  1  0.56722466  0.74023156  0.59853669  1  -0.0475  0.000948  -0.087158  -0.183568  -0.000224  3.960412  0.002
C  C214  1  0.43277760  0.74022736  0.09853923  1  -0.04745  0.000946  -0.087115  -0.183434  -0.000226  3.960443  0.002
C  C215  1  0.56722215  0.24022276  0.90145619  1  -0.047708  0.000949  -0.087153  -0.183454  -0.000224  3.960392  0.002
C  C216  1  0.43593070  0.29024127  0.31718671  1  0.072716  0.000668  -0.087858  -0.181118  -0.000555  3.965582  0.002
C  C217  1  0.56407596  0.79024941  0.68281495  1  0.072524  0.000667  -0.087906  -0.181171  -0.000556  3.965627  0.002
C  C218  1  0.43591938  0.79025321  0.18281595  1  0.072425  0.000665  -0.08795  -0.181198  -0.000558  3.96576  0.002
C  C219  1  0.56408551  0.29025058  0.81718039  1  0.072291  0.000667  -0.088109  -0.181654  -0.000557  3.965771  0.002
C  C220  1  0.31361666  0.28969594  0.31784853  1  0.409426  -0.008363  0.047208  0.098272  -0.008832  3.950812  -0.005
C  C221  1  0.68638823  0.78969802  0.68215502  1  0.409211  -0.008362  0.047198  0.098276  -0.008831  3.950877  -0.005
C  C222  1  0.31361242  0.78969421  0.18215653  1  0.40962  -0.008361  0.047217  0.098346  -0.008829  3.95098  -0.005
C  C223  1  0.68639777  0.28969975  0.81784284  1  0.408925  -0.008362  0.047328  0.098587  -0.00883  3.95096  -0.005
C  C224  1  0.81704027  0.29769719  0.32121091  1  0.437913  -0.009322  0.053411  0.111772  -0.010179  3.938721  -0.005
C  C225  1  0.18297179  0.79771610  0.67879108  1  0.43808  -0.00932  0.053044  0.111608  -0.010179  3.938751  -0.005
C  C226  1  0.81701941  0.79772513  0.17879123  1  0.437522  -0.009318  0.05285  0.111399  -0.010177  3.93883  -0.005
C  C227  1  0.18297149  0.29771266  0.82120545  1  0.438084  -0.009322  0.053083  0.111581  -0.010181  3.938685  -0.005
C  C228  1  0.34522537  0.52233151  0.35341012  1  -0.070786  0.001439  -0.086276  -0.179865  0.000124  3.954707  0.002
C  C229  1  0.65479317  0.02234995  0.64659006  1  -0.0696  0.001441  -0.086497  -0.179969  0.000124  3.95448  0.002
C  C230  1  0.34519918  0.02234407  0.14660387  1  -0.070228  0.001441  -0.086473  -0.179974  0.000125  3.954468  0.002
C  C231  1  0.65478585  0.52232314  0.85339707  1  -0.071394  0.001441  -0.086408  -0.179892  0.000125  3.954568  0.002
C  C232  1  0.60919318  0.50221630  0.34601027  1  -0.000632  0.001492  -0.086962  -0.184415  8.5e-05  3.966037  0.002
C  C233  1  0.39081713  0.00222903  0.65399152  1  -0.000754  0.001496  -0.086887  -0.184261  8.8e-05  3.965774  0.002
C  C234  1  0.60918435  0.00222764  0.15400076  1  -0.000334  0.001496  -0.087008  -0.184136  8.8e-05  3.965894  0.002
C  C235  1  0.39081803  0.50221312  0.84600103  1  -0.00482  0.001497  -0.086882  -0.184043  8.7e-05  3.965857  0.002
C  C236  1  0.72963043  0.47466936  0.43373145  1  0.496894  -0.010146  0.048234  0.101111  -0.010874  3.951106  -0.006
C  C237  1  0.27037722  0.97467568  0.56627167  1  0.496752  -0.010149  0.048304  0.101268  -0.010877  3.951026  -0.006
C  C238  1  0.72962184  0.97467790  0.06627776  1  0.497058  -0.010152  0.048222  0.101255  -0.01088  3.951189  -0.006
C  C239  1  0.27037434  0.47467341  0.93372498  1  0.49694  -0.010148  0.048271  0.101297  -0.010876  3.95094  -0.006
C  C240  1  0.73166680  0.50420547  0.34843931  1  0.506984  -0.009953  0.050791  0.10031  -0.010767  3.944105  -0.006
C  C241  1  0.26833824  0.00421347  0.65156285  1  0.507287  -0.00996  0.050897  0.100346  -0.010772  3.943819  -0.006
C  C242  1  0.73166159  0.00421228  0.15156931  1  0.506928  -0.00996  0.050934  0.100118  -0.010773  3.943975  -0.006
C  C243  1  0.26834170  0.50420381  0.84843171  1  0.506866  -0.009956  0.050771  0.100108  -0.010769  3.944012  -0.006
C  C244  1  0.22795019  0.44404168  0.42719396  1  0.493272  -0.009198  0.052452  0.112846  -0.010021  3.939993  -0.005
C  C245  1  0.77206494  0.94405735  0.57280816  1  0.492372  -0.009194  0.052683  0.113249  -0.010016  3.939997  -0.005
C  C246  1  0.22793430  0.94406783  0.07281370  1  0.492651  -0.009192  0.052566  0.112947  -0.010015  3.94019  -0.005
C  C247  1  0.77205349  0.44404602  0.92718765  1  0.492926  -0.009194  0.052452  0.112866  -0.010017  3.94014  -0.005
C  C248  1  0.22286453  0.51983271  0.35581917  1  0.511777  -0.010236  0.046635  0.099197  -0.010871  3.93425  -0.006
C  C249  1  0.77716015  0.01984681  0.64418102  1  0.511139  -0.010238  0.046654  0.099174  -0.010873  3.933939  -0.006
C  C250  1  0.22283491  0.01984700  0.14419115  1  0.511181  -0.010238  0.04662  0.099138  -0.010873  3.934055  -0.006
C  C251  1  0.77714920  0.51982910  0.85580903  1  0.51115  -0.010237  0.046535  0.099014  -0.010872  3.934082  -0.006
N  N252  1  0.87982076  0.26190439  0.35742905  1  -1.185284  0.04427  -0.319986  -0.239935  0.023697  3.572232  0.043
N  N253  1  0.12018725  0.76192440  0.64257197  1  -1.185271  0.044265  -0.319837  -0.240185  0.023695  3.572627  0.043
N  N254  1  0.87980658  0.76193383  0.14257394  1  -1.184857  0.044259  -0.319827  -0.239958  0.023693  3.572555  0.043
N  N255  1  0.12018731  0.26191662  0.85742366  1  -1.185312  0.044267  -0.319935  -0.240153  0.023696  3.572918  0.043
N  N256  1  0.25051413  0.26522166  0.35794121  1  -1.21131  0.046892  -0.320761  -0.229414  0.024973  3.557095  0.044
N  N257  1  0.74948864  0.76522338  0.64206207  1  -1.210987  0.046885  -0.32064  -0.229331  0.024971  3.557095  0.044
N  N258  1  0.25051320  0.76521633  0.14206366  1  -1.210802  0.046873  -0.320622  -0.229375  0.024964  3.556982  0.044
N  N259  1  0.74949486  0.26522300  0.85793507  1  -1.211148  0.046884  -0.320683  -0.229436  0.024971  3.557029  0.044
N  N260  1  0.16362199  0.48134218  0.39215697  1  -1.185627  0.041429  -0.319  -0.242937  0.021916  3.559695  0.041
N  N261  1  0.83639634  0.98135106  0.60784346  1  -1.185048  0.041435  -0.319194  -0.243223  0.02192  3.560002  0.041
N  N262  1  0.16359945  0.98136057  0.10784871  1  -1.184612  0.041436  -0.319008  -0.2429  0.02192  3.559767  0.041
N  N263  1  0.83638448  0.48134236  0.89215020  1  -1.185263  0.041432  -0.319021  -0.242911  0.021917  3.559484  0.041
N  N264  1  0.79210415  0.49010425  0.39146368  1  -1.189947  0.046008  -0.319657  -0.227938  0.02436  3.556619  0.044
N  N265  1  0.20790373  0.99010748  0.60853861  1  -1.190041  0.046022  -0.319799  -0.228081  0.024366  3.556589  0.044
N  N266  1  0.79209569  0.99010895  0.10854387  1  -1.190028  0.046029  -0.319739  -0.227923  0.024367  3.556729  0.044
N  N267  1  0.20790336  0.49010449  0.89145690  1  -1.190018  0.046012  -0.319741  -0.228041  0.024362  3.556591  0.044
O  O268  1  0.04137606  0.40148809  0.94464555  1  -1.166616  0.091739  -0.303487  -0.548603  0.04852  2.462052  0.077
O  O269  1  0.95861285  0.90150666  0.05535067  1  -1.166595  0.091777  -0.303575  -0.54879  0.048542  2.462004  0.077
O  O270  1  0.04138819  0.90149674  0.55535459  1  -1.166929  0.091781  -0.303551  -0.548783  0.048544  2.46204  0.077
O  O271  1  0.95862719  0.40148661  0.44464657  1  -1.166502  0.091749  -0.303495  -0.548684  0.048528  2.461879  0.077
O  O272  1  0.05668877  0.67552362  0.20118850  1  -1.143944  0.08967  -0.323528  -0.540906  0.04597  2.150682  0.078
O  O273  1  0.94327121  0.17553551  0.79880113  1  -1.144688  0.089668  -0.323384  -0.540766  0.04597  2.150952  0.078
O  O274  1  0.05672990  0.17553922  0.29880526  1  -1.144589  0.089665  -0.323399  -0.540743  0.04597  2.151127  0.078
O  O275  1  0.94328299  0.67553074  0.70119348  1  -1.144294  0.089664  -0.323429  -0.540795  0.045968  2.150839  0.078
O  O276  1  0.97209991  0.45452211  0.32034171  1  -1.163239  0.082247  -0.313764  -0.56863  0.042937  2.474682  0.067
O  O277  1  0.02791097  0.95453719  0.67966074  1  -1.163274  0.082249  -0.313779  -0.568492  0.042939  2.474684  0.067
O  O278  1  0.97208871  0.95455518  0.17966090  1  -1.162789  0.082255  -0.313751  -0.568432  0.042949  2.475037  0.067
O  O279  1  0.02791775  0.45453434  0.82033737  1  -1.163107  0.082258  -0.313747  -0.568505  0.042944  2.474706  0.067
O  O280  1  0.07446577  0.34650935  0.30521245  1  -1.165668  0.091604  -0.305243  -0.555282  0.048797  2.491517  0.078
O  O281  1  0.92554085  0.84652134  0.69478288  1  -1.165601  0.0916  -0.305047  -0.554985  0.048794  2.491657  0.078
O  O282  1  0.07444870  0.84653656  0.19477852  1  -1.165777  0.091589  -0.305009  -0.554886  0.048784  2.491653  0.078
O  O283  1  0.92555087  0.34651920  0.80521529  1  -1.165634  0.091597  -0.304983  -0.554947  0.048791  2.491688  0.078
O  O284  1  0.93241711  0.29624267  0.92909332  1  -1.171026  0.083699  -0.315499  -0.575396  0.043595  2.478066  0.069
O  O285  1  0.06758964  0.79627148  0.07090451  1  -1.17074  0.083653  -0.315555  -0.575468  0.043577  2.478306  0.068
O  O286  1  0.93241364  0.79625744  0.57090615  1  -1.171025  0.083666  -0.315571  -0.575477  0.043582  2.478494  0.068
O  O287  1  0.06758694  0.29624189  0.42909585  1  -1.171143  0.083692  -0.315529  -0.575372  0.04359  2.478248  0.068
O  O288  1  0.08071445  0.64590234  0.11999984  1  -1.145934  0.090385  -0.320336  -0.549072  0.046554  2.192542  0.079
O  O289  1  0.91927860  0.14590985  0.87998916  1  -1.145579  0.09042  -0.32041  -0.549069  0.046573  2.192793  0.079
O  O290  1  0.08072687  0.14591371  0.37999273  1  -1.145496  0.09043  -0.320286  -0.548957  0.046578  2.192582  0.079
O  O291  1  0.91927059  0.64590760  0.62000538  1  -1.145641  0.090405  -0.320225  -0.548884  0.046564  2.19274  0.079
O  O292  1  0.99256955  0.10329442  0.12920009  1  -1.13862  0.090819  -0.320405  -0.546523  0.046723  2.186969  0.079
O  O293  1  0.00741669  0.60330063  0.87080504  1  -1.138204  0.090819  -0.320331  -0.546598  0.04672  2.186443  0.079
O  O294  1  0.99258360  0.60330221  0.37080278  1  -1.1384  0.090807  -0.320362  -0.546681  0.046713  2.1864  0.079
O  O295  1  0.00743174  0.10329569  0.62920008  1  -1.138626  0.090804  -0.320342  -0.546428  0.046716  2.187095  0.079
O  O296  1  0.98803358  0.07105381  0.04778451  1  -1.131999  0.089157  -0.323685  -0.539769  0.045631  2.145219  0.077
O  O297  1  0.01195483  0.57106322  0.95222381  1  -1.130364  0.089115  -0.323694  -0.53992  0.045609  2.144914  0.077
O  O298  1  0.98804184  0.57106135  0.45222044  1  -1.131913  0.089123  -0.323675  -0.539904  0.045614  2.145009  0.077
O  O299  1  0.01196067  0.07105909  0.54778370  1  -1.131909  0.089138  -0.323622  -0.539717  0.045621  2.145142  0.077
