# generated using pymatgen
data_CuH7C10SNO3
_symmetry_space_group_name_H-M   'P 1'
_cell_length_a   7.04634232
_cell_length_b   12.09138326
_cell_length_c   14.63680982
_cell_angle_alpha   92.86699811
_cell_angle_beta   90.01744458
_cell_angle_gamma   106.96693738
_symmetry_Int_Tables_number   1
_chemical_formula_structural   CuH7C10SNO3
_chemical_formula_sum   'Cu4 H28 C40 S4 N4 O12'
_cell_volume   1191.13843610
_cell_formula_units_Z   4
loop_
 _symmetry_equiv_pos_site_id
 _symmetry_equiv_pos_as_xyz
  1  'x, y, z'
loop_
 _atom_site_type_symbol
 _atom_site_label
 _atom_site_symmetry_multiplicity
 _atom_site_fract_x
 _atom_site_fract_y
 _atom_site_fract_z
 _atom_site_occupancy
 _atom_site_hle17_ddec_charge
 _atom_site_hle17_ddec_spin_density
 _atom_site_hle17_ddec_sum_bond_order
 _atom_site_hle17_magmom
 _atom_site_hse06_10hf_ddec_charge
 _atom_site_hse06_10hf_ddec_spin_density
 _atom_site_hse06_10hf_ddec_sum_bond_order
 _atom_site_hse06_10hf_magmom
 _atom_site_hse06_ddec_charge
 _atom_site_hse06_ddec_spin_density
 _atom_site_hse06_ddec_sum_bond_order
 _atom_site_hse06_magmom
 _atom_site_pbe_cm5_charge
 _atom_site_pbe_ddec_charge
 _atom_site_pbe_ddec_spin_density
 _atom_site_pbe_ddec_sum_bond_order
 _atom_site_pbe_magmom
Cu  Cu0  1  0.48525280  0.53070728  0.39949395  1  0.917968  0.59518  1.80753  0.442  0.913405  0.762646  2.208568  0.615  1.02427  0.863122  2.112228  0.721  0.739145  0.841583  0.603602  2.270909  0.478
Cu  Cu1  1  0.04495825  0.53067372  0.89953931  1  0.918024  -0.598145  1.808873  -0.443  0.913516  -0.764349  2.21005  -0.616  1.023994  -0.864261  2.114155  -0.721  0.739297  0.841272  -0.604846  2.272679  -0.479
Cu  Cu2  1  0.51477016  0.46930707  0.60049367  1  0.917862  -0.595169  1.807769  -0.442  0.91332  -0.762643  2.208698  -0.615  1.024297  -0.863115  2.11219  -0.721  0.739154  0.841639  -0.60356  2.270834  -0.478
Cu  Cu3  1  0.95504190  0.46932055  0.10046926  1  0.917911  0.598138  1.808876  0.443  0.913574  0.764335  2.209842  0.616  1.024016  0.864252  2.11401  0.721  0.739334  0.84134  0.604817  2.272431  0.479
H  H4  1  0.73575703  0.68303831  0.68355267  1  0.124752  7e-05  0.988898  0.0  0.133373  1.8e-05  1.049579  0.0  0.137294  6.2e-05  1.047963  0.0  0.104841  0.1305  -1.7e-05  1.051088  0.0
H  H5  1  0.94667129  0.68313381  0.18333652  1  0.12408  -5.4e-05  0.990165  0.0  0.132859  -1.4e-05  1.05067  0.0  0.136781  -6e-05  1.049069  0.0  0.10464  0.129961  1.9e-05  1.052227  0.0
H  H6  1  0.26422208  0.31694231  0.31642998  1  0.124776  -6.9e-05  0.988766  0.0  0.133376  -1.8e-05  1.049468  0.0  0.137299  -6.1e-05  1.047848  0.0  0.104793  0.130505  1.8e-05  1.05096  0.0
H  H7  1  0.05335575  0.31686315  0.81666124  1  0.124083  5.5e-05  0.990192  0.0  0.132866  1.4e-05  1.050681  0.0  0.136791  6e-05  1.04908  0.0  0.10463  0.129972  -1.9e-05  1.052247  0.0
H  H8  1  0.86249894  0.88911690  0.73499359  1  0.075429  0.000323  0.980544  0.0  0.082948  0.000238  1.050108  0.0  0.085003  0.000157  1.048415  0.0  0.092929  0.081714  0.000258  1.051145  0.0
H  H9  1  0.02615379  0.88924698  0.23482521  1  0.075151  -0.000334  0.98068  0.0  0.082842  -0.000242  1.050207  0.0  0.084915  -0.000159  1.048495  0.0  0.092666  0.08157  -0.00026  1.051298  0.0
H  H10  1  0.13749997  0.11086354  0.26501228  1  0.075411  -0.000324  0.980608  0.0  0.08292  -0.000238  1.050166  0.0  0.084967  -0.000157  1.048492  0.0  0.092895  0.081689  -0.000259  1.051195  0.0
H  H11  1  0.97386825  0.11074566  0.76517029  1  0.075228  0.000335  0.980733  0.0  0.082971  0.000242  1.050179  0.0  0.085043  0.000159  1.04848  0.0  0.092682  0.08169  0.00026  1.051265  0.0
H  H12  1  0.85912565  0.04454514  0.62741744  1  0.088474  0.000139  0.96434  0.0  0.098182  4.8e-05  1.027098  0.0  0.101062  3.3e-05  1.026524  0.0  0.094988  0.096154  3.4e-05  1.027634  0.0
H  H13  1  0.18569004  0.04465991  0.12737077  1  0.088248  -0.000112  0.96402  0.0  0.097814  -3.9e-05  1.026917  0.0  0.100698  -2.8e-05  1.026335  0.0  0.094719  0.095722  -3.4e-05  1.027549  0.0
H  H14  1  0.14085757  0.95544650  0.37259646  1  0.088526  -0.000136  0.964195  0.0  0.098205  -4.8e-05  1.026987  0.0  0.101087  -3.4e-05  1.026413  0.0  0.09497  0.096174  -3.4e-05  1.027516  0.0
H  H15  1  0.81426747  0.95533707  0.87262219  1  0.088302  0.00011  0.964067  0.0  0.097874  3.8e-05  1.026961  0.0  0.10076  2.8e-05  1.026377  0.0  0.094711  0.095785  3.4e-05  1.027592  0.0
H  H16  1  0.74500636  0.98759716  0.46789409  1  0.087455  -0.000144  0.967286  0.0  0.101596  -0.000194  1.025303  0.0  0.103773  -0.000151  1.023956  0.0  0.096847  0.100283  -0.000194  1.026022  0.0
H  H17  1  0.24304001  0.98790380  0.96787623  1  0.087511  0.000147  0.966182  0.0  0.100914  0.000198  1.025  0.0  0.103083  0.000153  1.023665  0.0  0.096346  0.099493  0.000195  1.025935  0.0
H  H18  1  0.25495658  0.01241351  0.53212206  1  0.087418  0.000142  0.967267  0.0  0.101501  0.000194  1.02533  0.0  0.103692  0.000151  1.023937  0.0  0.096781  0.100176  0.000194  1.026079  0.0
H  H19  1  0.75692916  0.01209663  0.03211895  1  0.087514  -0.000146  0.965994  0.0  0.100884  -0.000198  1.024896  0.0  0.103054  -0.000153  1.023561  0.0  0.096377  0.099471  -0.000195  1.025809  0.0
H  H20  1  0.36233126  0.78879610  0.21079504  1  0.102024  8.3e-05  0.958457  0.0  0.116149  0.00013  1.018205  0.0  0.116897  8.7e-05  1.019449  0.0  0.096769  0.115431  0.000149  1.017533  0.0
H  H21  1  0.42745603  0.78858586  0.71096907  1  0.102093  -8.7e-05  0.958094  0.0  0.11611  -0.000129  1.018065  0.0  0.116904  -8.6e-05  1.019245  0.0  0.096808  0.115405  -0.000149  1.017335  0.0
H  H22  1  0.63767755  0.21120700  0.78919207  1  0.102052  -8.3e-05  0.958407  0.0  0.116196  -0.000129  1.018137  0.0  0.116944  -8.7e-05  1.019378  0.0  0.09679  0.115493  -0.000148  1.017454  0.0
H  H23  1  0.57254553  0.21140840  0.28904154  1  0.102111  8.7e-05  0.957997  0.0  0.116146  0.00013  1.017988  0.0  0.116934  8.6e-05  1.019165  0.0  0.096829  0.115437  0.000149  1.017255  0.0
H  H24  1  0.59786008  0.81464477  0.15765073  1  0.108168  0.000143  0.921935  0.0  0.12463  0.00011  0.977022  0.0  0.125554  5.9e-05  0.97739  0.0  0.104743  0.123742  0.000121  0.977058  0.0
H  H25  1  0.21801536  0.81449783  0.65763508  1  0.107983  -0.000126  0.921593  0.0  0.124533  -9.2e-05  0.976558  0.0  0.125462  -4.8e-05  0.976905  0.0  0.104737  0.123745  -0.000121  0.976348  0.0
H  H26  1  0.40213922  0.18535917  0.84233983  1  0.108066  -0.000142  0.921987  0.0  0.124567  -0.00011  0.977028  0.0  0.125492  -5.9e-05  0.977395  0.0  0.104673  0.123683  -0.000121  0.977065  0.0
H  H27  1  0.78198772  0.18548528  0.34236204  1  0.107924  0.000126  0.921519  0.0  0.124503  9.2e-05  0.976523  0.0  0.12543  4.8e-05  0.976864  0.0  0.1047  0.123709  0.00012  0.976313  0.0
H  H28  1  0.65285461  0.64677796  0.21397825  1  0.098648  0.000323  0.933014  0.0  0.109797  0.000316  0.988937  0.0  0.111815  0.000271  0.988163  0.0  0.122517  0.10826  0.000318  0.989587  0.0
H  H29  1  0.99449633  0.64691472  0.71399145  1  0.0989  -0.000333  0.932543  0.0  0.11015  -0.000316  0.988321  0.0  0.11219  -0.000271  0.987563  0.0  0.122597  0.10853  -0.000315  0.989101  0.0
H  H30  1  0.34713257  0.35322160  0.78601894  1  0.098638  -0.000321  0.932869  0.0  0.109817  -0.000316  0.988811  0.0  0.111836  -0.000271  0.988047  0.0  0.122586  0.108284  -0.000318  0.989465  0.0
H  H31  1  0.00549982  0.35307440  0.28601141  1  0.098919  0.000334  0.93252  0.0  0.110221  0.000316  0.988228  0.0  0.112258  0.000271  0.987478  0.0  0.122609  0.108588  0.000316  0.98902  0.0
C  C32  1  0.67579865  0.71472070  0.54481023  1  0.365335  -7e-05  3.757813  0.0  0.360432  0.000448  4.013563  0.0  0.383589  2.4e-05  4.03115  0.0  0.09685  0.343066  0.000569  4.001293  0.001
C  C33  1  0.03938821  0.71485307  0.04478071  1  0.366147  8.9e-05  3.75683  0.0  0.360632  -0.000389  4.013174  0.0  0.383878  3.2e-05  4.03068  0.0  0.097408  0.343208  -0.000572  4.000824  -0.001
C  C34  1  0.32419312  0.28528237  0.45518029  1  0.365356  7.5e-05  3.758063  0.0  0.360481  -0.000447  4.013863  0.0  0.383642  -2.6e-05  4.031452  0.0  0.096788  0.34311  -0.000568  4.001591  -0.001
C  C35  1  0.96064980  0.28515166  0.95522082  1  0.36618  -9.4e-05  3.756669  0.0  0.360584  0.000387  4.013234  0.0  0.383826  -3.5e-05  4.030742  0.0  0.0974  0.34316  0.00057  4.000884  0.001
C  C36  1  0.74200441  0.75016965  0.63583234  1  -0.209107  0.000982  3.709506  0.002  -0.233251  0.00257  3.964112  0.003  -0.243897  0.002216  3.983039  0.003  -0.111787  -0.226129  0.002414  3.951658  0.003
C  C37  1  0.00820148  0.75029051  0.13572421  1  -0.208601  -0.00135  3.709737  -0.002  -0.232386  -0.002563  3.964294  -0.003  -0.24304  -0.002193  3.983243  -0.003  -0.111949  -0.225472  -0.002408  3.952088  -0.003
C  C38  1  0.25798629  0.24982559  0.36416260  1  -0.209268  -0.001001  3.709592  -0.002  -0.233325  -0.002571  3.964112  -0.003  -0.24397  -0.002216  3.983029  -0.003  -0.111732  -0.226195  -0.002415  3.951635  -0.003
C  C39  1  0.99183547  0.24970643  0.86427696  1  -0.20854  0.001347  3.709688  0.002  -0.232287  0.002564  3.964279  0.003  -0.242941  0.002194  3.983235  0.003  -0.111875  -0.225384  0.002408  3.952082  0.003
C  C40  1  0.80897337  0.86629293  0.66465552  1  -0.031713  0.000473  3.796865  0.001  -0.04672  3.4e-05  4.055309  0.0  -0.041767  -0.00031  4.073889  0.0  -0.091121  -0.049949  0.000167  4.042359  0.0
C  C41  1  0.05735638  0.86638144  0.16457468  1  -0.031622  -0.000185  3.795928  -0.001  -0.046948  3.7e-05  4.054173  0.0  -0.042068  0.000365  4.072853  0.0  -0.090859  -0.050261  -0.000167  4.041545  -0.001
C  C42  1  0.19102095  0.13369537  0.33534115  1  -0.031617  -0.000443  3.796775  -0.001  -0.046617  -3.3e-05  4.055149  0.0  -0.041662  0.00031  4.073718  0.0  -0.091042  -0.049846  -0.000168  4.042194  0.0
C  C43  1  0.94265407  0.13361642  0.83541902  1  -0.031831  0.000176  3.795699  0.001  -0.047187  -3.8e-05  4.053926  0.0  -0.042314  -0.000365  4.072611  0.0  -0.090933  -0.050488  0.000166  4.0413  0.0
C  C44  1  0.80902354  0.95340567  0.60492432  1  -0.118565  -0.003442  3.834555  -0.003  -0.140717  -0.00077  4.103095  -0.001  -0.148355  -0.000348  4.126682  0.0  -0.115064  -0.135426  -0.000726  4.086831  -0.001
C  C45  1  0.14488044  0.95351992  0.10490289  1  -0.118813  0.002783  3.83336  0.002  -0.140495  0.000653  4.101632  0.001  -0.148113  0.00028  4.125304  0.0  -0.115227  -0.135268  0.000746  4.085553  0.001
C  C46  1  0.19095761  0.04659036  0.39508091  1  -0.118674  0.00341  3.834689  0.003  -0.140808  0.000771  4.103211  0.001  -0.148454  0.000349  4.126804  0.0  -0.115032  -0.135508  0.000727  4.086941  0.001
C  C47  1  0.85512114  0.04647438  0.89510226  1  -0.118921  -0.002762  3.833181  -0.002  -0.140603  -0.000653  4.101429  -0.001  -0.148221  -0.000282  4.125102  0.0  -0.11524  -0.135387  -0.000747  4.08535  -0.001
C  C48  1  0.74430185  0.92103496  0.51570668  1  -0.070109  -0.001416  3.785307  -0.001  -0.091575  -0.001133  4.033228  -0.001  -0.087668  -0.001135  4.055086  -0.001  -0.090534  -0.094044  -0.000968  4.017953  -0.001
C  C49  1  0.17731087  0.92126186  0.01567217  1  -0.068454  0.001543  3.783171  0.001  -0.089581  0.001146  4.031004  0.001  -0.085673  0.001152  4.052919  0.001  -0.08923  -0.092071  0.00097  4.015719  0.001
C  C50  1  0.25567464  0.07896024  0.48429304  1  -0.069927  0.001443  3.785089  0.001  -0.091246  0.001133  4.032998  0.001  -0.08733  0.001135  4.054863  0.001  -0.090466  -0.093721  0.000968  4.017723  0.001
C  C51  1  0.82268816  0.07874719  0.98432887  1  -0.068505  -0.001569  3.782982  -0.001  -0.089587  -0.001147  4.03081  -0.001  -0.085685  -0.00115  4.052724  -0.001  -0.089263  -0.092073  -0.00097  4.015525  -0.001
C  C52  1  0.68007063  0.80401529  0.48311808  1  -0.12719  -0.001769  3.775816  -0.001  -0.113347  -0.001071  4.009407  -0.001  -0.129458  -0.000732  4.035489  0.0  -0.031739  -0.102126  -0.001007  3.991732  -0.001
C  C53  1  0.12455818  0.80420732  0.98310064  1  -0.130115  0.001327  3.777729  0.001  -0.115329  0.000949  4.010386  0.0  -0.131481  0.000662  4.036515  0.0  -0.032401  -0.103693  0.001018  3.992392  0.001
C  C54  1  0.31992878  0.19598603  0.51687509  1  -0.12743  0.001769  3.775776  0.001  -0.113729  0.001071  4.009639  0.001  -0.129845  0.000733  4.035727  0.0  -0.031868  -0.10251  0.001006  3.991972  0.001
C  C55  1  0.87545790  0.19580177  0.01689699  1  -0.129944  -0.001314  3.777324  -0.001  -0.115158  -0.000947  4.010092  0.0  -0.131301  -0.000661  4.036214  0.0  -0.032398  -0.103515  -0.001018  3.992084  -0.001
C  C56  1  0.62571143  0.77913868  0.38738619  1  0.233639  -0.007743  3.783261  -0.009  0.222624  -0.002188  4.060005  -0.003  0.247495  -0.003479  4.070141  -0.005  0.144102  0.204963  -0.000818  4.054721  -0.001
C  C57  1  0.15405468  0.77923312  0.88740171  1  0.234579  0.00793  3.781755  0.009  0.223434  0.002235  4.058798  0.003  0.248323  0.003506  4.068929  0.005  0.144176  0.205673  0.000832  4.053507  0.001
C  C58  1  0.37429035  0.22087305  0.61260541  1  0.233948  0.007731  3.783254  0.009  0.222848  0.002189  4.060093  0.003  0.247718  0.003479  4.070234  0.005  0.144336  0.20519  0.000819  4.054829  0.001
C  C59  1  0.84596050  0.22077418  0.11260198  1  0.234644  -0.007956  3.781388  -0.009  0.22346  -0.002238  4.058529  -0.003  0.248347  -0.003508  4.068656  -0.005  0.144215  0.205694  -0.000835  4.053238  -0.001
C  C60  1  0.51634077  0.78827195  0.22045909  1  -0.153171  0.001298  3.577965  0.001  -0.195872  0.001591  3.834592  0.001  -0.194292  0.00129  3.843286  0.001  -0.138343  -0.196734  0.001563  3.828669  0.001
C  C61  1  0.27296730  0.78818824  0.72053134  1  -0.152022  -0.001256  3.576305  -0.001  -0.194476  -0.001578  3.832517  -0.001  -0.192905  -0.001284  3.841276  -0.001  -0.137902  -0.195229  -0.00156  3.826287  -0.001
C  C62  1  0.48366760  0.21173025  0.77953344  1  -0.153066  -0.001299  3.577847  -0.001  -0.195784  -0.00159  3.834506  -0.001  -0.1942  -0.001291  3.843202  -0.001  -0.138293  -0.196664  -0.001562  3.828585  -0.001
C  C63  1  0.72703016  0.21180350  0.27946890  1  -0.151937  0.001255  3.575932  0.001  -0.194544  0.001578  3.832298  0.001  -0.19295  0.001285  3.841024  0.001  -0.137874  -0.195289  0.001561  3.826063  0.001
C  C64  1  0.53119673  0.67060762  0.24942178  1  0.019796  0.003015  3.638733  0.003  0.00911  0.002323  3.875095  0.002  0.008252  0.001148  3.888974  0.001  0.006162  0.009862  0.002638  3.86602  0.002
C  C65  1  0.13997536  0.67059856  0.74949776  1  0.01824  -0.003132  3.638919  -0.003  0.007684  -0.002367  3.875529  -0.002  0.006602  -0.001172  3.889834  -0.001  0.005697  0.008562  -0.002647  3.866374  -0.002
C  C66  1  0.46880526  0.32939885  0.75057778  1  0.019855  -0.003023  3.638248  -0.003  0.008969  -0.002324  3.874826  -0.002  0.008084  -0.001147  3.888767  -0.001  0.006084  0.009721  -0.002639  3.865777  -0.002
C  C67  1  0.86001956  0.32939661  0.25050674  1  0.018327  0.003126  3.638899  0.003  0.007772  0.002368  3.875347  0.002  0.006684  0.001172  3.889649  0.001  0.005784  0.008646  0.002647  3.866177  0.002
C  C68  1  0.34727145  0.56797631  0.22795769  1  0.657451  -0.004235  3.834806  -0.007  0.622252  -0.000844  4.129685  -0.003  0.659572  -0.000634  4.125023  -0.002  0.21567  0.596749  -0.000794  4.131503  -0.003
C  C69  1  0.22076919  0.56782291  0.72812601  1  0.656689  0.00425  3.835182  0.007  0.621227  0.000833  4.130861  0.003  0.65861  0.000625  4.126187  0.002  0.215426  0.59565  0.000789  4.132812  0.003
C  C70  1  0.65272429  0.43203184  0.77204809  1  0.657384  0.004237  3.83509  0.007  0.622236  0.000846  4.129918  0.003  0.659553  0.000633  4.125275  0.002  0.215636  0.59675  0.000795  4.131746  0.003
C  C71  1  0.77923805  0.43217135  0.27188391  1  0.656408  -0.00425  3.83527  -0.007  0.621164  -0.000834  4.130607  -0.003  0.658544  -0.000626  4.125939  -0.002  0.215303  0.595581  -0.00079  4.132529  -0.003
S  S72  1  0.63158518  0.89144760  0.31407311  1  -0.016869  0.014794  2.360624  0.016  -0.012065  0.011534  2.696499  0.013  -0.019449  0.007872  2.694441  0.009  0.03034  -0.007799  0.012165  2.698869  0.013
S  S73  1  0.26104087  0.89147195  0.81404007  1  -0.017028  -0.01485  2.358488  -0.016  -0.012536  -0.011452  2.694463  -0.012  -0.019995  -0.007808  2.692445  -0.009  0.030152  -0.008398  -0.01219  2.696933  -0.013
S  S74  1  0.36841605  0.10856586  0.68591720  1  -0.017024  -0.014796  2.360827  -0.016  -0.012214  -0.01153  2.696756  -0.013  -0.019601  -0.007872  2.694691  -0.009  0.030272  -0.007938  -0.012166  2.699132  -0.013
S  S75  1  0.73893867  0.10852936  0.18595378  1  -0.017059  0.014848  2.358414  0.016  -0.012506  0.011451  2.694453  0.012  -0.019966  0.007808  2.692431  0.009  0.030158  -0.008385  0.012189  2.696927  0.013
N  N76  1  0.57326529  0.67658942  0.34707845  1  -0.385538  0.078161  3.313796  0.099  -0.359863  0.060238  3.63362  0.08  -0.397388  0.051846  3.645001  0.072  -0.396728  -0.338318  0.054206  3.629028  0.07
N  N77  1  0.10363278  0.67664227  0.84713660  1  -0.385167  -0.078881  3.311213  -0.1  -0.360255  -0.060329  3.63199  -0.08  -0.397671  -0.051867  3.643427  -0.072  -0.396769  -0.338577  -0.05428  3.627261  -0.07
N  N78  1  0.42674587  0.32342405  0.65291187  1  -0.385768  -0.078154  3.313668  -0.099  -0.35988  -0.060239  3.633395  -0.08  -0.397425  -0.051847  3.644773  -0.072  -0.396844  -0.338381  -0.054208  3.628826  -0.07
N  N79  1  0.89635098  0.32335896  0.15286818  1  -0.385244  0.078899  3.311516  0.1  -0.360368  0.060325  3.63234  0.08  -0.397771  0.051868  3.643765  0.072  -0.396899  -0.338691  0.054278  3.627593  0.07
O  O80  1  0.61284132  0.60200026  0.52033529  1  -0.574299  0.015022  2.207942  0.021  -0.559618  0.015218  2.531788  0.023  -0.620531  0.011979  2.521554  0.02  -0.337391  -0.515321  0.014224  2.535853  0.021
O  O81  1  0.98947336  0.60209396  0.02034142  1  -0.573712  -0.016107  2.207296  -0.022  -0.559405  -0.015457  2.531804  -0.024  -0.620213  -0.012085  2.521639  -0.02  -0.337625  -0.514811  -0.014293  2.535789  -0.021
O  O82  1  0.38714947  0.39800369  0.47965322  1  -0.574165  -0.015026  2.207768  -0.021  -0.559571  -0.015223  2.531641  -0.023  -0.620488  -0.011985  2.521416  -0.02  -0.337388  -0.515269  -0.014247  2.535698  -0.021
O  O83  1  0.01055983  0.39791245  0.97966497  1  -0.573734  0.016111  2.207101  0.022  -0.559469  0.015458  2.531723  0.024  -0.620274  0.012084  2.521556  0.02  -0.337667  -0.514883  0.014293  2.535713  0.021
O  O84  1  0.29993963  0.49202238  0.28955264  1  -0.602443  0.072082  2.026867  0.099  -0.578211  0.052217  2.298685  0.078  -0.623581  0.040104  2.286266  0.063  -0.318312  -0.548206  0.051537  2.306365  0.074
O  O85  1  0.19109150  0.49171223  0.78961662  1  -0.600344  -0.07285  2.027571  -0.1  -0.57673  -0.052394  2.300034  -0.078  -0.6221  -0.040148  2.287678  -0.063  -0.318095  -0.546854  -0.051538  2.307836  -0.074
O  O86  1  0.70007599  0.50798579  0.71045109  1  -0.602465  -0.07208  2.026864  -0.099  -0.578211  -0.052213  2.298618  -0.078  -0.623601  -0.040099  2.286191  -0.063  -0.318384  -0.548239  -0.051532  2.306301  -0.074
O  O87  1  0.80892079  0.50829497  0.21040142  1  -0.600181  0.072865  2.027197  0.1  -0.57672  0.052406  2.299581  0.078  -0.622082  0.040157  2.287234  0.063  -0.318025  -0.546854  0.051555  2.307361  0.074
O  O88  1  0.25993196  0.56330043  0.15312709  1  -0.591049  0.012506  2.009858  0.017  -0.563404  0.007661  2.257601  0.011  -0.598144  0.003902  2.244193  0.006  -0.314709  -0.538255  0.010279  2.264876  0.014
O  O89  1  0.30411121  0.56322076  0.65347986  1  -0.590746  -0.012772  2.009803  -0.017  -0.563384  -0.007607  2.25797  -0.011  -0.598211  -0.003858  2.244536  -0.006  -0.314746  -0.538143  -0.010307  2.265212  -0.014
O  O90  1  0.74004451  0.43671457  0.84688789  1  -0.590975  -0.012504  2.009943  -0.017  -0.563342  -0.00766  2.257665  -0.011  -0.598083  -0.0039  2.244254  -0.006  -0.314591  -0.538184  -0.010278  2.264942  -0.014
O  O91  1  0.69590686  0.43676395  0.34653441  1  -0.590672  0.012768  2.009872  0.017  -0.563344  0.007604  2.25787  0.011  -0.59815  0.003855  2.244453  0.006  -0.314713  -0.538096  0.010307  2.265118  0.014
