# generated using pymatgen
data_MnH14C23N3ClO4
_symmetry_space_group_name_H-M   'P 1'
_cell_length_a   8.57487012
_cell_length_b   10.43998886
_cell_length_c   10.90644063
_cell_angle_alpha   79.60953742
_cell_angle_beta   88.00838475
_cell_angle_gamma   79.69116742
_symmetry_Int_Tables_number   1
_chemical_formula_structural   MnH14C23N3ClO4
_chemical_formula_sum   'Mn2 H28 C46 N6 Cl2 O8'
_cell_volume   944.84500416
_cell_formula_units_Z   2
loop_
 _symmetry_equiv_pos_site_id
 _symmetry_equiv_pos_as_xyz
  1  'x, y, z'
loop_
 _atom_site_type_symbol
 _atom_site_label
 _atom_site_symmetry_multiplicity
 _atom_site_fract_x
 _atom_site_fract_y
 _atom_site_fract_z
 _atom_site_occupancy
 _atom_site_hle17_ddec_charge
 _atom_site_hle17_ddec_spin_density
 _atom_site_hle17_ddec_sum_bond_order
 _atom_site_hle17_magmom
 _atom_site_hse06_10hf_ddec_charge
 _atom_site_hse06_10hf_ddec_spin_density
 _atom_site_hse06_10hf_ddec_sum_bond_order
 _atom_site_hse06_10hf_magmom
 _atom_site_hse06_ddec_charge
 _atom_site_hse06_ddec_spin_density
 _atom_site_hse06_ddec_sum_bond_order
 _atom_site_hse06_magmom
 _atom_site_pbe_cm5_charge
 _atom_site_pbe_ddec_charge
 _atom_site_pbe_ddec_spin_density
 _atom_site_pbe_ddec_sum_bond_order
 _atom_site_pbe_magmom
Mn  Mn0  1  0.28633151  0.17612648  0.21139332  1  0.954826  4.756381  2.079428  4.584  0.771485  4.660064  2.639881  4.4  0.83441  4.730678  2.565938  4.501  0.554019  0.724044  4.582726  2.694442  4.296
Mn  Mn1  1  0.71367069  0.82387137  0.78860841  1  0.954881  4.756357  2.079378  4.584  0.771515  4.660042  2.639859  4.4  0.834457  4.730656  2.565882  4.501  0.554034  0.724071  4.582704  2.694427  4.296
H  H2  1  0.12153374  0.35051194  0.38273310  1  0.411679  -0.000458  0.86949  0.0  0.380301  -0.000144  0.947993  0.0  0.392549  -0.000261  0.934668  0.0  0.31106  0.371622  -2.2e-05  0.957225  0.0
H  H3  1  0.87846295  0.64948983  0.61726533  1  0.411709  -0.000459  0.869425  0.0  0.380307  -0.000143  0.947967  0.0  0.392558  -0.000261  0.934639  0.0  0.311041  0.371626  -2.2e-05  0.957201  0.0
H  H4  1  0.56324058  0.04189904  0.41083687  1  0.07805  0.000235  0.939074  0.0  0.084608  0.000862  1.007532  0.001  0.087349  0.000582  1.005046  0.0  0.116435  0.082632  0.001179  1.009297  0.001
H  H5  1  0.43676015  0.95810574  0.58916364  1  0.078073  0.000232  0.939076  0.0  0.08465  0.000862  1.007508  0.001  0.08739  0.000582  1.005029  0.0  0.116448  0.082683  0.001179  1.009256  0.001
H  H6  1  0.84460722  0.92622690  0.41047544  1  0.119357  0.000258  0.951535  0.0  0.124977  0.000576  1.014427  0.0  0.128969  0.000364  1.012537  0.0  0.105281  0.121551  0.000784  1.016739  0.0
H  H7  1  0.15539425  0.07377986  0.58952560  1  0.119359  0.00026  0.951541  0.0  0.12495  0.000576  1.014456  0.0  0.128941  0.000364  1.012567  0.0  0.105269  0.121526  0.000784  1.016765  0.0
H  H8  1  0.97887367  0.90749431  0.20510039  1  0.094651  -0.000253  0.948311  0.0  0.104983  -6.2e-05  1.010418  0.0  0.107905  -0.00013  1.008086  0.0  0.101581  0.102698  1e-05  1.012332  0.0
H  H9  1  0.02112557  0.09250652  0.79490271  1  0.094632  -0.00026  0.948328  0.0  0.104951  -6.2e-05  1.010449  0.0  0.107872  -0.00013  1.008118  0.0  0.101576  0.102667  1e-05  1.012363  0.0
H  H10  1  0.83149078  0.01655097  0.00806387  1  0.104764  0.000482  0.945254  0.0  0.118031  0.001047  1.002719  0.0  0.12099  0.000759  1.001699  0.0  0.108138  0.11565  0.001294  1.004029  0.001
H  H11  1  0.16850930  0.98344588  0.99193719  1  0.104759  0.000491  0.94526  0.0  0.118026  0.001047  1.002735  0.0  0.120986  0.000758  1.001713  0.0  0.10812  0.115647  0.001294  1.004043  0.001
H  H12  1  0.71353984  0.15753313  0.86000729  1  0.105403  0.000477  0.974276  0.001  0.113196  0.000657  1.043265  0.001  0.11707  0.000481  1.040893  0.0  0.104977  0.109825  0.000862  1.046068  0.001
H  H13  1  0.28645961  0.84246667  0.13999141  1  0.105427  0.000483  0.974245  0.001  0.113222  0.000657  1.043227  0.001  0.117096  0.000481  1.040854  0.0  0.104992  0.109851  0.000862  1.046029  0.001
H  H14  1  0.25128410  0.36728852  0.73594031  1  0.127563  0.000371  0.953089  0.001  0.137191  0.000258  1.014995  0.0  0.140675  0.000212  1.013174  0.0  0.115872  0.134502  0.000312  1.016503  0.0
H  H15  1  0.74871461  0.63270930  0.26405969  1  0.127536  0.000364  0.95305  0.001  0.13716  0.000258  1.014965  0.0  0.140644  0.000212  1.013146  0.0  0.115867  0.134469  0.000312  1.016471  0.0
H  H16  1  0.91124377  0.25061546  0.22970456  1  0.081042  0.000389  0.951815  0.0  0.086469  0.001068  1.020804  0.001  0.08922  0.00079  1.018345  0.0  0.115612  0.08438  0.001318  1.022575  0.001
H  H17  1  0.08875960  0.74938238  0.77029530  1  0.081059  0.000387  0.951709  0.0  0.086469  0.001068  1.020722  0.001  0.089221  0.00079  1.018259  0.0  0.115608  0.08438  0.001318  1.022494  0.001
H  H18  1  0.68456164  0.38333218  0.09609885  1  0.127978  0.000159  0.967335  0.0  0.136685  0.000173  1.025356  0.0  0.140726  9.5e-05  1.023491  0.0  0.10939  0.133802  0.000283  1.026869  0.0
H  H19  1  0.31543781  0.61666763  0.90390077  1  0.127978  0.000159  0.96735  0.0  0.136675  0.000173  1.025382  0.0  0.140717  9.5e-05  1.023515  0.0  0.109391  0.133794  0.000283  1.026896  0.0
H  H20  1  0.73955480  0.47139791  0.87227632  1  0.109726  -0.000227  0.972995  0.0  0.117602  5.2e-05  1.034568  0.0  0.121392  -2.8e-05  1.031557  0.0  0.10797  0.114677  0.000126  1.036964  0.0
H  H21  1  0.26044518  0.52860488  0.12772365  1  0.109713  -0.000227  0.972999  0.0  0.117587  5.2e-05  1.034571  0.0  0.121376  -2.8e-05  1.031561  0.0  0.107975  0.114663  0.000126  1.036966  0.0
H  H22  1  0.01543508  0.41836861  0.78913340  1  0.121523  0.00021  0.967455  0.0  0.128738  0.00024  1.031821  0.0  0.132779  0.00018  1.029424  0.0  0.109587  0.126112  0.000298  1.03299  0.0
H  H23  1  0.98456362  0.58162921  0.21086659  1  0.121551  0.000218  0.967419  0.0  0.12877  0.00024  1.031776  0.0  0.132812  0.00018  1.029378  0.0  0.10961  0.126142  0.000298  1.032945  0.0
H  H24  1  0.33814286  0.30387978  0.56024194  1  0.105805  -0.000213  0.9672  0.0  0.108972  -0.000106  1.042311  0.0  0.113269  -0.000151  1.038436  0.0  0.10424  0.106073  -7.1e-05  1.045041  0.0
H  H25  1  0.66185405  0.69612101  0.43975757  1  0.105838  -0.00019  0.967204  0.0  0.108983  -0.000105  1.042331  0.0  0.11328  -0.000152  1.038455  0.0  0.104258  0.10609  -7.1e-05  1.045054  0.0
H  H26  1  0.72858987  0.39036099  0.32221039  1  0.102384  -0.000247  0.966274  0.0  0.110142  -7e-05  1.036099  0.0  0.113632  -9.4e-05  1.032952  0.0  0.108899  0.107777  -7.4e-05  1.037903  0.0
H  H27  1  0.27140757  0.60964277  0.67778856  1  0.102369  -0.000226  0.966267  0.0  0.110158  -6.9e-05  1.036069  0.0  0.113626  -9.4e-05  1.032947  0.0  0.108892  0.107796  -7.4e-05  1.037876  0.0
H  H28  1  0.79376145  0.30434523  0.71867310  1  0.093698  -0.000111  0.97032  0.0  0.101795  0.000112  1.041256  0.0  0.104864  6.3e-05  1.038592  0.0  0.104036  0.099942  0.000175  1.042535  0.0
H  H29  1  0.20623683  0.69565456  0.28132563  1  0.093719  -0.000108  0.970293  0.0  0.101794  0.000112  1.04124  0.0  0.104863  6.3e-05  1.038577  0.0  0.104031  0.099942  0.000175  1.042518  0.0
C  C30  1  0.52707541  0.16489246  0.99827267  1  0.199916  0.009187  3.766895  0.009  0.191694  0.013724  4.01439  0.012  0.200847  0.011452  4.032362  0.01  0.126723  0.18448  0.016832  4.003748  0.014
C  C31  1  0.47292424  0.83510635  0.00172620  1  0.199942  0.009165  3.767023  0.009  0.191684  0.013724  4.014516  0.012  0.200832  0.011452  4.032489  0.01  0.126665  0.18447  0.016831  4.003872  0.014
C  C32  1  0.62128183  0.09014059  0.10731532  1  0.171146  0.002884  3.759099  0.003  0.168626  0.006768  3.999756  0.005  0.174202  0.004899  4.021427  0.004  0.121196  0.164893  0.009167  3.985304  0.007
C  C33  1  0.37871783  0.90985824  0.89268538  1  0.17113  0.002952  3.759152  0.003  0.16868  0.006766  3.999708  0.005  0.174253  0.004899  4.021381  0.004  0.121226  0.164948  0.009166  3.985254  0.007
C  C34  1  0.62742665  0.03469236  0.32353901  1  0.139004  0.004017  3.689838  0.004  0.108789  0.007149  3.942531  0.006  0.11537  0.005761  3.960845  0.005  0.057305  0.103742  0.008584  3.931467  0.006
C  C35  1  0.37257333  0.96531044  0.67646188  1  0.138942  0.004073  3.689909  0.004  0.108716  0.007147  3.942593  0.006  0.115291  0.005762  3.960912  0.005  0.057313  0.103669  0.008583  3.931531  0.006
C  C36  1  0.78364497  0.96912498  0.32288566  1  -0.091847  -0.000554  3.682885  0.0  -0.10604  0.000841  3.93347  0.001  -0.111073  -0.000393  3.951805  0.0  -0.074404  -0.103114  0.002579  3.922808  0.002
C  C37  1  0.21635481  0.03087882  0.67711597  1  -0.091856  -0.000629  3.682848  0.0  -0.106041  0.000842  3.933464  0.001  -0.111073  -0.000394  3.951795  0.0  -0.074406  -0.103117  0.002579  3.922806  0.002
C  C38  1  0.85783774  0.96060956  0.20802038  1  0.006956  0.003213  3.71868  0.003  -0.01435  0.005845  3.973349  0.005  -0.010383  0.004551  3.990533  0.004  -0.065758  -0.017363  0.007594  3.962239  0.006
C  C39  1  0.14216033  0.03939127  0.79198276  1  0.007073  0.003289  3.71862  0.003  -0.014212  0.005843  3.973272  0.005  -0.010243  0.004552  3.990456  0.004  -0.065695  -0.017227  0.007592  3.962168  0.006
C  C40  1  0.77633022  0.02202298  0.09893313  1  -0.147227  -0.000434  3.71649  0.0  -0.166883  0.001049  3.967119  0.0  -0.173925  2.5e-05  3.988938  0.0  -0.080686  -0.161513  0.002185  3.95251  0.001
C  C41  1  0.22366965  0.97797487  0.90106866  1  -0.14727  -0.000548  3.716501  0.0  -0.166956  0.00105  3.967112  0.0  -0.173997  2.3e-05  3.988931  0.0  -0.080691  -0.161587  0.002186  3.952503  0.001
C  C42  1  0.58987279  0.19425543  0.87897293  1  -0.17343  -0.007214  3.650093  -0.005  -0.201138  -0.004238  3.90213  -0.004  -0.20887  -0.006162  3.920312  -0.004  -0.072794  -0.196706  -0.002876  3.892632  -0.003
C  C43  1  0.41012665  0.80574436  0.12102577  1  -0.173467  -0.00718  3.650024  -0.005  -0.201178  -0.004237  3.902073  -0.004  -0.208914  -0.006162  3.920257  -0.004  -0.072777  -0.196746  -0.002876  3.892574  -0.003
C  C44  1  0.49193693  0.26955432  0.78185107  1  0.137776  0.009429  3.725538  0.008  0.146992  0.013532  3.957616  0.011  0.154941  0.011357  3.97707  0.01  0.02266  0.140089  0.016877  3.946264  0.014
C  C45  1  0.50806294  0.73044349  0.21814798  1  0.137722  0.009398  3.725554  0.008  0.146949  0.013531  3.957653  0.011  0.154902  0.011358  3.977105  0.01  0.022632  0.140044  0.016877  3.946299  0.014
C  C46  1  0.33159114  0.31050265  0.80902738  1  -0.157321  -0.007658  3.607163  -0.005  -0.184161  -0.005011  3.852984  -0.004  -0.191248  -0.007023  3.870836  -0.005  -0.066167  -0.179638  -0.003108  3.842456  -0.003
C  C47  1  0.66840799  0.68949319  0.19097205  1  -0.157201  -0.007569  3.607067  -0.005  -0.184047  -0.005012  3.852867  -0.004  -0.191139  -0.007022  3.870723  -0.005  -0.06616  -0.179525  -0.003108  3.842334  -0.003
C  C48  1  0.27587370  0.27690041  0.93014003  1  0.199265  0.009314  3.763615  0.009  0.193788  0.013739  4.004798  0.012  0.202573  0.011547  4.023443  0.01  0.126351  0.186717  0.016539  3.994171  0.014
C  C49  1  0.72412787  0.72310039  0.06985934  1  0.199192  0.009285  3.76357  0.009  0.193766  0.013741  4.004669  0.012  0.202545  0.011547  4.023306  0.01  0.126359  0.186701  0.01654  3.99404  0.014
C  C50  1  0.10882342  0.31223775  0.96828330  1  0.16584  0.003072  3.769462  0.003  0.165781  0.006665  4.003653  0.006  0.171107  0.005098  4.025961  0.004  0.120767  0.162047  0.008408  3.989485  0.007
C  C51  1  0.89117719  0.68776206  0.03171628  1  0.165779  0.003104  3.769501  0.003  0.16569  0.006666  4.00371  0.006  0.171026  0.005099  4.026006  0.004  0.120747  0.161943  0.008409  3.989553  0.007
C  C52  1  0.92845359  0.29121663  0.13193022  1  0.137867  0.00517  3.705618  0.005  0.106478  0.00859  3.962075  0.007  0.114022  0.007096  3.979777  0.006  0.049778  0.101362  0.010245  3.95003  0.008
C  C53  1  0.07155020  0.70877924  0.86807090  1  0.137848  0.005193  3.705427  0.005  0.106468  0.008591  3.961883  0.007  0.114012  0.007098  3.979586  0.006  0.049815  0.101352  0.010247  3.94984  0.008
C  C54  1  0.80350243  0.36406124  0.05693601  1  -0.124193  -0.001467  3.697702  -0.001  -0.13732  -0.000268  3.949247  0.0  -0.144729  -0.001375  3.97016  -0.001  -0.08413  -0.132553  0.000994  3.93568  0.001
C  C55  1  0.19649998  0.63593562  0.94306588  1  -0.124205  -0.001504  3.697779  -0.001  -0.137322  -0.000267  3.949311  0.0  -0.14473  -0.001376  3.970223  -0.001  -0.084147  -0.132555  0.000994  3.935746  0.001
C  C56  1  0.83524216  0.41225351  0.93240123  1  -0.002649  0.003944  3.693913  0.003  -0.020452  0.006556  3.945422  0.005  -0.016956  0.005346  3.962803  0.004  -0.068534  -0.02237  0.008164  3.933795  0.006
C  C57  1  0.16475919  0.58774828  0.06759796  1  -0.002565  0.003977  3.694005  0.003  -0.020362  0.006557  3.945486  0.005  -0.016868  0.005348  3.96287  0.004  -0.068516  -0.022283  0.008165  3.93386  0.006
C  C58  1  0.98925611  0.38458396  0.88678353  1  -0.139947  -0.001528  3.683724  -0.001  -0.16006  -0.000409  3.933114  0.0  -0.166753  -0.001245  3.953556  -0.001  -0.079097  -0.156016  0.000307  3.919278  0.0
C  C59  1  0.01074450  0.61541583  0.11321422  1  -0.13997  -0.0016  3.68376  -0.001  -0.160077  -0.000408  3.933155  0.0  -0.166775  -0.001246  3.953593  -0.001  -0.079124  -0.156035  0.000307  3.919341  0.0
C  C60  1  0.55638939  0.30365276  0.65556115  1  0.034837  -0.003367  3.76331  -0.003  0.053147  -0.001767  3.998364  -0.002  0.048283  -0.002393  4.021303  -0.002  -0.004809  0.056818  -0.001166  3.983483  -0.002
C  C61  1  0.44361122  0.69634703  0.34443660  1  0.034894  -0.003301  3.763194  -0.003  0.053132  -0.001768  3.998341  -0.002  0.048264  -0.002395  4.021281  -0.002  -0.004786  0.056804  -0.001166  3.98346  -0.002
C  C62  1  0.46105243  0.31879244  0.54997070  1  -0.070846  0.002131  3.643376  0.002  -0.105025  0.002354  3.892506  0.002  -0.102237  0.002118  3.910429  0.002  -0.065589  -0.108867  0.004532  3.882408  0.004
C  C63  1  0.53894395  0.68120538  0.45002937  1  -0.07096  0.002032  3.643455  0.002  -0.105093  0.002355  3.892612  0.002  -0.102308  0.00212  3.910551  0.002  -0.065656  -0.108936  0.004532  3.882513  0.004
C  C64  1  0.52345525  0.35062840  0.43039776  1  -0.073777  -0.002214  3.772298  -0.001  -0.048645  -0.000841  4.010336  -0.001  -0.059  -0.001546  4.035111  -0.001  -0.01761  -0.042285  -0.000651  3.994823  -0.001
C  C65  1  0.47654303  0.64937141  0.56960189  1  -0.073691  -0.002128  3.772431  -0.001  -0.048558  -0.000843  4.0105  -0.001  -0.058911  -0.00155  4.03526  -0.001  -0.017537  -0.042196  -0.000651  3.99499  -0.001
C  C66  1  0.42816579  0.36194591  0.31499561  1  0.644875  0.006507  3.892833  0.005  0.590975  0.009978  4.191052  0.007  0.62434  0.007475  4.186268  0.006  0.213289  0.567579  0.012543  4.193565  0.009
C  C67  1  0.57183090  0.63805586  0.68500281  1  0.644908  0.006515  3.892765  0.005  0.590964  0.009977  4.191061  0.007  0.624334  0.007476  4.186273  0.006  0.213246  0.567566  0.012542  4.193576  0.009
C  C68  1  0.68208611  0.36577561  0.41581018  1  -0.049457  0.004679  3.678889  0.004  -0.090332  0.005047  3.928851  0.004  -0.085777  0.004228  3.946911  0.003  -0.069169  -0.091459  0.005401  3.915479  0.004
C  C69  1  0.31791175  0.63422617  0.58418912  1  -0.049435  0.004571  3.678892  0.004  -0.090356  0.005048  3.928879  0.004  -0.085781  0.004232  3.946953  0.003  -0.069154  -0.09149  0.005401  3.915509  0.004
C  C70  1  0.77962549  0.34670377  0.51989172  1  -0.074926  -0.002246  3.765414  -0.002  -0.049767  -0.000656  4.001214  -0.001  -0.060157  -0.001242  4.023821  -0.001  -0.017863  -0.043429  -0.000615  3.985957  -0.001
C  C71  1  0.22037449  0.65329900  0.48010643  1  -0.074971  -0.002162  3.765542  -0.002  -0.049811  -0.000657  4.001306  -0.001  -0.060199  -0.001247  4.02391  -0.001  -0.017934  -0.043471  -0.000615  3.986049  -0.001
C  C72  1  0.95290838  0.34853197  0.50707823  1  0.659546  0.000107  3.808331  0.0  0.611063  0.000161  4.101815  0.0  0.645033  9.4e-05  4.092303  0.0  0.234162  0.587556  0.00023  4.108638  0.0
C  C73  1  0.04709202  0.65146886  0.49292392  1  0.659476  8.8e-05  3.808586  0.0  0.611021  0.000161  4.102012  0.0  0.644985  9.4e-05  4.092509  0.0  0.234154  0.587515  0.00023  4.108832  0.0
C  C74  1  0.71583177  0.31713958  0.63906250  1  -0.062053  0.00433  3.670392  0.004  -0.100678  0.00448  3.920254  0.003  -0.096144  0.003816  3.936727  0.003  -0.068113  -0.102524  0.005227  3.908079  0.004
C  C75  1  0.28416884  0.68286021  0.36093525  1  -0.062046  0.00427  3.670445  0.004  -0.100623  0.004481  3.92031  0.003  -0.096088  0.00382  3.936788  0.003  -0.068053  -0.10247  0.005227  3.908133  0.004
N  N76  1  0.37279172  0.20596352  0.02236543  1  -0.386978  0.025674  3.263752  0.01  -0.325856  0.030673  3.543806  0.009  -0.345681  0.024105  3.554118  0.004  -0.328057  -0.31237  0.037896  3.538625  0.015
N  N77  1  0.62720581  0.79403429  0.97763369  1  -0.387032  0.025697  3.263897  0.01  -0.325893  0.030674  3.543909  0.009  -0.345701  0.024106  3.554197  0.004  -0.328085  -0.31241  0.037898  3.538728  0.015
N  N78  1  0.54741992  0.09326074  0.21874401  1  -0.349162  0.030457  3.239469  0.019  -0.281538  0.036035  3.507509  0.021  -0.301908  0.030946  3.524567  0.017  -0.314452  -0.267119  0.041073  3.496694  0.026
N  N79  1  0.45257932  0.90674007  0.78125634  1  -0.349158  0.030396  3.239507  0.019  -0.281538  0.036036  3.507499  0.021  -0.301911  0.030945  3.524568  0.017  -0.314489  -0.267123  0.041074  3.496691  0.026
N  N80  1  0.07793104  0.26789122  0.08979196  1  -0.360238  0.030661  3.247127  0.017  -0.292765  0.036319  3.522252  0.018  -0.312807  0.031302  3.536212  0.014  -0.321298  -0.278185  0.041289  3.512552  0.023
N  N81  1  0.92206957  0.73210856  0.91020579  1  -0.360221  0.030647  3.247041  0.017  -0.292752  0.03632  3.522179  0.018  -0.312799  0.031303  3.536138  0.014  -0.321322  -0.278167  0.041291  3.512485  0.023
Cl  Cl82  1  0.19196690  0.00883367  0.34103813  1  -0.588768  0.070906  0.888575  0.045  -0.519804  0.084342  1.171904  0.046  -0.55118  0.069759  1.148668  0.035  -0.298933  -0.490846  0.098744  1.18753  0.058
Cl  Cl83  1  0.80803372  0.99116617  0.65896511  1  -0.588762  0.070904  0.888544  0.045  -0.519814  0.084342  1.171908  0.046  -0.551193  0.069758  1.148663  0.035  -0.298928  -0.490849  0.098745  1.18752  0.058
O  O84  1  0.29938528  0.30871430  0.32930626  1  -0.679886  0.037593  2.09583  0.023  -0.594751  0.044019  2.366264  0.026  -0.628313  0.038351  2.351035  0.02  -0.3359  -0.568643  0.050039  2.375164  0.031
O  O85  1  0.70061279  0.69128647  0.67069139  1  -0.679951  0.0376  2.095845  0.023  -0.594773  0.044016  2.366288  0.026  -0.628352  0.038352  2.351068  0.02  -0.335895  -0.568667  0.050038  2.375191  0.031
O  O86  1  0.47630859  0.41302907  0.21188139  1  -0.576981  0.006208  1.934805  0.006  -0.531744  0.010161  2.157534  0.01  -0.554372  0.008382  2.150848  0.009  -0.296293  -0.514816  0.013056  2.161774  0.013
O  O87  1  0.52368969  0.58697072  0.78811734  1  -0.576978  0.006201  1.934687  0.006  -0.531724  0.010162  2.15743  0.01  -0.554362  0.008379  2.150761  0.009  -0.29627  -0.514796  0.013055  2.161671  0.013
O  O88  1  0.04240592  0.33425678  0.59649925  1  -0.565249  -0.000317  1.941076  0.0  -0.522179  -9.3e-05  2.164942  0.0  -0.543018  -0.000206  2.157088  0.0  -0.290708  -0.507866  1.1e-05  2.169942  0.0
O  O89  1  0.95759311  0.66574505  0.40350367  1  -0.565248  -0.000288  1.941203  0.0  -0.522199  -9.4e-05  2.165061  0.0  -0.543033  -0.000206  2.157207  0.0  -0.290741  -0.507886  1.1e-05  2.170057  0.0
O  O90  1  0.00192205  0.36333300  0.38842431  1  -0.56054  6.4e-05  2.125277  0.0  -0.509014  0.000535  2.353665  0.0  -0.531968  0.000347  2.339524  0.0  -0.328964  -0.492882  0.000709  2.362697  0.0
O  O91  1  0.99807719  0.63666781  0.61157697  1  -0.560522  7.2e-05  2.125343  0.0  -0.508966  0.000534  2.353689  0.0  -0.531921  0.000347  2.339552  0.0  -0.328901  -0.492831  0.000709  2.362715  0.0
