# generated using pymatgen
data_Zn2H7C21S5N2ClO13
_symmetry_space_group_name_H-M   'P 1'
_cell_length_a   11.46306395
_cell_length_b   12.75946312
_cell_length_c   23.92691655
_cell_angle_alpha   90.24203874
_cell_angle_beta   88.55558374
_cell_angle_gamma   89.46650400
_symmetry_Int_Tables_number   1
_chemical_formula_structural   Zn2H7C21S5N2ClO13
_chemical_formula_sum   'Zn4 H14 C42 S10 N4 Cl2 O26'
_cell_volume   3498.31316386
_cell_formula_units_Z   2
loop_
 _symmetry_equiv_pos_site_id
 _symmetry_equiv_pos_as_xyz
  1  'x, y, z'
loop_
 _atom_site_type_symbol
 _atom_site_label
 _atom_site_symmetry_multiplicity
 _atom_site_fract_x
 _atom_site_fract_y
 _atom_site_fract_z
 _atom_site_occupancy
 _atom_site_pbe_bader_charge
 _atom_site_pbe_bader_spin_density
 _atom_site_pbe_cm5_charge
 _atom_site_pbe_ddec_charge
 _atom_site_pbe_ddec_spin_density
 _atom_site_pbe_ddec_sum_bond_order
 _atom_site_pbe_magmom
Zn  Zn0  1  0.61818284  0.50143258  0.49920968  1  1.291564  0  0.663771  0.845149  0  2.382943  0
Zn  Zn1  1  0.37690082  0.50035234  0.49797753  1  1.313003  0  0.671276  0.85348  0  2.422863  0
Zn  Zn2  1  0.38154023  0.50573486  0.97148953  1  1.294003  0  0.66917  0.857407  0  2.410903  0
Zn  Zn3  1  0.62361704  0.49929410  0.95966551  1  1.30465  0  0.666283  0.846513  0  2.37902  0
H  H4  1  0.75441823  0.57329082  0.78462540  1  0.05087  0  0.089892  0.09927  0  1.000957  0
H  H5  1  0.75974000  0.43380885  0.78364952  1  0.048843  0  0.096441  0.109181  0  0.978327  0
H  H6  1  0.76369071  0.43510029  0.67791221  1  0.049017  0  0.094811  0.10671  0  0.982954  0
H  H7  1  0.75740281  0.57467597  0.67866100  1  0.081859  0  0.086381  0.091252  0  1.006967  0
H  H8  1  0.88902399  0.32916767  0.41540317  1  0.636522  0  0.359097  0.383631  0  0.843731  0
H  H9  1  0.10691389  0.66055463  0.58886987  1  0.614609  0  0.357229  0.384267  0  0.842147  0
H  H10  1  0.75982379  0.08079111  0.50397707  1  0.573799  0  0.332664  0.358126  0  0.88179  0
H  H11  1  0.24099320  0.92127942  0.49644312  1  0.604639  0  0.33359  0.358174  0  0.882288  0
H  H12  1  0.24471689  0.50373449  0.27192370  1  0.596233  0  0.332827  0.359224  0  0.880594  0
H  H13  1  0.77299389  0.50605147  0.19072965  1  0.600999  0  0.334335  0.361351  0  0.878769  0
H  H14  1  0.11063785  0.33263945  0.05061307  1  0.633286  0  0.35893  0.384833  0  0.84316  0
H  H15  1  0.89813204  0.66955358  0.87873322  1  0.626426  0  0.359726  0.38391  0  0.842552  0
H  H16  1  0.23842283  0.08517032  0.96262179  1  0.602769  0  0.332963  0.357515  0  0.884542  0
H  H17  1  0.75812664  0.91977263  0.96469514  1  0.601483  0  0.332849  0.358137  0  0.882405  0
C  C18  1  0.50030020  0.70546358  0.49942969  1  1.575177  0  0.20195  0.614118  0  4.217418  0
C  C19  1  0.50048973  0.49892782  0.60832797  1  1.575131  0  0.214005  0.609195  0  4.162049  0
C  C20  1  0.49808124  0.29593060  0.49854462  1  1.541035  0  0.201415  0.612255  0  4.216909  0
C  C21  1  0.49170524  0.49969552  0.38926151  1  1.631688  0  0.200913  0.611733  0  4.220516  0
C  C22  1  0.49707383  0.70732892  0.96517845  1  1.625728  0  0.202214  0.61577  0  4.212668  0
C  C23  1  0.49413945  0.50041846  0.85643736  1  1.572699  0  0.215002  0.608945  0  4.158173  0
C  C24  1  0.49759166  0.29790567  0.96489207  1  1.625185  0  0.202056  0.613382  0  4.217996  0
C  C25  1  0.52098948  0.50126200  0.07442464  1  1.618917  0  0.20269  0.616353  0  4.21246  0
C  C26  1  0.87274133  0.44354315  0.46716293  1  1.241088  0  0.226333  0.447525  0  4.075254  0
C  C27  1  0.12262966  0.56087372  0.52896598  1  1.205171  0  0.226597  0.450251  0  4.069924  0
C  C28  1  0.00279359  0.54044278  0.51880506  1  -0.142254  0  -0.027354  -0.195941  0  4.13467  0
C  C29  1  0.99254431  0.46207152  0.47830794  1  -0.183402  0  -0.02783  -0.198917  0  4.140593  0
C  C30  1  0.59747173  0.11197935  0.49993039  1  0.500735  0  0.07852  0.271311  0  4.085777  0
C  C31  1  0.40350141  0.88960974  0.49859777  1  0.54919  0  0.079384  0.272097  0  4.086836  0
C  C32  1  0.50255324  0.18076415  0.49865216  1  -0.045084  0  -0.037998  -0.215321  0  3.898955  0
C  C33  1  0.49819513  0.82055995  0.49970516  1  -0.079943  0  -0.038763  -0.216919  0  3.901782  0
C  C34  1  0.43998683  0.99568487  0.49873869  1  -0.178246  0  -0.044521  -0.138317  0  4.160288  0
C  C35  1  0.56124535  0.00576936  0.49996973  1  -0.083768  0  -0.045617  -0.140631  0  4.159359  0
C  C36  1  0.48616683  0.49681601  0.79379058  1  0.089098  0  -0.01357  -0.112091  0  3.920239  0
C  C37  1  0.48961377  0.49638733  0.67115561  1  0.01571  0  -0.013147  -0.114244  0  3.916665  0
C  C38  1  0.58834587  0.49951963  0.76104836  1  -0.06842  0  -0.007401  0.066034  0  3.908122  0
C  C39  1  0.38377525  0.49066529  0.70337298  1  0.192688  0  0.013217  0.069677  0  3.965895  0
C  C40  1  0.58998043  0.49976653  0.70280987  1  -0.019616  0  -0.006627  0.066315  0  3.904279  0
C  C41  1  0.38219556  0.49121418  0.76285322  1  0.02535  0  0.011918  0.070275  0  3.969048  0
C  C42  1  0.72004047  0.50302187  0.76436950  1  0.046576  0  -0.155436  -0.194138  0  3.88388  0
C  C43  1  0.72205587  0.50362202  0.69826808  1  -0.066057  0  -0.155895  -0.198367  0  3.897324  0
C  C44  1  0.40543689  0.49891390  0.29026870  1  0.508306  0  0.077925  0.271997  0  4.085193  0
C  C45  1  0.61184641  0.50064909  0.17325279  1  0.544527  0  0.077061  0.270797  0  4.088331  0
C  C46  1  0.49624179  0.49913924  0.32784749  1  -0.109534  0  -0.037785  -0.215365  0  3.89981  0
C  C47  1  0.52082828  0.50036050  0.13584874  1  -0.155469  0  -0.03857  -0.218374  0  3.899923  0
C  C48  1  0.56975886  0.50024793  0.22965749  1  -0.119243  0  -0.045385  -0.140679  0  4.157076  0
C  C49  1  0.44791119  0.49956057  0.23401535  1  -0.127919  0  -0.045163  -0.142023  0  4.166398  0
C  C50  1  0.12625047  0.44899045  0.00078804  1  1.203011  0  0.22721  0.450301  0  4.073191  0
C  C51  1  0.87926211  0.55844138  0.93151882  1  1.190038  0  0.227481  0.447887  0  4.073861  0
C  C52  1  0.99822159  0.54228284  0.94568413  1  -0.156718  0  -0.028341  -0.197496  0  4.138369  0
C  C53  1  0.00722258  0.46503002  0.98662464  1  -0.133189  0  -0.028307  -0.198828  0  4.139357  0
C  C54  1  0.40061411  0.11496828  0.96500490  1  0.581898  0  0.077784  0.270708  0  4.084941  0
C  C55  1  0.59580352  0.89010605  0.96305129  1  0.591602  0  0.078211  0.271717  0  4.084296  0
C  C56  1  0.49510440  0.18275840  0.96457987  1  -0.157491  0  -0.038073  -0.215328  0  3.899446  0
C  C57  1  0.50124922  0.82241012  0.96412394  1  -0.10858  0  -0.037897  -0.216155  0  3.898348  0
C  C58  1  0.55896047  0.99675753  0.96342877  1  -0.21087  0  -0.045349  -0.139999  0  4.160652  0
C  C59  1  0.43753961  0.00836269  0.96459855  1  -0.135415  0  -0.045007  -0.138575  0  4.160256  0
S  S60  1  0.86681323  0.58570516  0.53982069  1  0.701593  0  0.242892  0.309339  0  2.844016  0
S  S61  1  0.12861200  0.42012682  0.45542835  1  0.70684  0  0.244115  0.318021  0  2.834319  0
S  S62  1  0.36927616  0.11546101  0.49755157  1  0.23107  0  0.03771  0.079145  0  2.828688  0
S  S63  1  0.63166638  0.88567523  0.50101100  1  0.209679  0  0.033945  0.074409  0  2.821323  0
S  S64  1  0.63344076  0.50017242  0.29427491  1  0.203736  0  0.037853  0.082768  0  2.811945  0
S  S65  1  0.38379779  0.49938329  0.16962345  1  0.22952  0  0.040585  0.088456  0  2.833083  0
S  S66  1  0.13411141  0.58953222  0.92794152  1  0.710125  0  0.241877  0.31847  0  2.877589  0
S  S67  1  0.87096638  0.41975984  0.00536917  1  0.70353  0  0.243945  0.318929  0  2.837405  0
S  S68  1  0.62896368  0.11588009  0.96321512  1  0.216981  0  0.03676  0.078235  0  2.821549  0
S  S69  1  0.36743210  0.88937721  0.96585723  1  0.204297  0  0.036375  0.077294  0  2.828925  0
N  N70  1  0.79951703  0.50337610  0.49723332  1  -1.171083  0  -0.318709  -0.338974  0  3.313894  0
N  N71  1  0.19576692  0.50151725  0.49852220  1  -1.191761  0  -0.318449  -0.340213  0  3.311122  0
N  N72  1  0.19997162  0.50975015  0.97255056  1  -1.181121  0  -0.31883  -0.341021  0  3.30759  0
N  N73  1  0.80534446  0.49819822  0.95993252  1  -1.170319  0  -0.31771  -0.341303  0  3.308433  0
Cl  Cl74  1  0.25066165  0.48048452  0.67165624  1  -0.19  0  -0.033355  -0.083942  0  1.659756  0
Cl  Cl75  1  0.24800201  0.48162352  0.79677309  1  -0.186699  0  -0.039103  -0.102862  0  1.677356  0
O  O76  1  0.60111490  0.66164014  0.50254737  1  -1.168114  0  -0.333164  -0.565421  0  2.32711  0
O  O77  1  0.40307118  0.65925832  0.49592412  1  -1.147248  0  -0.312137  -0.51754  0  2.309845  0
O  O78  1  0.40735542  0.49792573  0.58076618  1  -1.160011  0  -0.316831  -0.544919  0  2.434121  0
O  O79  1  0.60379911  0.50232115  0.58750428  1  -1.150744  0  -0.314937  -0.542431  0  2.278036  0
O  O80  1  0.39641562  0.33770676  0.49660463  1  -1.1621  0  -0.330377  -0.560615  0  2.311957  0
O  O81  1  0.59488700  0.34388296  0.50055804  1  -1.147442  0  -0.31555  -0.523105  0  2.321517  0
O  O82  1  0.58956634  0.50509440  0.41359177  1  -1.164797  0  -0.3257  -0.552912  0  2.303813  0
O  O83  1  0.39112509  0.49489148  0.41295508  1  -1.152135  0  -0.320379  -0.530935  0  2.322298  0
O  O84  1  0.39538246  0.66763407  0.97101582  1  -1.164985  0  -0.33195  -0.559747  0  2.313588  0
O  O85  1  0.59350164  0.65737937  0.96031711  1  -1.154012  0  -0.314907  -0.527092  0  2.313393  0
O  O86  1  0.59681461  0.48918177  0.87510876  1  -1.150853  0  -0.310176  -0.529044  0  2.293239  0
O  O87  1  0.40189710  0.51554242  0.88584810  1  -1.164579  0  -0.319013  -0.553986  0  2.41473  0
O  O88  1  0.59896594  0.33941765  0.96506409  1  -1.165826  0  -0.331532  -0.563634  0  2.321688  0
O  O89  1  0.40000939  0.34617049  0.96490339  1  -1.151378  0  -0.315584  -0.523347  0  2.306656  0
O  O90  1  0.41900450  0.50282460  0.05354139  1  -1.158133  0  -0.326148  -0.548956  0  2.34015  0
O  O91  1  0.61776579  0.50058738  0.04733042  1  -1.167128  0  -0.319323  -0.538492  0  2.30099  0
O  O92  1  0.82851297  0.37617781  0.43036976  1  -1.113207  0  -0.301767  -0.396648  0  2.281335  0
O  O93  1  0.16710548  0.63164370  0.56370998  1  -1.094391  0  -0.301046  -0.397591  0  2.303824  0
O  O94  1  0.71085522  0.14319880  0.50084965  1  -1.074345  0  -0.342821  -0.410869  0  2.270533  0
O  O95  1  0.29016807  0.85868406  0.49773853  1  -1.101024  0  -0.34011  -0.405147  0  2.276806  0
O  O96  1  0.29019195  0.49832320  0.30568448  1  -1.095111  0  -0.343284  -0.414839  0  2.278513  0
O  O97  1  0.72678619  0.50101699  0.15722417  1  -1.102063  0  -0.344902  -0.418058  0  2.273665  0
O  O98  1  0.16925627  0.38320325  0.03882399  1  -1.104556  0  -0.30375  -0.400953  0  2.272767  0
O  O99  1  0.83666676  0.62464320  0.89355288  1  -1.095711  0  -0.299439  -0.398212  0  2.281822  0
O  O100  1  0.28680054  0.14717097  0.96600063  1  -1.108771  0  -0.342501  -0.410402  0  2.272949  0
O  O101  1  0.70956311  0.85776171  0.96204727  1  -1.101629  0  -0.342651  -0.410919  0  2.268695  0
