# generated using pymatgen
data_TbH5C4SN2O7
_symmetry_space_group_name_H-M   'P 1'
_cell_length_a   6.48158408
_cell_length_b   11.18512723
_cell_length_c   12.16919768
_cell_angle_alpha   108.28520956
_cell_angle_beta   89.99998775
_cell_angle_gamma   90.00006131
_symmetry_Int_Tables_number   1
_chemical_formula_structural   TbH5C4SN2O7
_chemical_formula_sum   'Tb4 H20 C16 S4 N8 O28'
_cell_volume   837.68738585
_cell_formula_units_Z   4
loop_
 _symmetry_equiv_pos_site_id
 _symmetry_equiv_pos_as_xyz
  1  'x, y, z'
loop_
 _atom_site_type_symbol
 _atom_site_label
 _atom_site_symmetry_multiplicity
 _atom_site_fract_x
 _atom_site_fract_y
 _atom_site_fract_z
 _atom_site_occupancy
 _atom_site_hle17_bader_spin_density
 _atom_site_hle17_ddec_charge
 _atom_site_hle17_ddec_spin_density
 _atom_site_hle17_ddec_sum_bond_order
 _atom_site_hle17_magmom
 _atom_site_hse06_10hf_bader_spin_density
 _atom_site_hse06_10hf_ddec_charge
 _atom_site_hse06_10hf_ddec_spin_density
 _atom_site_hse06_10hf_ddec_sum_bond_order
 _atom_site_hse06_10hf_magmom
 _atom_site_hse06_bader_spin_density
 _atom_site_hse06_ddec_charge
 _atom_site_hse06_ddec_spin_density
 _atom_site_hse06_ddec_sum_bond_order
 _atom_site_hse06_magmom
 _atom_site_pbe_bader_spin_density
 _atom_site_pbe_cm5_charge
 _atom_site_pbe_ddec_charge
 _atom_site_pbe_ddec_spin_density
 _atom_site_pbe_ddec_sum_bond_order
 _atom_site_pbe_magmom
Tb  Tb0  1  0.86382039  0.83990814  0.39318005  1  0  2.269712  0  1.662406  0  0  2.121537  0  2.129609  0  0  2.238192  0  1.955164  0  0  1.555481  2.08805  0  2.160353  0
Tb  Tb1  1  0.36382014  0.16009123  0.10681957  1  0  2.269716  0  1.662378  0  0  2.121552  0  2.129568  0  0  2.238206  0  1.955128  0  0  1.55548  2.088067  0  2.160312  0
Tb  Tb2  1  0.13618124  0.16009185  0.60681992  1  0  2.269703  0  1.662403  0  0  2.121543  0  2.129583  0  0  2.238186  0  1.955163  0  0  1.555479  2.088056  0  2.160331  0
Tb  Tb3  1  0.63617841  0.83990782  0.89318013  1  0  2.269737  0  1.66242  0  0  2.121587  0  2.129593  0  0  2.238223  0  1.955174  0  0  1.555483  2.088104  0  2.160342  0
H  H4  1  0.72107248  0.43638804  0.55925582  1  0  0.122464  0  0.963928  0  0  0.131948  0  1.025362  0  0  0.134996  0  1.022673  0  0  0.128649  0.129778  0  1.027125  0
H  H5  1  0.22107592  0.56361263  0.94074451  1  0  0.122464  0  0.963895  0  0  0.131943  0  1.025345  0  0  0.134987  0  1.022655  0  0  0.128646  0.129774  0  1.027107  0
H  H6  1  0.27892607  0.56361290  0.44074525  1  0  0.122456  0  0.96391  0  0  0.13194  0  1.025345  0  0  0.134985  0  1.022654  0  0  0.128643  0.129773  0  1.027101  0
H  H7  1  0.77892572  0.43638736  0.05925547  1  0  0.122474  0  0.963952  0  0  0.131955  0  1.025389  0  0  0.135  0  1.022698  0  0  0.128656  0.129785  0  1.027151  0
H  H8  1  0.77819288  0.48488442  0.23085248  1  0  0.094794  0  0.956046  0  0  0.101507  0  1.022987  0  0  0.104543  0  1.018709  0  0  0.137662  0.099462  0  1.025498  0
H  H9  1  0.27819013  0.51511489  0.26914796  1  0  0.094816  0  0.955982  0  0  0.101537  0  1.022898  0  0  0.104572  0  1.01862  0  0  0.137676  0.099452  0  1.025462  0
H  H10  1  0.22180875  0.51511463  0.76914722  1  0  0.094797  0  0.956058  0  0  0.101526  0  1.022976  0  0  0.104561  0  1.018699  0  0  0.137675  0.099473  0  1.025502  0
H  H11  1  0.72180842  0.48488416  0.73085257  1  0  0.094775  0  0.956069  0  0  0.101484  0  1.023012  0  0  0.104519  0  1.018736  0  0  0.137663  0.09944  0  1.025523  0
H  H12  1  0.72411489  0.33005026  0.34573791  1  0  0.329208  0  0.85307  0  0  0.311119  0  0.908216  0  0  0.318846  0  0.902468  0  0  0.339504  0.305594  0  0.912477  0
H  H13  1  0.22411710  0.66994902  0.15426253  1  0  0.329218  0  0.853059  0  0  0.31113  0  0.908203  0  0  0.318857  0  0.902456  0  0  0.339508  0.305608  0  0.912463  0
H  H14  1  0.27588366  0.66994973  0.65426289  1  0  0.329212  0  0.853052  0  0  0.311121  0  0.908199  0  0  0.318848  0  0.902453  0  0  0.339507  0.305599  0  0.91246  0
H  H15  1  0.77588454  0.33005003  0.84573718  1  0  0.329219  0  0.853045  0  0  0.311126  0  0.908195  0  0  0.318854  0  0.902447  0  0  0.339509  0.305604  0  0.912455  0
H  H16  1  0.04216796  0.91356778  0.19646312  1  0  0.452685  0  0.834835  0  0  0.422304  0  0.896378  0  0  0.432884  0  0.88111  0  0  0.310622  0.414884  0  0.907285  0
H  H17  1  0.54216687  0.08643231  0.30353676  1  0  0.452677  0  0.834849  0  0  0.422294  0  0.896395  0  0  0.432873  0  0.881128  0  0  0.310615  0.414872  0  0.907303  0
H  H18  1  0.95783367  0.08643220  0.80353686  1  0  0.452691  0  0.834828  0  0  0.422304  0  0.89638  0  0  0.432884  0  0.881111  0  0  0.31062  0.414885  0  0.907285  0
H  H19  1  0.45783323  0.91356767  0.69646322  1  0  0.452679  0  0.834845  0  0  0.422294  0  0.896396  0  0  0.432873  0  0.881129  0  0  0.310616  0.414872  0  0.907303  0
H  H20  1  0.06909265  0.03373470  0.31231625  1  0  0.455734  0  0.832392  0  0  0.424227  0  0.896115  0  0  0.435982  0  0.879045  0  0  0.309557  0.415951  0  0.90834  0
H  H21  1  0.56909322  0.96626541  0.18768362  1  0  0.455712  0  0.832421  0  0  0.42421  0  0.896135  0  0  0.435966  0  0.879065  0  0  0.309555  0.415936  0  0.908359  0
H  H22  1  0.93090745  0.96626622  0.68768317  1  0  0.455652  0  0.832514  0  0  0.424195  0  0.89617  0  0  0.43597  0  0.879078  0  0  0.309527  0.41592  0  0.908395  0
H  H23  1  0.43090688  0.03373458  0.81231636  1  0  0.455723  0  0.832404  0  0  0.42422  0  0.896121  0  0  0.435976  0  0.879051  0  0  0.309558  0.415946  0  0.908345  0
C  C24  1  0.73916534  0.48722463  0.49757863  1  0  0.040255  0  3.609554  0  0  -0.016124  0  3.879942  0  0  -0.008742  0  3.894679  0  0  0.028146  -0.020528  0  3.869088  0
C  C25  1  0.23916732  0.51277560  0.00242207  1  0  0.040251  0  3.609511  0  0  -0.016137  0  3.879903  0  0  -0.008748  0  3.894634  0  0  0.028151  -0.02054  0  3.869054  0
C  C26  1  0.26083322  0.51277630  0.50242161  1  0  0.040229  0  3.60959  0  0  -0.016149  0  3.879981  0  0  -0.008761  0  3.894713  0  0  0.028153  -0.020548  0  3.869123  0
C  C27  1  0.76083278  0.48722345  0.99757846  1  0  0.040213  0  3.609546  0  0  -0.016172  0  3.879931  0  0  -0.008784  0  3.894662  0  0  0.028127  -0.020574  0  3.869077  0
C  C28  1  0.77205550  0.51002926  0.32395888  1  0  0.264956  0  3.644219  0  0  0.204497  0  3.924963  0  0  0.218959  0  3.937094  0  0  0.159273  0.195361  0  3.917694  0
C  C29  1  0.27205582  0.48997005  0.17604074  1  0  0.265023  0  3.644052  0  0  0.204583  0  3.924757  0  0  0.219045  0  3.936887  0  0  0.159359  0.195474  0  3.917504  0
C  C30  1  0.22794614  0.48997073  0.67604109  1  0  0.264975  0  3.644212  0  0  0.2045  0  3.924962  0  0  0.218961  0  3.937095  0  0  0.159284  0.195366  0  3.917699  0
C  C31  1  0.72794427  0.51002900  0.82395897  1  0  0.265054  0  3.644166  0  0  0.204605  0  3.924904  0  0  0.219066  0  3.937036  0  0  0.15933  0.195471  0  3.917639  0
C  C32  1  0.76782048  0.61261224  0.50795775  1  0  -0.024605  0  3.822141  0  0  -0.019472  0  4.081624  0  0  -0.026579  0  4.105849  0  0  0.064462  -0.015071  0  4.067529  0
C  C33  1  0.26782203  0.38738751  0.99204231  1  0  -0.024624  0  3.822133  0  0  -0.019481  0  4.081602  0  0  -0.026589  0  4.105828  0  0  0.064452  -0.01508  0  4.067514  0
C  C34  1  0.23217961  0.38738869  0.49204249  1  0  -0.02458  0  3.822127  0  0  -0.019459  0  4.081618  0  0  -0.026566  0  4.105842  0  0  0.064448  -0.015064  0  4.067533  0
C  C35  1  0.73217806  0.61261153  0.00795739  1  0  -0.024636  0  3.822098  0  0  -0.019488  0  4.081557  0  0  -0.026596  0  4.105781  0  0  0.064442  -0.015081  0  4.067458  0
C  C36  1  0.77956152  0.72704870  0.60845148  1  0  0.715544  0  3.887568  0  0  0.664281  0  4.182815  0  0  0.701846  0  4.173434  0  0  0.233132  0.639058  0  4.191338  0
C  C37  1  0.27956136  0.27295107  0.89154858  1  0  0.715539  0  3.88756  0  0  0.664275  0  4.182805  0  0  0.701839  0  4.173425  0  0  0.233138  0.639052  0  4.191331  0
C  C38  1  0.22043857  0.27295223  0.39154876  1  0  0.715533  0  3.887555  0  0  0.664274  0  4.182797  0  0  0.701839  0  4.173417  0  0  0.233134  0.639051  0  4.191316  0
C  C39  1  0.72043719  0.72704798  0.10845112  1  0  0.715577  0  3.887558  0  0  0.664314  0  4.182797  0  0  0.701881  0  4.173413  0  0  0.233149  0.639088  0  4.191322  0
S  S40  1  0.32226141  0.83607486  0.46033591  1  0  1.652136  0  5.792987  0  0  1.53019  0  6.332369  0  0  1.587435  0  6.303615  0  0  0.586144  1.490291  0  6.35918  0
S  S41  1  0.82226056  0.16392542  0.03966316  1  0  1.652194  0  5.792896  0  0  1.530248  0  6.332279  0  0  1.587494  0  6.303525  0  0  0.586166  1.490348  0  6.359089  0
S  S42  1  0.67773869  0.16392513  0.53966325  1  0  1.652159  0  5.793008  0  0  1.530209  0  6.332392  0  0  1.587454  0  6.303634  0  0  0.586135  1.490309  0  6.359203  0
S  S43  1  0.17773799  0.83607457  0.96033599  1  0  1.652255  0  5.79285  0  0  1.530324  0  6.332211  0  0  1.587574  0  6.30345  0  0  0.586185  1.490425  0  6.359026  0
N  N44  1  0.74363180  0.42478591  0.38133953  1  0  -0.269914  0  3.428104  0  0  -0.203726  0  3.673489  0  0  -0.21993  0  3.686581  0  0  -0.36654  -0.192672  0  3.663675  0
N  N45  1  0.24363231  0.57521338  0.11866091  1  0  -0.270012  0  3.428057  0  0  -0.203829  0  3.673439  0  0  -0.220033  0  3.686529  0  0  -0.366621  -0.192775  0  3.663619  0
N  N46  1  0.25636829  0.57521409  0.61866127  1  0  -0.269904  0  3.428121  0  0  -0.203712  0  3.673512  0  0  -0.219913  0  3.6866  0  0  -0.366536  -0.19266  0  3.6637  0
N  N47  1  0.75636779  0.42478566  0.88133880  1  0  -0.269948  0  3.428085  0  0  -0.20376  0  3.673471  0  0  -0.219961  0  3.686558  0  0  -0.36655  -0.192708  0  3.663661  0
N  N48  1  0.78841116  0.62489743  0.39865191  1  0  -0.51451  0  3.266369  0  0  -0.467532  0  3.548908  0  0  -0.49257  0  3.568927  0  0  -0.431987  -0.456799  0  3.536463  0
N  N49  1  0.28841130  0.37510283  0.10134798  1  0  -0.514502  0  3.26639  0  0  -0.467538  0  3.548928  0  0  -0.492576  0  3.568946  0  0  -0.431991  -0.456802  0  3.53647  0
N  N50  1  0.21159048  0.37510256  0.60134807  1  0  -0.514538  0  3.26633  0  0  -0.46755  0  3.548874  0  0  -0.492586  0  3.568893  0  0  -0.432001  -0.456813  0  3.536429  0
N  N51  1  0.71158879  0.62489622  0.89865173  1  0  -0.514531  0  3.266361  0  0  -0.467568  0  3.54891  0  0  -0.492603  0  3.568928  0  0  -0.432003  -0.456837  0  3.536468  0
O  O52  1  0.72569195  0.72207429  0.70713136  1  0  -0.720944  0  2.031569  0  0  -0.670413  0  2.294613  0  0  -0.706491  0  2.280405  0  0  -0.404331  -0.652564  0  2.301581  0
O  O53  1  0.22569184  0.27792544  0.79286871  1  0  -0.720917  0  2.031544  0  0  -0.670373  0  2.294569  0  0  -0.706451  0  2.280363  0  0  -0.404332  -0.652522  0  2.301537  0
O  O54  1  0.27430814  0.27792570  0.29286862  1  0  -0.720929  0  2.031555  0  0  -0.670397  0  2.2946  0  0  -0.706478  0  2.280392  0  0  -0.404329  -0.652547  0  2.301561  0
O  O55  1  0.77430825  0.72207361  0.20713100  1  0  -0.720929  0  2.031528  0  0  -0.670402  0  2.294588  0  0  -0.706483  0  2.280379  0  0  -0.404325  -0.652551  0  2.301555  0
O  O56  1  0.84474167  0.82604455  0.58725149  1  0  -0.719522  0  2.041647  0  0  -0.661881  0  2.286271  0  0  -0.6962  0  2.272065  0  0  -0.36083  -0.644018  0  2.294487  0
O  O57  1  0.34474132  0.17395525  0.91274776  1  0  -0.719536  0  2.041627  0  0  -0.661903  0  2.286274  0  0  -0.696215  0  2.272064  0  0  -0.360838  -0.644038  0  2.29449  0
O  O58  1  0.15525842  0.17395543  0.41274766  1  0  -0.719523  0  2.041615  0  0  -0.661889  0  2.286271  0  0  -0.6962  0  2.272062  0  0  -0.360821  -0.644025  0  2.294483  0
O  O59  1  0.65525723  0.82604380  0.08725195  1  0  -0.719547  0  2.041636  0  0  -0.6619  0  2.286258  0  0  -0.696213  0  2.272045  0  0  -0.360842  -0.644037  0  2.294477  0
O  O60  1  0.50936077  0.86326041  0.40303220  1  0  -0.793239  0  2.021467  0  0  -0.739419  0  2.298475  0  0  -0.77095  0  2.275543  0  0  -0.425496  -0.724087  0  2.311579  0
O  O61  1  0.00936202  0.13673872  0.09696740  1  0  -0.793255  0  2.021405  0  0  -0.739438  0  2.29842  0  0  -0.77096  0  2.275462  0  0  -0.42552  -0.724106  0  2.311524  0
O  O62  1  0.49063778  0.13673863  0.59696751  1  0  -0.793258  0  2.021425  0  0  -0.739438  0  2.298438  0  0  -0.770965  0  2.275503  0  0  -0.425519  -0.724106  0  2.311543  0
O  O63  1  0.99063654  0.86326221  0.90303284  1  0  -0.793288  0  2.021437  0  0  -0.739484  0  2.298452  0  0  -0.771002  0  2.275491  0  0  -0.425537  -0.724151  0  2.31156  0
O  O64  1  0.37273204  0.80142657  0.56380740  1  0  -0.707701  0  1.964449  0  0  -0.648941  0  2.205688  0  0  -0.670554  0  2.190034  0  0  -0.316991  -0.633263  0  2.216382  0
O  O65  1  0.87273264  0.19857325  0.93619267  1  0  -0.707733  0  1.964483  0  0  -0.648966  0  2.205714  0  0  -0.670581  0  2.190057  0  0  -0.316998  -0.633288  0  2.216407  0
O  O66  1  0.62726805  0.19857342  0.43619257  1  0  -0.707719  0  1.9645  0  0  -0.648963  0  2.205743  0  0  -0.670579  0  2.19009  0  0  -0.316988  -0.633287  0  2.216435  0
O  O67  1  0.12726745  0.80142485  0.06380594  1  0  -0.7077  0  1.964425  0  0  -0.648964  0  2.205686  0  0  -0.670581  0  2.19003  0  0  -0.317005  -0.633285  0  2.216381  0
O  O68  1  0.19547134  0.73664825  0.37582363  1  0  -0.809921  0  1.944222  0  0  -0.761512  0  2.214537  0  0  -0.791281  0  2.196381  0  0  -0.411337  -0.746283  0  2.226265  0
O  O69  1  0.69547218  0.26335100  0.12417516  1  0  -0.809973  0  1.944218  0  0  -0.761558  0  2.214515  0  0  -0.791329  0  2.196363  0  0  -0.411366  -0.746329  0  2.226247  0
O  O70  1  0.80452875  0.26335173  0.62417552  1  0  -0.809912  0  1.94421  0  0  -0.761506  0  2.214523  0  0  -0.791273  0  2.196368  0  0  -0.411326  -0.746279  0  2.226255  0
O  O71  1  0.30452637  0.73664898  0.87582235  1  0  -0.809994  0  1.944167  0  0  -0.761571  0  2.214462  0  0  -0.791336  0  2.196301  0  0  -0.411343  -0.746339  0  2.226196  0
O  O72  1  0.18097351  0.94936091  0.49188525  1  0  -0.908995  0  2.150621  0  0  -0.843363  0  2.433385  0  0  -0.883126  0  2.416016  0  0  -0.481837  -0.826757  0  2.444959  0
O  O73  1  0.68097247  0.05063927  0.00811463  1  0  -0.908958  0  2.150556  0  0  -0.843333  0  2.433314  0  0  -0.883098  0  2.415946  0  0  -0.481793  -0.826733  0  2.444906  0
O  O74  1  0.81902658  0.05063907  0.50811473  1  0  -0.908978  0  2.150602  0  0  -0.843334  0  2.433365  0  0  -0.883097  0  2.415997  0  0  -0.481811  -0.826723  0  2.444926  0
O  O75  1  0.31902608  0.94935977  0.99188508  1  0  -0.908983  0  2.150567  0  0  -0.843356  0  2.43332  0  0  -0.883121  0  2.415949  0  0  -0.481802  -0.826752  0  2.444907  0
O  O76  1  0.99114742  0.95435790  0.27599044  1  0  -0.928146  0  1.856407  0  0  -0.879243  0  2.054992  0  0  -0.907283  0  2.014716  0  0  -0.653296  -0.866408  0  2.079077  0
O  O77  1  0.49114845  0.04564154  0.22400920  1  0  -0.928104  0  1.856422  0  0  -0.879207  0  2.054992  0  0  -0.907247  0  2.014719  0  0  -0.653292  -0.866371  0  2.079079  0
O  O78  1  0.00885267  0.04564208  0.72400954  1  0  -0.928059  0  1.856529  0  0  -0.879205  0  2.055046  0  0  -0.907265  0  2.014727  0  0  -0.653259  -0.86637  0  2.079131  0
O  O79  1  0.50885318  0.95435845  0.77599078  1  0  -0.928144  0  1.856433  0  0  -0.879246  0  2.055021  0  0  -0.907282  0  2.014747  0  0  -0.653307  -0.86641  0  2.079108  0
