# generated using pymatgen
data_LiH9C15(N2O)2
_symmetry_space_group_name_H-M   'P 1'
_cell_length_a   10.01967863
_cell_length_b   10.05984455
_cell_length_c   14.50817136
_cell_angle_alpha   90.00005233
_cell_angle_beta   90.00008616
_cell_angle_gamma   107.58979896
_symmetry_Int_Tables_number   1
_chemical_formula_structural   LiH9C15(N2O)2
_chemical_formula_sum   'Li4 H36 C60 N16 O8'
_cell_volume   1393.99764675
_cell_formula_units_Z   4
loop_
 _symmetry_equiv_pos_site_id
 _symmetry_equiv_pos_as_xyz
  1  'x, y, z'
loop_
 _atom_site_type_symbol
 _atom_site_label
 _atom_site_symmetry_multiplicity
 _atom_site_fract_x
 _atom_site_fract_y
 _atom_site_fract_z
 _atom_site_occupancy
 _atom_site_pbe_bader_spin_density
 _atom_site_pbe_cm5_charge
 _atom_site_pbe_ddec_charge
 _atom_site_pbe_ddec_spin_density
 _atom_site_pbe_ddec_sum_bond_order
 _atom_site_pbe_magmom
Li  Li0  1  0.72214440  0.33507541  0.84266560  1  0  0.54843  0.799372  0  0.54338  0
Li  Li1  1  0.27785648  0.16492244  0.34266502  1  0  0.548429  0.799365  0  0.543405  0
Li  Li2  1  0.27785782  0.66492530  0.15733445  1  0  0.548422  0.799361  0  0.543379  0
Li  Li3  1  0.72214343  0.83507722  0.65733503  1  0  0.548437  0.799372  0  0.543413  0
H  H4  1  0.95790389  0.31906811  0.62031034  1  0  0.110112  0.11064  0  1.026597  0
H  H5  1  0.04209340  0.18092613  0.12030814  1  0  0.110148  0.110674  0  1.026595  0
H  H6  1  0.04209638  0.68092947  0.37969109  1  0  0.110142  0.110671  0  1.026579  0
H  H7  1  0.95790655  0.81907041  0.87969122  1  0  0.110126  0.110644  0  1.026601  0
H  H8  1  0.09527932  0.33746645  0.47736080  1  0  0.104196  0.1052  0  1.023053  0
H  H9  1  0.90471768  0.16252752  0.97735870  1  0  0.10425  0.105279  0  1.022991  0
H  H10  1  0.90472195  0.66253113  0.52263994  1  0  0.1042  0.105204  0  1.023002  0
H  H11  1  0.09528128  0.83746902  0.02264135  1  0  0.10425  0.105293  0  1.022972  0
H  H12  1  0.72652847  0.30950292  0.31589625  1  0  0.099723  0.102978  0  1.010279  0
H  H13  1  0.27347060  0.19049904  0.81589420  1  0  0.099751  0.103058  0  1.010196  0
H  H14  1  0.27347144  0.69049674  0.68410518  1  0  0.099729  0.103011  0  1.010218  0
H  H15  1  0.72652926  0.80950375  0.18410585  1  0  0.099736  0.103035  0  1.0102  0
H  H16  1  0.58634332  0.28633006  0.45843929  1  0  0.099725  0.091544  0  1.053462  0
H  H17  1  0.41365485  0.21367117  0.95843878  1  0  0.099744  0.091604  0  1.053438  0
H  H18  1  0.41365790  0.71367065  0.54156214  1  0  0.099742  0.091568  0  1.053405  0
H  H19  1  0.58634275  0.78632746  0.04156058  1  0  0.099729  0.091568  0  1.05347  0
H  H20  1  0.98858886  0.23743050  0.26818669  1  0  0.101969  0.144964  0  1.013354  0
H  H21  1  0.01141008  0.26257137  0.76818649  1  0  0.10195  0.144923  0  1.013367  0
H  H22  1  0.01141268  0.76257126  0.73181267  1  0  0.101953  0.144927  0  1.013373  0
H  H23  1  0.98858883  0.73742830  0.23181287  1  0  0.101958  0.144933  0  1.013371  0
H  H24  1  0.11712540  0.38611799  0.31345802  1  0  0.098666  0.133267  0  1.021599  0
H  H25  1  0.88287399  0.11388502  0.81345518  1  0  0.098676  0.133276  0  1.021549  0
H  H26  1  0.88287447  0.61388481  0.68654272  1  0  0.098673  0.133278  0  1.021517  0
H  H27  1  0.11712592  0.88611465  0.18654418  1  0  0.09867  0.133267  0  1.02157  0
H  H28  1  0.97165532  0.40403685  0.24893552  1  0  0.097808  0.141784  0  1.00839  0
H  H29  1  0.02834188  0.09596602  0.74893385  1  0  0.097796  0.141779  0  1.008399  0
H  H30  1  0.02834422  0.59596491  0.75106591  1  0  0.097802  0.141775  0  1.008386  0
H  H31  1  0.97165735  0.90403469  0.25106620  1  0  0.097789  0.141739  0  1.008442  0
H  H32  1  0.98457764  0.46779164  0.89813659  1  0  0.299576  0.392422  0  0.940402  0
H  H33  1  0.01542303  0.03220842  0.39813634  1  0  0.299601  0.392463  0  0.940347  0
H  H34  1  0.01542458  0.53220907  0.10186346  1  0  0.299602  0.392439  0  0.940384  0
H  H35  1  0.98457656  0.96779020  0.60186440  1  0  0.299601  0.392451  0  0.940368  0
H  H36  1  0.86785394  0.46750818  0.97038823  1  0  0.299981  0.379751  0  0.956386  0
H  H37  1  0.13214594  0.03249204  0.47038879  1  0  0.299977  0.379747  0  0.956392  0
H  H38  1  0.13214892  0.53249462  0.02961114  1  0  0.299972  0.379739  0  0.956398  0
H  H39  1  0.86785397  0.96750763  0.52961126  1  0  0.299981  0.379752  0  0.956387  0
C  C40  1  0.68511165  0.29746684  0.63416238  1  0  0.176876  0.371035  0  3.997184  0
C  C41  1  0.31488858  0.20253369  0.13415979  1  0  0.176914  0.371019  0  3.99713  0
C  C42  1  0.31488957  0.70253387  0.36583698  1  0  0.176853  0.371005  0  3.997168  0
C  C43  1  0.68511133  0.79746598  0.86583819  1  0  0.176882  0.370984  0  3.997203  0
C  C44  1  0.52628299  0.26527415  0.62931743  1  0  0.036935  0.012605  0  3.970852  0
C  C45  1  0.47371687  0.23472845  0.12931503  1  0  0.036954  0.012634  0  3.97087  0
C  C46  1  0.47371923  0.73472656  0.37068331  1  0  0.036966  0.012638  0  3.970786  0
C  C47  1  0.52628236  0.76527226  0.87068502  1  0  0.036956  0.012679  0  3.970882  0
C  C48  1  0.47359113  0.37897999  0.63032584  1  0  -0.015404  -0.124214  0  4.179749  0
C  C49  1  0.52640841  0.12102158  0.13032342  1  0  -0.015389  -0.124306  0  4.179778  0
C  C50  1  0.52640978  0.62101968  0.36967421  1  0  -0.01539  -0.12428  0  4.179753  0
C  C51  1  0.47358950  0.87897809  0.86967594  1  0  -0.015394  -0.12434  0  4.179845  0
C  C52  1  0.44834755  0.12263861  0.62703932  1  0  -0.018847  -0.143647  0  4.165718  0
C  C53  1  0.55165199  0.37736295  0.12703709  1  0  -0.018808  -0.143513  0  4.165516  0
C  C54  1  0.55165468  0.87736210  0.37296211  1  0  -0.018857  -0.143565  0  4.165647  0
C  C55  1  0.44834792  0.62263672  0.87296227  1  0  -0.01882  -0.143579  0  4.165625  0
C  C56  1  0.51950477  0.02129370  0.63063179  1  0  0.205798  0.306555  0  4.068453  0
C  C57  1  0.48049346  0.47870682  0.13063092  1  0  0.205769  0.306467  0  4.068477  0
C  C58  1  0.48049577  0.97870806  0.36936827  1  0  0.205764  0.306463  0  4.068548  0
C  C59  1  0.51950545  0.52129285  0.86936637  1  0  0.205761  0.306506  0  4.068427  0
C  C60  1  0.30232691  0.07198413  0.61458142  1  0  0.209117  0.294724  0  4.039905  0
C  C61  1  0.69767127  0.42801636  0.11457800  1  0  0.20913  0.294678  0  4.03991  0
C  C62  1  0.69767168  0.92801450  0.38542001  1  0  0.209094  0.294662  0  4.039759  0
C  C63  1  0.30232664  0.57198331  0.88542205  1  0  0.209154  0.294642  0  4.040012  0
C  C64  1  0.33049678  0.36902912  0.64139608  1  0  0.179321  0.23957  0  4.068894  0
C  C65  1  0.66949917  0.13097038  0.14139657  1  0  0.179293  0.239542  0  4.068896  0
C  C66  1  0.66950644  0.63097159  0.35860398  1  0  0.179356  0.239634  0  4.068894  0
C  C67  1  0.33049843  0.86902825  0.85860348  1  0  0.179331  0.239581  0  4.068859  0
C  C68  1  0.56397455  0.51671036  0.62373723  1  0  0.210095  0.308577  0  4.058376  0
C  C69  1  0.43602602  0.98328687  0.12373426  1  0  0.210185  0.308771  0  4.058266  0
C  C70  1  0.43602867  0.48329034  0.37626282  1  0  0.210085  0.30862  0  4.058319  0
C  C71  1  0.56397258  0.01671175  0.87626580  1  0  0.210182  0.308761  0  4.058302  0
C  C72  1  0.76294096  0.30209976  0.54931369  1  0  -0.029813  -0.054441  0  4.04101  0
C  C73  1  0.23705704  0.19790058  0.04931377  1  0  -0.029797  -0.054373  0  4.040924  0
C  C74  1  0.23706059  0.69790199  0.45068705  1  0  -0.029813  -0.054493  0  4.040899  0
C  C75  1  0.76294355  0.80209804  0.95068490  1  0  -0.029792  -0.054421  0  4.040902  0
C  C76  1  0.90704317  0.31567762  0.55370302  1  0  -0.064823  -0.04741  0  3.917851  0
C  C77  1  0.09295358  0.18431857  0.05370226  1  0  -0.064881  -0.047453  0  3.917812  0
C  C78  1  0.09295543  0.68432101  0.44629772  1  0  -0.064876  -0.047465  0  3.917937  0
C  C79  1  0.90704670  0.81567902  0.94629779  1  0  -0.064849  -0.047363  0  3.917904  0
C  C80  1  0.98375242  0.32630534  0.47327321  1  0  -0.081787  -0.143985  0  3.933153  0
C  C81  1  0.01624516  0.17369384  0.97327227  1  0  -0.081803  -0.144071  0  3.933202  0
C  C82  1  0.01624849  0.67369433  0.52672684  1  0  -0.081746  -0.143892  0  3.933175  0
C  C83  1  0.98375543  0.82630478  0.02672640  1  0  -0.081805  -0.144089  0  3.933269  0
C  C84  1  0.92070928  0.32576062  0.38650622  1  0  0.022067  0.222089  0  3.906521  0
C  C85  1  0.07928606  0.17423837  0.88650603  1  0  0.022134  0.222155  0  3.906554  0
C  C86  1  0.07928964  0.67423905  0.61349383  1  0  0.022059  0.222002  0  3.906565  0
C  C87  1  0.92071417  0.82576234  0.11349402  1  0  0.022083  0.222059  0  3.906547  0
C  C88  1  0.77641861  0.31010716  0.38272758  1  0  -0.089808  -0.138689  0  3.944843  0
C  C89  1  0.22357635  0.18989392  0.88272617  1  0  -0.089904  -0.138862  0  3.944823  0
C  C90  1  0.22358062  0.68989356  0.61727316  1  0  -0.089804  -0.138682  0  3.944823  0
C  C91  1  0.77642189  0.81010680  0.11727250  1  0  -0.089854  -0.138781  0  3.944799  0
C  C92  1  0.69785347  0.29757858  0.46266180  1  0  -0.08089  -0.092329  0  3.987092  0
C  C93  1  0.30214372  0.20242267  0.96266186  1  0  -0.080902  -0.092376  0  3.987056  0
C  C94  1  0.30214576  0.70242214  0.53733963  1  0  -0.080911  -0.09233  0  3.987048  0
C  C95  1  0.69785620  0.79757700  0.03733750  1  0  -0.080897  -0.092353  0  3.987116  0
C  C96  1  0.00499498  0.34035349  0.30009996  1  0  -0.233036  -0.432444  0  3.932871  0
C  C97  1  0.99500206  0.15964844  0.80009726  1  0  -0.232999  -0.432352  0  3.932798  0
C  C98  1  0.99500557  0.65964826  0.69990078  1  0  -0.233022  -0.432383  0  3.932794  0
C  C99  1  0.00499686  0.84035123  0.19990141  1  0  -0.232996  -0.432316  0  3.932902  0
N  N100  1  0.63382955  0.63290555  0.61797365  1  0  -0.374925  -0.471692  0  2.88857  0
N  N101  1  0.36617186  0.86710107  0.11796916  1  0  -0.374959  -0.471765  0  2.888661  0
N  N102  1  0.36616931  0.36709725  0.38202778  1  0  -0.374892  -0.471689  0  2.8885  0
N  N103  1  0.63382569  0.13290069  0.88203090  1  0  -0.374988  -0.471779  0  2.888611  0
N  N104  1  0.21452931  0.36735753  0.65335962  1  0  -0.282888  -0.342099  0  2.810675  0
N  N105  1  0.78547071  0.13263886  0.15336368  1  0  -0.282866  -0.342074  0  2.810498  0
N  N106  1  0.78546960  0.63264214  0.34664112  1  0  -0.282925  -0.342136  0  2.810758  0
N  N107  1  0.21452625  0.86735768  0.84663706  1  0  -0.282896  -0.342103  0  2.810514  0
N  N108  1  0.18184373  0.02681595  0.60086218  1  0  -0.285069  -0.389109  0  2.917882  0
N  N109  1  0.81815441  0.47318450  0.10085891  1  0  -0.285123  -0.389127  0  2.917957  0
N  N110  1  0.81815980  0.97318580  0.39913994  1  0  -0.285075  -0.389113  0  2.917708  0
N  N111  1  0.18184613  0.52681725  0.89914252  1  0  -0.285118  -0.389058  0  2.918072  0
N  N112  1  0.58032227  0.93886913  0.63392956  1  0  -0.376721  -0.466636  0  2.896935  0
N  N113  1  0.41967955  0.56113543  0.13393044  1  0  -0.376673  -0.466567  0  2.897015  0
N  N114  1  0.41968058  0.06113367  0.36606980  1  0  -0.376673  -0.466567  0  2.897068  0
N  N115  1  0.58032199  0.43886632  0.86606617  1  0  -0.376706  -0.46662  0  2.896905  0
O  O116  1  0.74017241  0.31815646  0.71165874  1  0  -0.304203  -0.467598  0  2.204658  0
O  O117  1  0.25982809  0.18184111  0.21165678  1  0  -0.304218  -0.467577  0  2.20455  0
O  O118  1  0.25982881  0.68184425  0.28834337  1  0  -0.304162  -0.467538  0  2.204699  0
O  O119  1  0.74017146  0.81816065  0.78834258  1  0  -0.304204  -0.467545  0  2.204621  0
O  O120  1  0.88261124  0.44413036  0.90633398  1  0  -0.662272  -0.842887  0  1.956266  0
O  O121  1  0.11738941  0.05587285  0.40633523  1  0  -0.662283  -0.842899  0  1.956228  0
O  O122  1  0.11738994  0.55587349  0.09366469  1  0  -0.662283  -0.842876  0  1.956279  0
O  O123  1  0.88261018  0.94412577  0.59366482  1  0  -0.662298  -0.842924  0  1.956257  0
