# generated using pymatgen
data_ZnH12C22Br2N3O4
_symmetry_space_group_name_H-M   'P 1'
_cell_length_a   10.97781140
_cell_length_b   16.00998803
_cell_length_c   17.28122854
_cell_angle_alpha   86.71141758
_cell_angle_beta   91.18496763
_cell_angle_gamma   91.92433409
_symmetry_Int_Tables_number   1
_chemical_formula_structural   ZnH12C22Br2N3O4
_chemical_formula_sum   'Zn2 H24 C44 Br4 N6 O8'
_cell_volume   3030.00896799
_cell_formula_units_Z   2
loop_
 _symmetry_equiv_pos_site_id
 _symmetry_equiv_pos_as_xyz
  1  'x, y, z'
loop_
 _atom_site_type_symbol
 _atom_site_label
 _atom_site_symmetry_multiplicity
 _atom_site_fract_x
 _atom_site_fract_y
 _atom_site_fract_z
 _atom_site_occupancy
 _atom_site_pbe_bader_charge
 _atom_site_pbe_bader_spin_density
 _atom_site_pbe_cm5_charge
 _atom_site_pbe_ddec_charge
 _atom_site_pbe_ddec_spin_density
 _atom_site_pbe_ddec_sum_bond_order
 _atom_site_pbe_magmom
Zn  Zn0  1  0.50709514  0.58860806  0.49767303  1  1.31092  0  0.669089  0.845016  0  2.394881  0
Zn  Zn1  1  0.49287796  0.41143274  0.50223955  1  1.306036  0  0.668927  0.844686  0  2.396636  0
H  H2  1  0.73115639  0.14873848  0.67129171  1  0.043114  0  0.093559  0.090592  0  1.001751  0
H  H3  1  0.31727213  0.71000954  0.28445590  1  0.06606  0  0.098144  0.095902  0  1.005089  0
H  H4  1  0.77505846  0.41735274  0.65119015  1  0.089734  0  0.103575  0.107604  0  0.991043  0
H  H5  1  0.22511403  0.58241186  0.34899209  1  0.091026  0  0.103585  0.107356  0  0.991646  0
H  H6  1  0.96505142  0.26703354  0.49699951  1  0.059926  0  0.097854  0.099871  0  1.003075  0
H  H7  1  0.03480437  0.73297486  0.50280761  1  0.062077  0  0.098066  0.100148  0  1.003303  0
H  H8  1  0.87252220  0.13821581  0.56123489  1  0.045353  0  0.092031  0.088631  0  1.008783  0
H  H9  1  0.12740985  0.86171268  0.43845968  1  0.047259  0  0.091555  0.088268  0  1.008716  0
H  H10  1  0.11528273  0.37828693  0.55065203  1  0.1096  0  0.095566  0.099837  0  1.041735  0
H  H11  1  0.88469726  0.62166462  0.44938919  1  0.095376  0  0.095639  0.099952  0  1.041642  0
H  H12  1  0.54871714  0.63059094  0.75156499  1  0.103914  0  0.104302  0.109342  0  0.99696  0
H  H13  1  0.26900267  0.85101439  0.32853752  1  0.049256  0  0.093916  0.091107  0  1.002008  0
H  H14  1  0.45268368  0.36936360  0.24838782  1  0.099474  0  0.104599  0.109531  0  0.996479  0
H  H15  1  0.54456844  0.61582991  0.89741457  1  0.089044  0  0.104569  0.104656  0  1.018237  0
H  H16  1  0.45822801  0.38395511  0.10253081  1  0.110921  0  0.104946  0.10559  0  1.017248  0
H  H17  1  0.52957940  0.64847775  0.11343692  1  0.086307  0  0.105207  0.107145  0  0.996074  0
H  H18  1  0.47356383  0.35133538  0.88648763  1  0.086267  0  0.105323  0.107418  0  0.996086  0
H  H19  1  0.52288871  0.63357663  0.25967108  1  0.103459  0  0.092549  0.091831  0  1.052815  0
H  H20  1  0.47873762  0.36639422  0.74023132  1  0.084199  0  0.092936  0.092111  0  1.051843  0
H  H21  1  0.60876275  0.90540053  0.41491145  1  0.140815  0  0.118324  0.139395  0  1.005338  0
H  H22  1  0.39125112  0.09465236  0.58505088  1  0.141936  0  0.118418  0.13913  0  1.005426  0
H  H23  1  0.64383258  0.29994392  0.43098849  1  0.185634  0  0.135078  0.129287  0  0.975377  0
H  H24  1  0.35601411  0.70013878  0.56889278  1  0.185303  0  0.135059  0.129001  0  0.975407  0
H  H25  1  0.68306479  0.28965189  0.71564232  1  0.066591  0  0.098122  0.095494  0  1.005194  0
C  C26  1  0.48820539  0.49190070  0.34891069  1  1.576508  0  0.212231  0.589127  0  4.169232  0
C  C27  1  0.53223050  0.56987176  0.78195339  1  -0.095914  0  -0.081688  -0.082364  0  3.977804  0
C  C28  1  0.47279677  0.43784444  0.13768721  1  -0.020893  0  -0.084865  -0.141176  0  3.951132  0
C  C29  1  0.52983196  0.56195728  0.86225305  1  0.012914  0  -0.084408  -0.140911  0  3.951442  0
C  C30  1  0.49578658  0.51711257  0.10021846  1  0.327034  0  0.086231  0.171179  0  4.045902  0
C  C31  1  0.50727977  0.48265965  0.89973483  1  0.326963  0  0.08679  0.173072  0  4.04358  0
C  C32  1  0.51261223  0.58788627  0.14412010  1  -0.000388  0  -0.082432  -0.140212  0  3.962759  0
C  C33  1  0.49023409  0.41193289  0.85580903  1  -0.006303  0  -0.082837  -0.141388  0  3.963061  0
C  C34  1  0.50885945  0.57961287  0.22453194  1  -0.093028  0  -0.088536  -0.090294  0  3.988622  0
C  C35  1  0.49309983  0.42031764  0.77539031  1  -0.069695  0  -0.088091  -0.089443  0  3.987192  0
C  C36  1  0.43952649  0.22471071  0.55480997  1  0.530191  0  0.123214  0.245728  0  3.981013  0
C  C37  1  0.51230761  0.50817893  0.65100615  1  1.574379  0  0.211665  0.58801  0  4.170196  0
C  C38  1  0.56043876  0.77534060  0.44514198  1  0.452633  0  0.123242  0.245803  0  3.981867  0
C  C39  1  0.44718754  0.13879916  0.54986957  1  0.042893  0  -0.075969  -0.227407  0  3.926468  0
C  C40  1  0.55279601  0.86125877  0.45008320  1  0.119849  0  -0.075848  -0.228007  0  3.926837  0
C  C41  1  0.73601579  0.50008841  0.49875509  1  1.547659  0  0.216524  0.60056  0  4.16374  0
C  C42  1  0.26394558  0.49987086  0.50121046  1  1.547577  0  0.216403  0.600537  0  4.163535  0
C  C43  1  0.53012445  0.10900407  0.49829822  1  0.394949  0  0.103719  0.167301  0  4.024034  0
C  C44  1  0.46983960  0.89105346  0.50164297  1  0.394496  0  0.103768  0.167379  0  4.025498  0
C  C45  1  0.60401904  0.16718055  0.45507846  1  -0.077953  0  -0.001212  0.003713  0  3.917778  0
C  C46  1  0.39590667  0.83288872  0.54482734  1  -0.076965  0  -0.000992  0.004519  0  3.918112  0
C  C47  1  0.58937964  0.25227606  0.46337409  1  0.538064  0  0.066122  0.086283  0  3.856018  0
C  C48  1  0.12757205  0.50180769  0.49690823  1  0.00873  0  -0.010833  -0.058204  0  3.926054  0
C  C49  1  0.41051149  0.74778877  0.53653423  1  0.540391  0  0.065978  0.086218  0  3.856089  0
C  C50  1  0.74475131  0.28404827  0.66766521  1  -0.06019  0  -0.097974  -0.081039  0  4.02867  0
C  C51  1  0.25545101  0.71569742  0.33233171  1  -0.117234  0  -0.097425  -0.080212  0  4.027727  0
C  C52  1  0.79661633  0.35623943  0.63133497  1  -0.053557  0  -0.086933  -0.109685  0  3.949737  0
C  C53  1  0.20346869  0.64358155  0.36871336  1  0.002354  0  -0.086973  -0.109729  0  3.950521  0
C  C54  1  0.87657968  0.35115723  0.56952706  1  0.043388  0  -0.005598  0.079943  0  3.993033  0
C  C55  1  0.12341256  0.64875637  0.43047569  1  0.043481  0  -0.005539  0.080062  0  3.993577  0
C  C56  1  0.90378487  0.27172408  0.54536513  1  -0.097938  0  -0.098583  -0.143656  0  3.992553  0
C  C57  1  0.09614179  0.72820692  0.45451335  1  -0.10074  0  -0.098835  -0.14385  0  3.994047  0
C  C58  1  0.85122184  0.19932937  0.58138029  1  -0.042445  0  -0.1075  -0.098638  0  4.080317  0
C  C59  1  0.87237377  0.49812878  0.50312104  1  0.010289  0  -0.010647  -0.057927  0  3.926431  0
C  C60  1  0.14875849  0.80054633  0.41841671  1  -0.041622  0  -0.107339  -0.098988  0  4.081175  0
C  C61  1  0.77164030  0.20524787  0.64275138  1  -0.060618  0  -0.106832  -0.104898  0  4.055525  0
C  C62  1  0.22849030  0.79453950  0.35712343  1  -0.070154  0  -0.107217  -0.105729  0  4.055819  0
C  C63  1  0.06305416  0.43113141  0.52757429  1  -0.073299  0  -0.084288  -0.137918  0  3.948895  0
C  C64  1  0.93691233  0.56881612  0.47247350  1  -0.0607  0  -0.084438  -0.138196  0  3.949296  0
C  C65  1  0.06407780  0.57259232  0.46788506  1  0.015092  0  0.000548  0.054387  0  3.964722  0
C  C66  1  0.93587569  0.42735182  0.53215537  1  0.010565  0  0.000499  0.054243  0  3.964508  0
C  C67  1  0.48827293  0.50063756  0.26212058  1  -0.013797  0  -0.012643  -0.018576  0  3.938375  0
C  C68  1  0.51321041  0.49934362  0.73781236  1  0.006201  0  -0.013218  -0.019004  0  3.938663  0
C  C69  1  0.46959848  0.43005680  0.21797000  1  -0.06387  0  -0.081842  -0.082521  0  3.976601  0
Br  Br70  1  0.67230388  0.73548774  0.37527991  1  0.018899  0  0.096174  0.005185  0  1.424332  0
Br  Br71  1  0.32771769  0.26457097  0.62472495  1  0.018209  0  0.096055  0.005098  0  1.423029  0
Br  Br72  1  0.71733565  0.13298647  0.38371666  1  0.004249  0  0.06155  -0.022846  0  1.368644  0
Br  Br73  1  0.28257860  0.86714950  0.61615604  1  0.004634  0  0.061526  -0.023128  0  1.368692  0
N  N74  1  0.50366460  0.53247267  0.01918810  1  -0.506555  0  -0.151705  -0.141041  0  3.287577  0
N  N75  1  0.49966107  0.46726339  0.98079054  1  -0.470963  0  -0.151782  -0.141838  0  3.286514  0
N  N76  1  0.50758522  0.28032578  0.51200621  1  -1.215234  0  -0.30282  -0.216007  0  3.460163  0
N  N77  1  0.49231643  0.71973677  0.48791902  1  -1.215969  0  -0.302669  -0.215866  0  3.45988  0
N  N78  1  0.54652805  0.02276120  0.49159844  1  -0.424654  0  -0.12376  -0.084316  0  3.233698  0
N  N79  1  0.45346130  0.97728932  0.50833679  1  -0.474312  0  -0.123362  -0.084079  0  3.234445  0
O  O80  1  0.49070489  0.56006566  0.38394685  1  -1.178368  0  -0.321784  -0.572414  0  2.395932  0
O  O81  1  0.50932032  0.44000681  0.61593341  1  -1.180425  0  -0.321585  -0.572247  0  2.396335  0
O  O82  1  0.48619053  0.41836388  0.38097118  1  -1.175576  0  -0.31909  -0.540864  0  2.292534  0
O  O83  1  0.51405686  0.58172304  0.61899072  1  -1.174701  0  -0.318779  -0.540252  0  2.292328  0
O  O84  1  0.68941854  0.57145012  0.50313406  1  -1.159945  0  -0.322552  -0.553895  0  2.363798  0
O  O85  1  0.31049793  0.42850443  0.49670321  1  -1.159193  0  -0.322439  -0.553949  0  2.362551  0
O  O86  1  0.67752436  0.43147385  0.48924007  1  -1.169201  0  -0.309696  -0.547365  0  2.384139  0
O  O87  1  0.32247421  0.56844677  0.51078952  1  -1.169793  0  -0.309617  -0.547165  0  2.384261  0
