# generated using pymatgen
data_Ag2H11C14(NO2)3
_symmetry_space_group_name_H-M   'P 1'
_cell_length_a   6.79886372
_cell_length_b   10.26835742
_cell_length_c   11.15377167
_cell_angle_alpha   93.96109152
_cell_angle_beta   97.95986364
_cell_angle_gamma   96.72509489
_symmetry_Int_Tables_number   1
_chemical_formula_structural   Ag2H11C14(NO2)3
_chemical_formula_sum   'Ag4 H22 C28 N6 O12'
_cell_volume   762.98621885
_cell_formula_units_Z   2
loop_
 _symmetry_equiv_pos_site_id
 _symmetry_equiv_pos_as_xyz
  1  'x, y, z'
loop_
 _atom_site_type_symbol
 _atom_site_label
 _atom_site_symmetry_multiplicity
 _atom_site_fract_x
 _atom_site_fract_y
 _atom_site_fract_z
 _atom_site_occupancy
 _atom_site_hle17_bader_spin_density
 _atom_site_hle17_ddec_charge
 _atom_site_hle17_ddec_spin_density
 _atom_site_hle17_ddec_sum_bond_order
 _atom_site_hle17_magmom
 _atom_site_hse06_10hf_bader_spin_density
 _atom_site_hse06_10hf_ddec_charge
 _atom_site_hse06_10hf_ddec_spin_density
 _atom_site_hse06_10hf_ddec_sum_bond_order
 _atom_site_hse06_10hf_magmom
 _atom_site_hse06_bader_spin_density
 _atom_site_hse06_ddec_charge
 _atom_site_hse06_ddec_spin_density
 _atom_site_hse06_ddec_sum_bond_order
 _atom_site_hse06_magmom
 _atom_site_pbe_bader_spin_density
 _atom_site_pbe_cm5_charge
 _atom_site_pbe_ddec_charge
 _atom_site_pbe_ddec_spin_density
 _atom_site_pbe_ddec_sum_bond_order
 _atom_site_pbe_magmom
Ag  Ag0  1  0.94723595  0.87758042  0.54331678  1  0  0.516109  0  1.544042  0  0  0.3841  0  2.04524  0  0  0.421283  0  1.974194  0  0  0.407386  0.357953  0  2.094561  0
Ag  Ag1  1  0.05276562  0.12242430  0.45667978  1  0  0.516107  0  1.544023  0  0  0.3841  0  2.045237  0  0  0.421294  0  1.974176  0  0  0.407386  0.357947  0  2.094552  0
Ag  Ag2  1  0.63411738  0.16600261  0.54951244  1  0  0.621635  0  1.315292  0  0  0.486576  0  1.754234  0  0  0.519267  0  1.701918  0  0  0.459952  0.462264  0  1.791478  0
Ag  Ag3  1  0.36588586  0.83399618  0.45049106  1  0  0.621673  0  1.315231  0  0  0.486602  0  1.754167  0  0  0.519294  0  1.701853  0  0  0.459965  0.462292  0  1.791415  0
H  H4  1  0.87532307  0.01939358  0.94806251  1  0  0.099522  0  0.950737  0  0  0.108024  0  1.015436  0  0  0.111098  0  1.013051  0  0  0.108032  0.105764  0  1.017248  0
H  H5  1  0.12467251  0.98060421  0.05194200  1  0  0.099533  0  0.950702  0  0  0.10802  0  1.015418  0  0  0.111093  0  1.013035  0  0  0.108034  0.105758  0  1.01723  0
H  H6  1  0.82842317  0.18573636  0.11225336  1  0  0.113577  0  0.937924  0  0  0.124318  0  0.993975  0  0  0.128105  0  0.992138  0  0  0.109502  0.121559  0  0.995471  0
H  H7  1  0.17156985  0.81426339  0.88774925  1  0  0.113566  0  0.937913  0  0  0.124319  0  0.99396  0  0  0.128109  0  0.992125  0  0  0.109491  0.121567  0  0.995443  0
H  H8  1  0.52325788  0.30638065  0.08189050  1  0  0.111537  0  0.959885  0  0  0.119036  0  1.023878  0  0  0.122498  0  1.02115  0  0  0.11335  0.116444  0  1.02596  0
H  H9  1  0.47673693  0.69362011  0.91810786  1  0  0.111563  0  0.959859  0  0  0.11904  0  1.023879  0  0  0.122504  0  1.021145  0  0  0.113362  0.11645  0  1.025961  0
H  H10  1  0.56241218  0.34442488  0.75416110  1  0  0.118691  0  0.978673  0  0  0.134974  0  1.048715  0  0  0.135564  0  1.050047  0  0  0.091332  0.134559  0  1.047684  0
H  H11  1  0.43759567  0.65557490  0.24584379  1  0  0.118666  0  0.978631  0  0  0.134961  0  1.048671  0  0  0.135548  0  1.050008  0  0  0.09133  0.134546  0  1.047643  0
H  H12  1  0.73881295  0.47059088  0.84166420  1  0  0.141276  0  0.93169  0  0  0.163363  0  0.984264  0  0  0.165005  0  0.98361  0  0  0.100663  0.162253  0  0.984623  0
H  H13  1  0.26119518  0.52940990  0.15833720  1  0  0.141288  0  0.931694  0  0  0.163382  0  0.98427  0  0  0.16502  0  0.983612  0  0  0.100675  0.162272  0  0.984629  0
H  H14  1  0.81855185  0.32236844  0.78491794  1  0  0.134158  0  0.978613  0  0  0.147043  0  1.053707  0  0  0.149143  0  1.052042  0  0  0.095735  0.145561  0  1.054884  0
H  H15  1  0.18145670  0.67763432  0.21508183  1  0  0.134108  0  0.978688  0  0  0.147036  0  1.05375  0  0  0.149138  0  1.052082  0  0  0.095745  0.145552  0  1.05493  0
H  H16  1  0.84844612  0.65317928  0.73353890  1  0  0.115714  0  0.937534  0  0  0.12471  0  0.995933  0  0  0.127858  0  0.9939  0  0  0.125747  0.122783  0  0.997205  0
H  H17  1  0.15155574  0.34681953  0.26645999  1  0  0.115708  0  0.937534  0  0  0.124717  0  0.995918  0  0  0.127865  0  0.993884  0  0  0.125747  0.122792  0  0.99719  0
H  H18  1  0.80439734  0.61645500  0.35891225  1  0  0.105409  0  0.932334  0  0  0.113782  0  0.994434  0  0  0.116321  0  0.993348  0  0  0.119558  0.112304  0  0.99492  0
H  H19  1  0.19560615  0.38354479  0.64108865  1  0  0.105385  0  0.932394  0  0  0.113782  0  0.994464  0  0  0.116342  0  0.993355  0  0  0.119564  0.112301  0  0.994952  0
H  H20  1  0.75967110  0.26467945  0.32299183  1  0  0.133924  0  0.969315  0  0  0.1513  0  1.040996  0  0  0.153418  0  1.039173  0  0  0.097121  0.149873  0  1.042076  0
H  H21  1  0.24032944  0.73532034  0.67700789  1  0  0.133892  0  0.969294  0  0  0.151254  0  1.040995  0  0  0.153372  0  1.039172  0  0  0.097099  0.149828  0  1.042075  0
H  H22  1  0.71217201  0.40771155  0.24603374  1  0  0.124854  0  0.937307  0  0  0.148555  0  0.990712  0  0  0.149526  0  0.991168  0  0  0.098749  0.147949  0  0.990335  0
H  H23  1  0.28783148  0.59228824  0.75396716  1  0  0.124886  0  0.937303  0  0  0.148592  0  0.99069  0  0  0.149563  0  0.991149  0  0  0.098757  0.147988  0  0.990314  0
H  H24  1  0.51679722  0.31027944  0.30418893  1  0  0.14224  0  0.966127  0  0  0.161218  0  1.028614  0  0  0.162759  0  1.028966  0  0  0.101585  0.160023  0  1.028456  0
H  H25  1  0.48320190  0.68972035  0.69580798  1  0  0.142232  0  0.966195  0  0  0.161209  0  1.028673  0  0  0.162752  0  1.029025  0  0  0.101588  0.160013  0  1.028516  0
C  C26  1  0.60758791  0.04302642  0.83230858  1  0  -0.075596  0  3.705985  0  0  -0.058583  0  3.940491  0  0  -0.066371  0  3.961952  0  0  -0.010434  -0.053879  0  3.926544  0
C  C27  1  0.39240817  0.95697336  0.16769073  1  0  -0.075333  0  3.705852  0  0  -0.058402  0  3.940438  0  0  -0.066135  0  3.961828  0  0  -0.01036  -0.053725  0  3.926524  0
C  C28  1  0.74529445  0.07238259  0.93902233  1  0  -0.016169  0  3.680412  0  0  -0.052164  0  3.9458  0  0  -0.049277  0  3.963691  0  0  -0.064948  -0.053773  0  3.93382  0
C  C29  1  0.25470324  0.92761816  0.06097988  1  0  -0.016354  0  3.680402  0  0  -0.05231  0  3.94583  0  0  -0.049438  0  3.963707  0  0  -0.064995  -0.053912  0  3.933861  0
C  C30  1  0.71963452  0.16657944  0.02976335  1  0  -0.04849  0  3.703027  0  0  -0.065338  0  3.964367  0  0  -0.068907  0  3.983163  0  0  -0.080537  -0.063374  0  3.951799  0
C  C31  1  0.28036004  0.83342033  0.97023761  1  0  -0.048452  0  3.703025  0  0  -0.065332  0  3.964376  0  0  -0.068908  0  3.983182  0  0  -0.080529  -0.063365  0  3.951815  0
C  C32  1  0.55174413  0.23228230  0.01444732  1  0  -0.067904  0  3.70243  0  0  -0.097552  0  3.962468  0  0  -0.094864  0  3.979666  0  0  -0.071027  -0.098802  0  3.950518  0
C  C33  1  0.44825210  0.76771845  0.98555386  1  0  -0.067854  0  3.702422  0  0  -0.097481  0  3.962434  0  0  -0.094795  0  3.979638  0  0  -0.07099  -0.098728  0  3.950479  0
C  C34  1  0.40965860  0.19844136  0.91085278  1  0  0.047278  0  3.701287  0  0  0.029191  0  3.950126  0  0  0.024726  0  3.972083  0  0  0.078546  0.032104  0  3.935208  0
C  C35  1  0.59033871  0.80155742  0.08914927  1  0  0.047164  0  3.70124  0  0  0.029144  0  3.949987  0  0  0.024679  0  3.971942  0  0  0.078512  0.032055  0  3.935072  0
C  C36  1  0.43155193  0.10332435  0.81845616  1  0  -0.078926  0  3.690872  0  0  -0.072262  0  3.929631  0  0  -0.072313  0  3.946153  0  0  0.004451  -0.072356  0  3.918478  0
C  C37  1  0.56844391  0.89667443  0.18154486  1  0  -0.07889  0  3.690766  0  0  -0.072213  0  3.929531  0  0  -0.072279  0  3.94604  0  0  0.004449  -0.072288  0  3.918366  0
C  C38  1  0.27777200  0.06846942  0.70664336  1  0  0.655168  0  3.958548  0  0  0.593224  0  4.256861  0  0  0.629829  0  4.250172  0  0  0.201737  0.56832  0  4.26038  0
C  C39  1  0.72222725  0.93153134  0.29335631  1  0  0.655071  0  3.958671  0  0  0.5931  0  4.257023  0  0  0.629702  0  4.250339  0  0  0.20171  0.568193  0  4.260542  0
C  C40  1  0.65773375  0.94660932  0.73621479  1  0  0.649585  0  3.89717  0  0  0.601188  0  4.180706  0  0  0.634854  0  4.176705  0  0  0.202901  0.578187  0  4.182513  0
C  C41  1  0.34226661  0.05338948  0.26378485  1  0  0.64949  0  3.897264  0  0  0.601125  0  4.180787  0  0  0.634776  0  4.176781  0  0  0.20284  0.578132  0  4.182597  0
C  C42  1  0.71566494  0.39570296  0.76433633  1  0  -0.40227  0  3.721791  0  0  -0.482788  0  3.954792  0  0  -0.48689  0  3.964366  0  0  -0.24841  -0.47945  0  3.947825  0
C  C43  1  0.28434003  0.60429683  0.23566471  1  0  -0.402286  0  3.721851  0  0  -0.482865  0  3.95486  0  0  -0.486955  0  3.964425  0  0  -0.248456  -0.479524  0  3.947903  0
C  C44  1  0.74765317  0.45499446  0.64963684  1  0  0.278948  0  3.724724  0  0  0.288799  0  3.964409  0  0  0.295214  0  3.986491  0  0  0.124957  0.284069  0  3.949574  0
C  C45  1  0.25234734  0.54500532  0.35036378  1  0  0.279043  0  3.724664  0  0  0.288856  0  3.964382  0  0  0.295271  0  3.986462  0  0  0.124981  0.284125  0  3.94955  0
C  C46  1  0.81539102  0.58899928  0.64939903  1  0  0.004401  0  3.646312  0  0  -0.029878  0  3.898068  0  0  -0.030712  0  3.91644  0  0  0.047631  -0.029654  0  3.885629  0
C  C47  1  0.18460972  0.41100149  0.35059988  1  0  0.004388  0  3.646245  0  0  -0.029886  0  3.898013  0  0  -0.030722  0  3.91639  0  0  0.047625  -0.029664  0  3.885573  0
C  C48  1  0.79010454  0.56873952  0.44213947  1  0  0.006833  0  3.644881  0  0  -0.031474  0  3.907189  0  0  -0.031968  0  3.926301  0  0  0.041027  -0.031365  0  3.893834  0
C  C49  1  0.20989727  0.43125928  0.55786121  1  0  0.006757  0  3.644926  0  0  -0.031561  0  3.907243  0  0  -0.032071  0  3.926352  0  0  0.041024  -0.031444  0  3.893882  0
C  C50  1  0.72554043  0.43374005  0.43844134  1  0  0.275798  0  3.73954  0  0  0.279113  0  3.990745  0  0  0.285876  0  4.012963  0  0  0.121957  0.274586  0  3.975457  0
C  C51  1  0.27445733  0.56626072  0.56155819  1  0  0.275934  0  3.739562  0  0  0.279231  0  3.990757  0  0  0.285992  0  4.012984  0  0  0.121995  0.274699  0  3.975475  0
C  C52  1  0.67649359  0.35035534  0.32137261  1  0  -0.401274  0  3.705015  0  0  -0.483945  0  3.939067  0  0  -0.488413  0  3.948922  0  0  -0.246645  -0.480296  0  3.931751  0
C  C53  1  0.32350530  0.64964346  0.67862600  1  0  -0.401318  0  3.705124  0  0  -0.483982  0  3.939213  0  0  -0.488452  0  3.949068  0  0  -0.246643  -0.480332  0  3.931903  0
N  N54  1  0.70768184  0.37773248  0.54337821  1  0  -0.378141  0  3.233178  0  0  -0.301684  0  3.503348  0  0  -0.32133  0  3.519169  0  0  -0.325268  -0.288037  0  3.492548  0
N  N55  1  0.29231401  0.62226631  0.45662281  1  0  -0.378228  0  3.233144  0  0  -0.301717  0  3.503276  0  0  -0.321362  0  3.519097  0  0  -0.325295  -0.288075  0  3.492483  0
N  N56  1  0.83781093  0.64511759  0.54661389  1  0  -0.216114  0  3.252975  0  0  -0.151753  0  3.536747  0  0  -0.161369  0  3.55053  0  0  -0.309149  -0.144443  0  3.526985  0
N  N57  1  0.16219072  0.35488023  0.45338581  1  0  -0.216049  0  3.252922  0  0  -0.151715  0  3.536736  0  0  -0.161333  0  3.550528  0  0  -0.309149  -0.144403  0  3.526965  0
N  N58  1  0.23338405  0.26751250  0.89948199  1  0  0.479727  0  3.933736  0  0  0.531928  0  4.192309  0  0  0.554261  0  4.198647  0  0  0.053365  0.516475  0  4.188906  0
N  N59  1  0.76661504  0.73248730  0.10051581  1  0  0.479699  0  3.933673  0  0  0.531865  0  4.192275  0  0  0.554195  0  4.19861  0  0  0.053337  0.516403  0  4.188884  0
O  O60  1  0.73834174  0.84981844  0.77045519  1  0  -0.588592  0  1.915952  0  0  -0.540474  0  2.137944  0  0  -0.566153  0  2.13167  0  0  -0.311037  -0.521866  0  2.14122  0
O  O61  1  0.26165729  0.15018134  0.22954529  1  0  -0.588642  0  1.916005  0  0  -0.540521  0  2.137977  0  0  -0.566202  0  2.131709  0  0  -0.311057  -0.521911  0  2.141248  0
O  O62  1  0.61715864  0.97090168  0.62287317  1  0  -0.681236  0  2.164935  0  0  -0.583029  0  2.452186  0  0  -0.617244  0  2.436323  0  0  -0.350939  -0.55851  0  2.462174  0
O  O63  1  0.38284176  0.02909713  0.37712469  1  0  -0.681214  0  2.16499  0  0  -0.583007  0  2.452221  0  0  -0.617222  0  2.436366  0  0  -0.350904  -0.558469  0  2.462157  0
O  O64  1  0.17845794  0.95519766  0.69846459  1  0  -0.583183  0  2.116311  0  0  -0.506757  0  2.387724  0  0  -0.540672  0  2.377664  0  0  -0.309261  -0.483126  0  2.39371  0
O  O65  1  0.82153536  0.04480310  0.30153453  1  0  -0.583147  0  2.116366  0  0  -0.50671  0  2.387782  0  0  -0.540631  0  2.377744  0  0  -0.309231  -0.483076  0  2.393762  0
O  O66  1  0.26870595  0.15498513  0.63064386  1  0  -0.623904  0  2.165863  0  0  -0.548474  0  2.45346  0  0  -0.582043  0  2.440906  0  0  -0.322457  -0.524478  0  2.460606  0
O  O67  1  0.73129902  0.84501466  0.36935718  1  0  -0.623922  0  2.165939  0  0  -0.548456  0  2.453517  0  0  -0.582023  0  2.44096  0  0  -0.322475  -0.524462  0  2.460669  0
O  O68  1  0.07770248  0.21028759  0.83644874  1  0  -0.350706  0  1.823919  0  0  -0.32713  0  2.021265  0  0  -0.340547  0  2.018121  0  0  -0.112359  -0.318669  0  2.024224  0
O  O69  1  0.92229827  0.78971319  0.16355018  1  0  -0.350703  0  1.823811  0  0  -0.327131  0  2.021172  0  0  -0.340558  0  2.018052  0  0  -0.112388  -0.318664  0  2.024133  0
O  O70  1  0.24769798  0.38029045  0.95139845  1  0  -0.36386  0  1.71068  0  0  -0.357147  0  1.890399  0  0  -0.367523  0  1.885402  0  0  -0.142815  -0.350957  0  1.894525  0
O  O71  1  0.75230319  0.61971230  0.04859884  1  0  -0.36378  0  1.710717  0  0  -0.357059  0  1.890446  0  0  -0.367432  0  1.88545  0  0  -0.142738  -0.350868  0  1.894576  0
