# generated using pymatgen
data_Zn3H21C30N14(O2F)3
_symmetry_space_group_name_H-M   'P 1'
_cell_length_a   12.89474192
_cell_length_b   12.89473616
_cell_length_c   12.89470050
_cell_angle_alpha   108.35990335
_cell_angle_beta   108.35983832
_cell_angle_gamma   108.35986675
_symmetry_Int_Tables_number   1
_chemical_formula_structural   Zn3H21C30N14(O2F)3
_chemical_formula_sum   'Zn3 H21 C30 N14 O6 F3'
_cell_volume   1715.04761839
_cell_formula_units_Z   1
loop_
 _symmetry_equiv_pos_site_id
 _symmetry_equiv_pos_as_xyz
  1  'x, y, z'
loop_
 _atom_site_type_symbol
 _atom_site_label
 _atom_site_symmetry_multiplicity
 _atom_site_fract_x
 _atom_site_fract_y
 _atom_site_fract_z
 _atom_site_occupancy
 _atom_site_pbe_bader_charge
 _atom_site_pbe_bader_spin_density
 _atom_site_pbe_cm5_charge
 _atom_site_pbe_ddec_charge
 _atom_site_pbe_ddec_spin_density
 _atom_site_pbe_ddec_sum_bond_order
 _atom_site_pbe_magmom
Zn  Zn0  1  0.96985419  0.96985572  0.96985491  1  1.353519  0  0.694079  0.759115  0  2.391993  0
Zn  Zn1  1  0.71258820  0.71258903  0.71258963  1  1.185625  0  0.77554  0.548096  0  2.568236  0
Zn  Zn2  1  0.21898094  0.21898113  0.21898199  1  1.278311  0  0.694887  0.838393  0  2.401782  0
H  H3  1  0.65097809  0.56668806  0.45045734  1  0.074269  0  0.114755  0.100371  0  0.96793  0
H  H4  1  0.47627292  0.39140635  0.27694658  1  0.070598  0  0.117586  0.106718  0  0.963348  0
H  H5  1  0.56668912  0.45045750  0.65097903  1  0.074265  0  0.114728  0.100341  0  0.967923  0
H  H6  1  0.39140558  0.27694793  0.47627416  1  0.07057  0  0.117568  0.106703  0  0.963381  0
H  H7  1  0.45045713  0.65097736  0.56668882  1  0.074286  0  0.114731  0.100336  0  0.967945  0
H  H8  1  0.27694668  0.47627290  0.39140591  1  0.070592  0  0.117584  0.106711  0  0.963348  0
H  H9  1  0.65097818  0.45045750  0.56668755  1  0.07405  0  0.114728  0.100335  0  0.967919  0
H  H10  1  0.47627209  0.27694721  0.39140573  1  0.070605  0  0.117587  0.106729  0  0.963357  0
H  H11  1  0.56668804  0.65097748  0.45045796  1  0.074347  0  0.114731  0.100325  0  0.967918  0
H  H12  1  0.39140632  0.47627343  0.27694677  1  0.070566  0  0.117577  0.1067  0  0.963362  0
H  H13  1  0.45045719  0.56668751  0.65097849  1  0.074093  0  0.114755  0.100383  0  0.967933  0
H  H14  1  0.27694676  0.39140652  0.47627337  1  0.07057  0  0.117579  0.1067  0  0.963382  0
H  H15  1  0.79542719  0.79542625  0.35882398  1  0.106767  0  0.110161  0.134975  0  0.994799  0
H  H16  1  0.17322372  0.17322450  0.50396832  1  0.080388  0  0.100952  0.101313  0  1.01376  0
H  H17  1  0.12099456  0.12099359  0.65774241  1  0.109339  0  0.108094  0.115993  0  0.997122  0
H  H18  1  0.79542847  0.35882683  0.79542750  1  0.106762  0  0.110162  0.134978  0  0.994825  0
H  H19  1  0.17322346  0.50396732  0.17322427  1  0.080374  0  0.100993  0.101357  0  1.013799  0
H  H20  1  0.12099508  0.65774161  0.12099607  1  0.10932  0  0.108091  0.116008  0  0.997127  0
H  H21  1  0.35882500  0.79542801  0.79542622  1  0.106745  0  0.110166  0.134988  0  0.994818  0
H  H22  1  0.50396742  0.17322277  0.17322393  1  0.08038  0  0.101041  0.101473  0  1.013787  0
H  H23  1  0.65774137  0.12099495  0.12099493  1  0.109335  0  0.108082  0.116022  0  0.997118  0
C  C24  1  0.92223629  0.92223595  0.60701530  1  0.950693  0  0.211336  0.226416  0  4.046222  0
C  C25  1  0.95492127  0.95491957  0.51913885  1  -0.020799  0  0.007067  0.078524  0  4.017286  0
C  C26  1  0.87885328  0.87885207  0.39248624  1  0.06227  0  -0.098151  -0.254052  0  3.962332  0
C  C27  1  0.90977645  0.90977445  0.30870967  1  0.490873  0  0.108962  0.292796  0  4.035512  0
C  C28  1  0.01598890  0.01598767  0.34591977  1  -0.00667  0  -0.027553  -0.153417  0  3.95366  0
C  C29  1  0.09055041  0.09054944  0.47374202  1  -0.016297  0  -0.084005  -0.067542  0  4.006658  0
C  C30  1  0.06186480  0.06186301  0.55940574  1  -0.044041  0  -0.093191  -0.141053  0  3.985812  0
C  C31  1  0.05332158  0.05331982  0.25953358  1  1.567478  0  0.220831  0.620648  0  4.161678  0
C  C32  1  0.56447398  0.56447324  0.44801318  1  0.242997  0  -0.066503  -0.090918  0  3.814072  0
C  C33  1  0.45042251  0.45042354  0.33471931  1  0.237772  0  -0.065309  -0.088676  0  3.81758  0
C  C34  1  0.92223749  0.60701772  0.92223951  1  0.95066  0  0.211287  0.226356  0  4.046336  0
C  C35  1  0.95492256  0.51914192  0.95492205  1  -0.020664  0  0.007072  0.078518  0  4.017277  0
C  C36  1  0.87885274  0.39248731  0.87885127  1  0.06218  0  -0.098191  -0.254038  0  3.962273  0
C  C37  1  0.90977508  0.30871019  0.90977326  1  0.49082  0  0.109045  0.292862  0  4.035516  0
C  C38  1  0.01598774  0.34592051  0.01598703  1  -0.006607  0  -0.027577  -0.153456  0  3.953654  0
C  C39  1  0.09055196  0.47374212  0.09055042  1  -0.016328  0  -0.084019  -0.067542  0  4.006618  0
C  C40  1  0.06186535  0.55940684  0.06186433  1  -0.044035  0  -0.09322  -0.141138  0  3.985803  0
C  C41  1  0.05331865  0.25953039  0.05331864  1  1.566838  0  0.220734  0.620472  0  4.162066  0
C  C42  1  0.56447315  0.44801247  0.56447326  1  0.24328  0  -0.066473  -0.090886  0  3.814035  0
C  C43  1  0.45042260  0.33471998  0.45042304  1  0.23776  0  -0.065324  -0.088733  0  3.817662  0
C  C44  1  0.60701593  0.92223776  0.92223686  1  0.950665  0  0.21127  0.226435  0  4.046151  0
C  C45  1  0.51914001  0.95492178  0.95492065  1  -0.020799  0  0.007114  0.078575  0  4.017288  0
C  C46  1  0.39248696  0.87885318  0.87885075  1  0.062331  0  -0.098176  -0.254054  0  3.962346  0
C  C47  1  0.30871066  0.90977630  0.90977485  1  0.49084  0  0.109037  0.292839  0  4.035625  0
C  C48  1  0.34591984  0.01598831  0.01598839  1  -0.006637  0  -0.02753  -0.153296  0  3.953663  0
C  C49  1  0.47374005  0.09055063  0.09055073  1  -0.016326  0  -0.084037  -0.06769  0  4.00678  0
C  C50  1  0.55940637  0.06186427  0.06186439  1  -0.044017  0  -0.093257  -0.141211  0  3.985845  0
C  C51  1  0.25953192  0.05332023  0.05332184  1  1.567511  0  0.220788  0.620529  0  4.161725  0
C  C52  1  0.44801227  0.56447348  0.56447413  1  0.243208  0  -0.066502  -0.090951  0  3.814065  0
C  C53  1  0.33471927  0.45042262  0.45042288  1  0.237763  0  -0.06532  -0.088675  0  3.817625  0
N  N54  1  0.92590181  0.92590499  0.77389832  1  -0.1597  0  -0.087572  -0.029312  0  3.432878  0
N  N55  1  0.82584147  0.82584315  0.67873574  1  -0.293724  0  -0.143415  -0.06725  0  3.654783  0
N  N56  1  0.82054232  0.82054081  0.57274753  1  -0.64568  0  -0.223275  -0.277437  0  3.205347  0
N  N57  1  0.98819183  0.98819316  0.73129065  1  -0.578127  0  -0.198326  -0.220817  0  3.118118  0
N  N58  1  0.92590194  0.77389940  0.92590628  1  -0.159542  0  -0.087616  -0.02934  0  3.43286  0
N  N59  1  0.82584159  0.67873646  0.82584442  1  -0.293723  0  -0.143408  -0.067315  0  3.654669  0
N  N60  1  0.82054163  0.57274844  0.82054438  1  -0.645618  0  -0.223172  -0.277269  0  3.205208  0
N  N61  1  0.98819205  0.73129198  0.98819536  1  -0.578356  0  -0.198337  -0.220836  0  3.118133  0
N  N62  1  0.77390054  0.92590512  0.92590304  1  -0.1597  0  -0.087649  -0.029326  0  3.432871  0
N  N63  1  0.67873770  0.82584496  0.82584282  1  -0.293757  0  -0.143332  -0.067214  0  3.654715  0
N  N64  1  0.57274907  0.82054325  0.82054209  1  -0.645616  0  -0.223278  -0.277467  0  3.205286  0
N  N65  1  0.73129241  0.98819528  0.98819429  1  -0.578153  0  -0.198316  -0.220856  0  3.118006  0
N  N66  1  0.56338392  0.56338380  0.56338486  1  -1.01355  0  -0.345852  -0.087674  0  3.48696  0
N  N67  1  0.37527128  0.37527176  0.37527199  1  -1.004938  0  -0.343512  -0.11205  0  3.489061  0
O  O68  1  0.98911624  0.98911189  0.14515082  1  -1.167986  0  -0.300099  -0.534341  0  2.40794  0
O  O69  1  0.15462855  0.15462632  0.31375777  1  -1.175174  0  -0.334526  -0.572908  0  2.385252  0
O  O70  1  0.98910956  0.14515126  0.98910965  1  -1.167463  0  -0.300054  -0.534242  0  2.408215  0
O  O71  1  0.15462475  0.31375491  0.15462599  1  -1.175136  0  -0.334481  -0.572815  0  2.385256  0
O  O72  1  0.14514921  0.98911212  0.98911564  1  -1.168031  0  -0.300077  -0.534264  0  2.407876  0
O  O73  1  0.31375475  0.15462593  0.15462779  1  -1.175165  0  -0.334534  -0.572887  0  2.385241  0
F  F74  1  0.83208875  0.83208447  0.18767274  1  -0.629788  0  -0.101818  -0.135673  0  1.34067  0
F  F75  1  0.83208834  0.18767351  0.83208472  1  -0.62969  0  -0.10185  -0.135697  0  1.340668  0
F  F76  1  0.18767508  0.83208583  0.83208473  1  -0.629774  0  -0.101862  -0.135715  0  1.340705  0
