# generated using pymatgen
data_AlH7C12NO5F
_symmetry_space_group_name_H-M   'P 1'
_cell_length_a   6.78638977
_cell_length_b   11.17434968
_cell_length_c   17.67977494
_cell_angle_alpha   81.71589605
_cell_angle_beta   79.90900796
_cell_angle_gamma   70.75956460
_symmetry_Int_Tables_number   1
_chemical_formula_structural   AlH7C12NO5F
_chemical_formula_sum   'Al2 H14 C24 N2 O10 F2'
_cell_volume   1240.86229613
_cell_formula_units_Z   2
loop_
 _symmetry_equiv_pos_site_id
 _symmetry_equiv_pos_as_xyz
  1  'x, y, z'
loop_
 _atom_site_type_symbol
 _atom_site_label
 _atom_site_symmetry_multiplicity
 _atom_site_fract_x
 _atom_site_fract_y
 _atom_site_fract_z
 _atom_site_occupancy
 _atom_site_pbe_bader_charge
 _atom_site_pbe_bader_spin_density
 _atom_site_pbe_cm5_charge
 _atom_site_pbe_ddec_charge
 _atom_site_pbe_ddec_spin_density
 _atom_site_pbe_ddec_sum_bond_order
 _atom_site_pbe_magmom
Al  Al0  1  0.49748050  0.49950656  0.50648873  1  2.505935  0  0.405422  1.638464  0  2.559045  0
Al  Al1  1  0.99763448  0.49885107  0.50674415  1  2.504999  0  0.398068  1.642831  0  2.580248  0
H  H2  1  0.25794177  0.56365106  0.41019020  1  0.634756  0  0.34552  0.418429  0  0.871249  0
H  H3  1  0.77159073  0.38167493  0.58817817  1  0.608867  0  0.354562  0.433762  0  0.845808  0
H  H4  1  0.75663072  0.10920349  0.50114233  1  0.116963  0  0.102285  0.112035  0  1.088946  0
H  H5  1  0.24361252  0.88467707  0.50821603  1  0.097999  0  0.109436  0.11578  0  1.053217  0
H  H6  1  0.54422020  0.51162055  0.27296212  1  0.09676  0  0.107519  0.111321  0  1.006736  0
H  H7  1  0.60815426  0.52187163  0.12920994  1  0.112963  0  0.109449  0.118929  0  0.997772  0
H  H8  1  0.20993053  0.42346914  0.27849028  1  0.119769  0  0.116764  0.143014  0  0.989754  0
H  H9  1  0.78573198  0.57279813  0.73223318  1  0.109592  0  0.120718  0.148826  0  0.98337  0
H  H10  1  0.44912107  0.49289606  0.73837867  1  0.10622  0  0.110691  0.117143  0  1.000922  0
H  H11  1  0.38373451  0.48317576  0.88235337  1  0.098297  0  0.108774  0.117767  0  1.00043  0
H  H12  1  0.98834662  0.77839375  0.46754894  1  0.501449  0  0.304533  0.312643  0  0.989742  0
H  H13  1  0.02758956  0.92455734  0.46604332  1  0.430083  0  0.293624  0.281461  0  1.018712  0
H  H14  1  0.02959404  0.23093037  0.49350496  1  0.446802  0  0.295571  0.291118  0  1.01528  0
H  H15  1  0.02571960  0.11883104  0.44114206  1  0.414977  0  0.299231  0.285085  0  0.948693  0
C  C16  1  0.83085216  0.47366675  0.36999217  1  1.569146  0  0.266691  0.642798  0  4.085316  0
C  C17  1  0.62481939  0.72751690  0.49342973  1  1.512066  0  0.263576  0.653821  0  4.071  0
C  C18  1  0.16497618  0.52597221  0.64135268  1  1.589121  0  0.271474  0.645747  0  4.082008  0
C  C19  1  0.37220274  0.26998312  0.51212681  1  1.533317  0  0.266045  0.655873  0  4.059198  0
C  C20  1  0.56726671  0.86711311  0.49078888  1  0.053121  0  -0.028531  -0.150701  0  3.975888  0
C  C21  1  0.43233420  0.13249175  0.50139345  1  -0.066235  0  -0.023423  -0.129553  0  3.973277  0
C  C22  1  0.72028377  0.93172737  0.48218729  1  0.481944  0  0.10616  0.301132  0  4.070561  0
C  C23  1  0.28139315  0.07134195  0.49640417  1  0.473952  0  0.082056  0.254037  0  4.065541  0
C  C24  1  0.64490906  0.06161323  0.49505615  1  -0.028749  0  -0.104153  -0.214975  0  3.952632  0
C  C25  1  0.35383003  0.93884947  0.49854165  1  -0.162121  0  -0.101463  -0.206913  0  3.990728  0
C  C26  1  0.87127227  0.46897989  0.28469730  1  -0.028818  0  -0.012948  -0.021189  0  3.986305  0
C  C27  1  0.70319810  0.49443421  0.24227786  1  -0.034015  0  -0.084365  -0.103051  0  3.998389  0
C  C28  1  0.73846768  0.50060431  0.16237262  1  -0.036537  0  -0.073702  -0.097016  0  3.936097  0
C  C29  1  0.94405638  0.48126503  0.12197963  1  0.168666  0  -0.000507  0.039713  0  4.117319  0
C  C30  1  0.11011534  0.45150248  0.16653423  1  0.461198  0  0.107689  0.247863  0  4.024129  0
C  C31  1  0.07769394  0.44534185  0.24617794  1  0.004328  0  -0.090803  -0.220266  0  3.985015  0
C  C32  1  0.98158127  0.49401338  0.04075588  1  0.041047  0  -0.035191  -0.078317  0  4.114708  0
C  C33  1  0.01038322  0.50860420  0.97041073  1  -0.35206  0  -0.033016  -0.072544  0  4.114224  0
C  C34  1  0.04848870  0.52073717  0.88917165  1  0.212334  0  -3.3e-05  0.03858  0  4.119485  0
C  C35  1  0.88349958  0.54813808  0.84439864  1  0.422035  0  0.107237  0.247446  0  4.024311  0
C  C36  1  0.91679958  0.55340709  0.76479035  1  0.006976  0  -0.087888  -0.218191  0  3.976131  0
C  C37  1  0.12322045  0.53147052  0.72661336  1  0.032352  0  -0.00866  -0.015967  0  3.9794  0
C  C38  1  0.29040376  0.50835003  0.76917720  1  -0.050514  0  -0.083286  -0.104814  0  3.992746  0
C  C39  1  0.25411833  0.50273382  0.84908545  1  -0.041814  0  -0.073491  -0.096628  0  3.936943  0
N  N40  1  0.93073540  0.87497421  0.46152045  1  -1.268999  0  -0.601635  -0.608275  0  3.350845  0
N  N41  1  0.06847646  0.13557076  0.48998611  1  -1.169354  0  -0.611789  -0.624223  0  3.310215  0
O  O42  1  0.64046373  0.49428739  0.40200709  1  -1.257921  0  -0.235053  -0.598157  0  2.350929  0
O  O43  1  0.82261588  0.66522008  0.48394784  1  -1.273686  0  -0.239472  -0.612786  0  2.405171  0
O  O44  1  0.00781747  0.53963904  0.60686967  1  -1.26317  0  -0.234319  -0.588217  0  2.332963  0
O  O45  1  0.51671267  0.32176268  0.50615583  1  -1.255899  0  -0.239161  -0.58962  0  2.321339  0
O  O46  1  0.35557140  0.50444665  0.60954731  1  -1.268324  0  -0.231189  -0.593178  0  2.349561  0
O  O47  1  0.17415552  0.32933147  0.52778780  1  -1.272909  0  -0.244796  -0.620412  0  2.382288  0
O  O48  1  0.98937421  0.45964383  0.40405388  1  -1.261008  0  -0.242929  -0.604887  0  2.338755  0
O  O49  1  0.47928645  0.67530148  0.50429126  1  -1.253918  0  -0.240636  -0.59012  0  2.316932  0
O  O50  1  0.23782411  0.55097493  0.46611045  1  -1.44226  0  -0.447992  -0.978045  0  2.154665  0
O  O51  1  0.75932974  0.44521239  0.54431268  1  -1.415596  0  -0.448759  -0.989171  0  2.16527  0
F  F52  1  0.31019077  0.43032400  0.12922132  1  -0.631845  0  -0.097117  -0.143768  0  1.344528  0
F  F53  1  0.68354766  0.56786500  0.88161460  1  -0.632283  0  -0.096788  -0.144633  0  1.346184  0
