# generated using pymatgen
data_SnH13C9NO2
_symmetry_space_group_name_H-M   'P 1'
_cell_length_a   6.68058626
_cell_length_b   12.84568350
_cell_length_c   13.46669080
_cell_angle_alpha   71.41001193
_cell_angle_beta   77.53053061
_cell_angle_gamma   75.45629829
_symmetry_Int_Tables_number   1
_chemical_formula_structural   SnH13C9NO2
_chemical_formula_sum   'Sn4 H52 C36 N4 O8'
_cell_volume   1048.57895700
_cell_formula_units_Z   4
loop_
 _symmetry_equiv_pos_site_id
 _symmetry_equiv_pos_as_xyz
  1  'x, y, z'
loop_
 _atom_site_type_symbol
 _atom_site_label
 _atom_site_symmetry_multiplicity
 _atom_site_fract_x
 _atom_site_fract_y
 _atom_site_fract_z
 _atom_site_occupancy
 _atom_site_hle17_bader_spin_density
 _atom_site_hle17_ddec_charge
 _atom_site_hle17_ddec_spin_density
 _atom_site_hle17_ddec_sum_bond_order
 _atom_site_hle17_magmom
 _atom_site_hse06_10hf_bader_spin_density
 _atom_site_hse06_10hf_ddec_charge
 _atom_site_hse06_10hf_ddec_spin_density
 _atom_site_hse06_10hf_ddec_sum_bond_order
 _atom_site_hse06_10hf_magmom
 _atom_site_hse06_bader_spin_density
 _atom_site_hse06_ddec_charge
 _atom_site_hse06_ddec_spin_density
 _atom_site_hse06_ddec_sum_bond_order
 _atom_site_hse06_magmom
 _atom_site_pbe_bader_charge
 _atom_site_pbe_bader_spin_density
 _atom_site_pbe_cm5_charge
 _atom_site_pbe_ddec_charge
 _atom_site_pbe_ddec_spin_density
 _atom_site_pbe_ddec_sum_bond_order
 _atom_site_pbe_magmom
Sn  Sn0  1  0.25505330  0.97288773  0.74127695  1  0  1.296825  0  2.916919  0  0  1.158544  0  3.407221  0  0  1.195595  0  3.395268  0  1.64866  0  0.508097  1.133177  0  3.414865  0
Sn  Sn1  1  0.97881137  0.52658481  0.76158404  1  0  1.294454  0  2.931118  0  0  1.157187  0  3.419474  0  0  1.193895  0  3.407804  0  1.673668  0  0.50823  1.132058  0  3.426948  0
Sn  Sn2  1  0.74494040  0.02712170  0.25871648  1  0  1.296827  0  2.91709  0  0  1.15853  0  3.407424  0  0  1.195617  0  3.395396  0  1.649  0  0.508061  1.133157  0  3.41508  0
Sn  Sn3  1  0.02118526  0.47340869  0.23841653  1  0  1.294286  0  2.931081  0  0  1.157044  0  3.419365  0  0  1.193754  0  3.407694  0  1.673753  0  0.508184  1.131915  0  3.426842  0
H  H4  1  0.56371185  0.80740307  0.69237608  1  0  0.158514  0  1.00692  0  0  0.17263  0  1.069329  0  0  0.175584  0  1.069938  0  0.063112  0  0.082822  0.170519  0  1.068944  0
H  H5  1  0.08393840  0.69601604  0.80595880  1  0  0.159438  0  1.012349  0  0  0.173596  0  1.074418  0  0  0.176758  0  1.074703  0  0.076778  0  0.082461  0.171328  0  1.074279  0
H  H6  1  0.43629093  0.19261054  0.30761029  1  0  0.158433  0  1.0071  0  0  0.172572  0  1.06949  0  0  0.175528  0  1.070096  0  0.063287  0  0.082802  0.170467  0  1.069096  0
H  H7  1  0.91609504  0.30396239  0.19405654  1  0  0.159387  0  1.012237  0  0  0.173541  0  1.074348  0  0  0.176701  0  1.074635  0  0.076567  0  0.082473  0.171267  0  1.074214  0
H  H8  1  0.67431194  0.89294762  0.73854563  1  0  0.152739  0  1.004931  0  0  0.170064  0  1.063453  0  0  0.172355  0  1.064644  0  0.051943  0  0.084114  0.168416  0  1.062664  0
H  H9  1  0.31759264  0.60210502  0.77254532  1  0  0.15412  0  1.005764  0  0  0.171283  0  1.06436  0  0  0.173573  0  1.065629  0  0.063502  0  0.083585  0.169644  0  1.063513  0
H  H10  1  0.32567618  0.10706766  0.26144657  1  0  0.152749  0  1.004722  0  0  0.170061  0  1.06328  0  0  0.172351  0  1.064474  0  0.051792  0  0.084095  0.168413  0  1.062492  0
H  H11  1  0.68242641  0.39786838  0.22747981  1  0  0.154107  0  1.005696  0  0  0.17125  0  1.064319  0  0  0.173541  0  1.065585  0  0.063909  0  0.083535  0.169604  0  1.063485  0
H  H12  1  0.53387564  0.79178851  0.83073337  1  0  0.149849  0  1.005287  0  0  0.167358  0  1.063272  0  0  0.169703  0  1.06466  0  0.05027  0  0.081897  0.165645  0  1.062416  0
H  H13  1  0.17925092  0.70023237  0.67072694  1  0  0.149596  0  1.00352  0  0  0.167084  0  1.061914  0  0  0.169411  0  1.06329  0  0.04561  0  0.081565  0.165385  0  1.061071  0
H  H14  1  0.46614031  0.20821924  0.16925289  1  0  0.149916  0  1.005168  0  0  0.167409  0  1.063188  0  0  0.16975  0  1.06458  0  0.050039  0  0.081966  0.165696  0  1.06233  0
H  H15  1  0.82077833  0.29974187  0.32929368  1  0  0.149473  0  1.003324  0  0  0.166967  0  1.061761  0  0  0.169267  0  1.06318  0  0.045075  0  0.081536  0.165272  0  1.060908  0
H  H16  1  0.00139932  0.05652455  0.58487761  1  0  0.141941  0  1.022447  0  0  0.157814  0  1.085861  0  0  0.159771  0  1.087807  0  0.051887  0  0.079237  0.156399  0  1.084585  0
H  H17  1  0.65816612  0.44468190  0.91115648  1  0  0.139935  0  1.020717  0  0  0.15593  0  1.084778  0  0  0.157956  0  1.086415  0  0.009303  0  0.077799  0.154456  0  1.083748  0
H  H18  1  0.99859281  0.94348152  0.41511796  1  0  0.142031  0  1.022251  0  0  0.157865  0  1.085707  0  0  0.159821  0  1.087655  0  0.052016  0  0.079219  0.156449  0  1.08443  0
H  H19  1  0.34179309  0.55532083  0.08884142  1  0  0.140007  0  1.020806  0  0  0.15594  0  1.084905  0  0  0.157966  0  1.086539  0  0.009811  0  0.077808  0.154467  0  1.083876  0
H  H20  1  0.23785993  0.96878282  0.54400382  1  0  0.151141  0  0.990936  0  0  0.1684  0  1.049035  0  0  0.170795  0  1.050546  0  0.042777  0  0.083416  0.166695  0  1.048009  0
H  H21  1  0.77709579  0.52499060  0.95988974  1  0  0.149531  0  0.996609  0  0  0.166295  0  1.056314  0  0  0.168686  0  1.057803  0  0.024157  0  0.081843  0.164603  0  1.055303  0
H  H22  1  0.76214321  0.03122995  0.45599207  1  0  0.151104  0  0.990987  0  0  0.168353  0  1.049097  0  0  0.170746  0  1.050612  0  0.04269  0  0.083388  0.166646  0  1.048072  0
H  H23  1  0.22288514  0.47499704  0.04011467  1  0  0.149481  0  0.996795  0  0  0.166247  0  1.056486  0  0  0.168636  0  1.057977  0  0.024442  0  0.081823  0.164555  0  1.055476  0
H  H24  1  0.03236392  0.90806959  0.63464554  1  0  0.158388  0  0.982656  0  0  0.179812  0  1.033077  0  0  0.182763  0  1.033306  0  0.051121  0  0.088333  0.177691  0  1.032989  0
H  H25  1  0.59972242  0.59364054  0.86610045  1  0  0.156969  0  0.989408  0  0  0.178048  0  1.041237  0  0  0.180972  0  1.041556  0  0.047394  0  0.08762  0.175948  0  1.041107  0
H  H26  1  0.96763717  0.09194234  0.36534515  1  0  0.158358  0  0.982668  0  0  0.17979  0  1.033085  0  0  0.182741  0  1.033317  0  0.050956  0  0.088365  0.177667  0  1.032997  0
H  H27  1  0.40026955  0.40636553  0.13388749  1  0  0.156924  0  0.989558  0  0  0.178033  0  1.041333  0  0  0.180957  0  1.041651  0  0.047509  0  0.087622  0.175936  0  1.041198  0
H  H28  1  0.03078116  0.15664571  0.79792473  1  0  0.141418  0  1.011308  0  0  0.158648  0  1.073782  0  0  0.16147  0  1.07358  0  0.032186  0  0.080356  0.156654  0  1.07397  0
H  H29  1  0.99724611  0.33982921  0.70496830  1  0  0.141027  0  1.011709  0  0  0.15807  0  1.074243  0  0  0.160715  0  1.074432  0  0.043234  0  0.07971  0.156204  0  1.074156  0
H  H30  1  0.96921597  0.84336539  0.20206888  1  0  0.141283  0  1.011256  0  0  0.158542  0  1.073729  0  0  0.161349  0  1.073546  0  0.031342  0  0.080317  0.156549  0  1.073913  0
H  H31  1  0.00277680  0.66017016  0.29501318  1  0  0.141032  0  1.011726  0  0  0.158065  0  1.074274  0  0  0.16071  0  1.074462  0  0.043174  0  0.079732  0.156208  0  1.074176  0
H  H32  1  0.10931638  0.05112031  0.91303398  1  0  0.155815  0  0.990585  0  0  0.174134  0  1.045711  0  0  0.176655  0  1.0465  0  0.050751  0  0.085307  0.172292  0  1.04526  0
H  H33  1  0.05121647  0.44980800  0.58873164  1  0  0.155221  0  0.99023  0  0  0.173238  0  1.045973  0  0  0.175833  0  1.046578  0  0.052685  0  0.084374  0.171364  0  1.045624  0
H  H34  1  0.89066612  0.94888492  0.08695773  1  0  0.155848  0  0.990522  0  0  0.17418  0  1.045641  0  0  0.176701  0  1.046429  0  0.050972  0  0.085355  0.172336  0  1.045191  0
H  H35  1  0.94878155  0.55020896  0.41125583  1  0  0.155081  0  0.990261  0  0  0.173064  0  1.046083  0  0  0.175654  0  1.046703  0  0.052256  0  0.084318  0.171191  0  1.045733  0
H  H36  1  0.29173245  0.13326617  0.82511383  1  0  0.146609  0  1.017478  0  0  0.162584  0  1.078511  0  0  0.164205  0  1.081659  0  0.051927  0  0.080086  0.161405  0  1.076382  0
H  H37  1  0.25117480  0.37458519  0.66992124  1  0  0.146812  0  1.013337  0  0  0.162127  0  1.075783  0  0  0.163813  0  1.078649  0  0.023141  0  0.080126  0.160916  0  1.073823  0
H  H38  1  0.70824982  0.86673906  0.17488122  1  0  0.146634  0  1.017374  0  0  0.162654  0  1.078373  0  0  0.164272  0  1.081528  0  0.052478  0  0.080136  0.161474  0  1.076245  0
H  H39  1  0.74884188  0.62542591  0.33006528  1  0  0.146777  0  1.013573  0  0  0.162097  0  1.075979  0  0  0.163789  0  1.078832  0  0.023029  0  0.080136  0.160876  0  1.074046  0
H  H40  1  0.46786993  0.91119183  0.97899328  1  0  0.109849  0  0.934547  0  0  0.120105  0  0.995832  0  0  0.123339  0  0.992845  0  0.119033  0  0.117195  0.117696  0  0.998064  0
H  H41  1  0.35089725  0.59689011  0.51426219  1  0  0.111196  0  0.928148  0  0  0.122005  0  0.987876  0  0  0.125359  0  0.984811  0  0.130824  0  0.117151  0.119538  0  0.990107  0
H  H42  1  0.53213020  0.08881340  0.02099949  1  0  0.109831  0  0.934666  0  0  0.120155  0  0.995856  0  0  0.123387  0  0.992873  0  0.119066  0  0.117214  0.117747  0  0.998086  0
H  H43  1  0.64907549  0.40311177  0.48576164  1  0  0.111076  0  0.928396  0  0  0.121902  0  0.988121  0  0  0.125256  0  0.985053  0  0.131061  0  0.1171  0.119434  0  0.990359  0
H  H44  1  0.29889652  0.76931876  0.12700331  1  0  0.107181  0  0.944492  0  0  0.119986  0  0.998888  0  0  0.122918  0  0.998782  0  0.103808  0  0.110906  0.117861  0  0.99925  0
H  H45  1  0.19249638  0.74152771  0.36093023  1  0  0.10365  0  0.951745  0  0  0.116676  0  1.006034  0  0  0.119515  0  1.00609  0  0.085793  0  0.109888  0.114622  0  1.006258  0
H  H46  1  0.70109518  0.23068145  0.87299172  1  0  0.107165  0  0.944486  0  0  0.119993  0  0.998843  0  0  0.122924  0  0.998742  0  0.103933  0  0.110944  0.117868  0  0.999203  0
H  H47  1  0.80748999  0.25847836  0.63908979  1  0  0.103459  0  0.951742  0  0  0.116602  0  1.005925  0  0  0.119439  0  1.005982  0  0.085606  0  0.109834  0.114549  0  1.006152  0
H  H48  1  0.52503205  0.58925415  0.21449070  1  0  0.090017  0  0.975101  0  0  0.097503  0  1.042137  0  0  0.100672  0  1.039005  0  0.157  0  0.119399  0.095148  0  1.044432  0
H  H49  1  0.33428739  0.91693032  0.27701829  1  0  0.090912  0  0.990783  0  0  0.0988  0  1.057501  0  0  0.101908  0  1.054493  0  0.183376  0  0.118363  0.096443  0  1.059802  0
H  H50  1  0.47494853  0.41074438  0.78550718  1  0  0.090094  0  0.975033  0  0  0.097636  0  1.042032  0  0  0.100807  0  1.0389  0  0.157024  0  0.119441  0.095282  0  1.044328  0
H  H51  1  0.66570220  0.08306151  0.72299505  1  0  0.090929  0  0.990745  0  0  0.098822  0  1.057459  0  0  0.10193  0  1.05445  0  0.183299  0  0.118362  0.096478  0  1.059757  0
H  H52  1  0.05431916  0.67875868  0.00806515  1  0  0.085615  0  0.947758  0  0  0.094009  0  1.013326  0  0  0.096955  0  1.010483  0  0.098165  0  0.120587  0.091814  0  1.015474  0
H  H53  1  0.75153265  0.81974543  0.49419969  1  0  0.086833  0  0.943403  0  0  0.095269  0  1.008091  0  0  0.09837  0  1.005001  0  0.137346  0  0.120417  0.092958  0  1.010409  0
H  H54  1  0.94566690  0.32122812  0.99194868  1  0  0.085538  0  0.947919  0  0  0.093971  0  1.01343  0  0  0.096915  0  1.010587  0  0.098315  0  0.120586  0.091779  0  1.01557  0
H  H55  1  0.24847488  0.18025645  0.50580337  1  0  0.086895  0  0.943388  0  0  0.095326  0  1.008073  0  0  0.098428  0  1.004986  0  0.137395  0  0.120434  0.093014  0  1.010398  0
C  C56  1  0.54185613  0.85200664  0.75210470  1  0  -0.703546  0  3.504279  0  0  -0.739524  0  3.734374  0  0  -0.753076  0  3.741039  0  -0.47666  0  -0.340283  -0.730104  0  3.729771  0
C  C57  1  0.16255243  0.64526517  0.75179122  1  0  -0.706076  0  3.505445  0  0  -0.742097  0  3.73375  0  0  -0.755601  0  3.740242  0  -0.496284  0  -0.342063  -0.732691  0  3.729303  0
C  C58  1  0.45814515  0.14800111  0.24788688  1  0  -0.703561  0  3.504131  0  0  -0.739524  0  3.734246  0  0  -0.753077  0  3.740916  0  -0.476542  0  -0.340298  -0.730113  0  3.729634  0
C  C59  1  0.83748360  0.35471493  0.24822671  1  0  -0.705818  0  3.505017  0  0  -0.741829  0  3.733383  0  0  -0.755307  0  3.739918  0  -0.496011  0  -0.341972  -0.732408  0  3.728954  0
C  C60  1  0.11343121  0.97858182  0.61034458  1  0  -0.70786  0  3.531824  0  0  -0.745008  0  3.763088  0  0  -0.758476  0  3.769943  0  -0.466591  0  -0.337303  -0.735683  0  3.758318  0
C  C61  1  0.72295752  0.52037216  0.89038881  1  0  -0.705055  0  3.525546  0  0  -0.743707  0  3.757505  0  0  -0.756875  0  3.764125  0  -0.417927  0  -0.338007  -0.734566  0  3.752939  0
C  C62  1  0.88656757  0.02142677  0.38964898  1  0  -0.70788  0  3.531658  0  0  -0.744976  0  3.762967  0  0  -0.758452  0  3.769827  0  -0.466592  0  -0.337267  -0.735649  0  3.758198  0
C  C63  1  0.27703026  0.47962804  0.10960392  1  0  -0.705006  0  3.525934  0  0  -0.74359  0  3.757829  0  0  -0.756777  0  3.764491  0  -0.418815  0  -0.33799  -0.734439  0  3.753233  0
C  C64  1  0.16171491  0.09342681  0.83043329  1  0  -0.700895  0  3.546688  0  0  -0.745477  0  3.783021  0  0  -0.758682  0  3.790777  0  -0.438765  0  -0.33834  -0.736313  0  3.7777  0
C  C65  1  0.08364187  0.40813986  0.66985496  1  0  -0.701485  0  3.540868  0  0  -0.744009  0  3.777429  0  0  -0.757229  0  3.785501  0  -0.43346  0  -0.33972  -0.73483  0  3.771887  0
C  C66  1  0.83826975  0.90658094  0.16956247  1  0  -0.700817  0  3.546473  0  0  -0.745475  0  3.782783  0  0  -0.75867  0  3.790566  0  -0.438742  0  -0.338379  -0.736309  0  3.777459  0
C  C67  1  0.91636026  0.59186956  0.33013472  1  0  -0.701263  0  3.540997  0  0  -0.743744  0  3.777581  0  0  -0.756964  0  3.785659  0  -0.432913  0  -0.339679  -0.734578  0  3.77202  0
C  C68  1  0.77363360  0.80454723  0.98179544  1  0  -0.109594  0  3.740793  0  0  -0.083051  0  3.97505  0  0  -0.095824  0  3.998533  0  0.039888  0  -0.006384  -0.075136  0  3.959541  0
C  C69  1  0.56090995  0.69891293  0.51624589  1  0  -0.113574  0  3.742028  0  0  -0.086856  0  3.977006  0  0  -0.099689  0  4.000574  0  0.012725  0  -0.008032  -0.078952  0  3.961551  0
C  C70  1  0.22636399  0.19544628  0.01820106  1  0  -0.109741  0  3.740867  0  0  -0.083141  0  3.975125  0  0  -0.095919  0  3.998617  0  0.039966  0  -0.006438  -0.075228  0  3.959618  0
C  C71  1  0.43912176  0.30107974  0.48375440  1  0  -0.113695  0  3.742044  0  0  -0.086963  0  3.977073  0  0  -0.09979  0  4.00063  0  0.013195  0  -0.008072  -0.079057  0  3.961618  0
C  C72  1  0.55859833  0.82996413  0.01586854  1  0  0.005061  0  3.674123  0  0  -0.024723  0  3.921523  0  0  -0.017781  0  3.936308  0  -0.089616  0  -0.049459  -0.028869  0  3.911416  0
C  C73  1  0.40186144  0.67657554  0.47820957  1  0  0.005065  0  3.677505  0  0  -0.02552  0  3.924977  0  0  -0.01861  0  3.939797  0  -0.032848  0  -0.049029  -0.029662  0  3.914891  0
C  C74  1  0.44140292  0.17003775  0.98412679  1  0  0.005106  0  3.67438  0  0  -0.024733  0  3.921752  0  0  -0.017791  0  3.93654  0  -0.089746  0  -0.049472  -0.028878  0  3.911645  0
C  C75  1  0.59816472  0.32341461  0.52179629  1  0  0.005341  0  3.677789  0  0  -0.025285  0  3.925306  0  0  -0.018372  0  3.940119  0  -0.033228  0  -0.048972  -0.029425  0  3.915217  0
C  C76  1  0.46592627  0.75154201  0.09855003  1  0  -0.115203  0  3.713323  0  0  -0.12636  0  3.967078  0  0  -0.13429  0  3.987045  0  -0.049281  0  -0.07645  -0.121439  0  3.953722  0
C  C77  1  0.31633119  0.75623919  0.39273592  1  0  -0.115428  0  3.723075  0  0  -0.125642  0  3.976062  0  0  -0.133838  0  3.996572  0  -0.048799  0  -0.076821  -0.120525  0  3.962304  0
C  C78  1  0.53405189  0.24846658  0.90145636  1  0  -0.115216  0  3.713346  0  0  -0.126366  0  3.967144  0  0  -0.134298  0  3.987113  0  -0.050137  0  -0.076513  -0.121447  0  3.953787  0
C  C79  1  0.68368492  0.24376101  0.60727051  1  0  -0.115314  0  3.722978  0  0  -0.125619  0  3.975999  0  0  -0.133814  0  3.996506  0  -0.048822  0  -0.076763  -0.120501  0  3.962248  0
C  C80  1  0.59098622  0.65099947  0.14665581  1  0  0.118405  0  3.696311  0  0  0.085516  0  3.94806  0  0  0.093566  0  3.964526  0  0.45433  0  0.0557  0.080536  0  3.936752  0
C  C81  1  0.39415518  0.85461954  0.34633314  1  0  0.110812  0  3.7038  0  0  0.077532  0  3.955561  0  0  0.085558  0  3.972164  0  0.418301  0  0.04969  0.072585  0  3.944115  0
C  C82  1  0.40898701  0.34900576  0.85334206  1  0  0.118217  0  3.69598  0  0  0.085254  0  3.947782  0  0  0.093303  0  3.964245  0  0.454991  0  0.055613  0.08027  0  3.936474  0
C  C83  1  0.60584762  0.14538067  0.65367883  1  0  0.110716  0  3.703532  0  0  0.077433  0  3.955359  0  0  0.08546  0  3.971957  0  0.418222  0  0.049603  0.072469  0  3.943919  0
C  C84  1  0.88642113  0.70078192  0.03269169  1  0  0.118565  0  3.680577  0  0  0.077955  0  3.928612  0  0  0.086704  0  3.94521  0  0.500146  0  0.059344  0.072445  0  3.917348  0
C  C85  1  0.62708461  0.80062662  0.46632527  1  0  0.118895  0  3.680269  0  0  0.078214  0  3.929342  0  0  0.087057  0  3.945723  0  0.447274  0  0.058495  0.072656  0  3.918229  0
C  C86  1  0.11356776  0.29920991  0.96730211  1  0  0.118585  0  3.680952  0  0  0.077918  0  3.929041  0  0  0.086671  0  3.945642  0  0.49976  0  0.059364  0.072408  0  3.917776  0
C  C87  1  0.37292781  0.19937191  0.53367503  1  0  0.118896  0  3.68018  0  0  0.078243  0  3.929222  0  0  0.087079  0  3.945603  0  0.447093  0  0.058514  0.072685  0  3.91811  0
C  C88  1  0.88153066  0.88900859  0.89588255  1  0  0.630837  0  3.939606  0  0  0.57918  0  4.235749  0  0  0.613353  0  4.228607  0  1.588787  0  0.215451  0.556153  0  4.239839  0
C  C89  1  0.66448820  0.61389029  0.60585196  1  0  0.633647  0  3.935497  0  0  0.582226  0  4.231688  0  0  0.616278  0  4.224841  0  1.594494  0  0.216361  0.559278  0  4.235613  0
C  C90  1  0.11847575  0.11098827  0.10411547  1  0  0.63081  0  3.939535  0  0  0.579109  0  4.235735  0  0  0.613285  0  4.228601  0  1.588436  0  0.215487  0.556081  0  4.239819  0
C  C91  1  0.33552214  0.38611662  0.39415134  1  0  0.633708  0  3.93508  0  0  0.582253  0  4.231326  0  0  0.616303  0  4.224479  0  1.595046  0  0.216313  0.559304  0  4.235254  0
N  N92  1  0.79835198  0.62589504  0.11392759  1  0  -0.338704  0  3.235251  0  0  -0.259323  0  3.481547  0  0  -0.277099  0  3.501668  0  -1.266544  0  -0.295069  -0.247386  0  3.467558  0
N  N93  1  0.54749105  0.87673492  0.38264012  1  0  -0.337805  0  3.222183  0  0  -0.259555  0  3.470126  0  0  -0.277255  0  3.489836  0  -1.276282  0  -0.294484  -0.247635  0  3.456355  0
N  N94  1  0.20162059  0.37409428  0.88607011  1  0  -0.338384  0  3.235337  0  0  -0.259009  0  3.481706  0  0  -0.276784  0  3.501826  0  -1.266215  0  -0.294949  -0.247074  0  3.467718  0
N  N95  1  0.45250212  0.12326780  0.61736899  1  0  -0.337817  0  3.221972  0  0  -0.259587  0  3.469917  0  0  -0.277283  0  3.489625  0  -1.276172  0  -0.294446  -0.247665  0  3.456151  0
O  O96  1  0.07781315  0.85281170  0.86510077  1  0  -0.632887  0  2.034037  0  0  -0.558246  0  2.268606  0  0  -0.58522  0  2.26171  0  -1.187611  0  -0.291997  -0.539392  0  2.2725  0
O  O97  1  0.80012102  0.64840333  0.63767663  1  0  -0.633747  0  2.037732  0  0  -0.559852  0  2.273126  0  0  -0.586726  0  2.266143  0  -1.182377  0  -0.293445  -0.541061  0  2.277064  0
O  O98  1  0.92219615  0.14717929  0.13489806  1  0  -0.632807  0  2.034296  0  0  -0.558165  0  2.268914  0  0  -0.585137  0  2.262004  0  -1.187706  0  -0.292053  -0.539317  0  2.272814  0
O  O99  1  0.19988589  0.35160191  0.36232648  1  0  -0.633652  0  2.037469  0  0  -0.559791  0  2.272938  0  0  -0.586659  0  2.265943  0  -1.1826  0  -0.293378  -0.540998  0  2.276882  0
O  O100  1  0.78050418  0.98558613  0.86110864  1  0  -0.602126  0  1.943245  0  0  -0.554178  0  2.16859  0  0  -0.577679  0  2.162189  0  -1.179105  0  -0.305894  -0.53784  0  2.172445  0
O  O101  1  0.61801810  0.51926803  0.64232579  1  0  -0.602941  0  1.922491  0  0  -0.55476  0  2.14423  0  0  -0.578177  0  2.137883  0  -1.18322  0  -0.307156  -0.538507  0  2.148058  0
O  O102  1  0.21951466  0.01440487  0.13889000  1  0  -0.602126  0  1.942874  0  0  -0.554186  0  2.16828  0  0  -0.577694  0  2.161885  0  -1.178852  0  -0.305914  -0.537842  0  2.172121  0
O  O103  1  0.38198431  0.48073553  0.35768289  1  0  -0.602962  0  1.922429  0  0  -0.554776  0  2.144218  0  0  -0.578189  0  2.137869  0  -1.183439  0  -0.307113  -0.538523  0  2.148047  0
