# generated using pymatgen
data_Cd2H18C26N4O13
_symmetry_space_group_name_H-M   'P 1'
_cell_length_a   14.49363698
_cell_length_b   15.54140128
_cell_length_c   16.49701903
_cell_angle_alpha   89.99978541
_cell_angle_beta   90.00016756
_cell_angle_gamma   116.39403412
_symmetry_Int_Tables_number   1
_chemical_formula_structural   Cd2H18C26N4O13
_chemical_formula_sum   'Cd8 H72 C104 N16 O52'
_cell_volume   3328.61641041
_cell_formula_units_Z   4
loop_
 _symmetry_equiv_pos_site_id
 _symmetry_equiv_pos_as_xyz
  1  'x, y, z'
loop_
 _atom_site_type_symbol
 _atom_site_label
 _atom_site_symmetry_multiplicity
 _atom_site_fract_x
 _atom_site_fract_y
 _atom_site_fract_z
 _atom_site_occupancy
 _atom_site_pbe_bader_charge
 _atom_site_pbe_bader_spin_density
 _atom_site_pbe_cm5_charge
 _atom_site_pbe_ddec_charge
 _atom_site_pbe_ddec_spin_density
 _atom_site_pbe_ddec_sum_bond_order
 _atom_site_pbe_magmom
Cd  Cd0  1  0.83531912  0.20828983  0.36959353  1  1.300404  0  0.777191  0.935885  0  2.184172  0
Cd  Cd1  1  0.66468079  0.29171082  0.86959320  1  1.300434  0  0.777184  0.935872  0  2.18418  0
Cd  Cd2  1  0.16468080  0.79171014  0.63040544  1  1.300419  0  0.777194  0.93584  0  2.184264  0
Cd  Cd3  1  0.33531741  0.70828843  0.13040577  1  1.300432  0  0.777181  0.935871  0  2.184214  0
Cd  Cd4  1  0.12133187  0.27140577  0.36414668  1  1.29955  0  0.780371  0.928879  0  2.195364  0
Cd  Cd5  1  0.37866959  0.22859555  0.86414469  1  1.2996  0  0.780369  0.928908  0  2.195325  0
Cd  Cd6  1  0.87867012  0.72859422  0.63585593  1  1.299551  0  0.780345  0.928838  0  2.195428  0
Cd  Cd7  1  0.62133066  0.77140658  0.13585247  1  1.299585  0  0.780368  0.92888  0  2.19537  0
H  H8  1  0.32058346  0.34667982  0.48212933  1  0.157067  0  0.12209  0.114658  0  0.983592  0
H  H9  1  0.17941614  0.15332111  0.98212891  1  0.157071  0  0.122073  0.114615  0  0.983658  0
H  H10  1  0.67941854  0.65332016  0.51787207  1  0.157063  0  0.122049  0.114605  0  0.983618  0
H  H11  1  0.82058170  0.84668029  0.01787188  1  0.157033  0  0.122049  0.114609  0  0.983626  0
H  H12  1  0.43320732  0.20637574  0.66565985  1  0.141956  0  0.117747  0.076395  0  1.030084  0
H  H13  1  0.06679312  0.29362336  0.16566041  1  0.141921  0  0.117766  0.076405  0  1.030038  0
H  H14  1  0.56679571  0.79362497  0.33434276  1  0.141944  0  0.117753  0.076412  0  1.030088  0
H  H15  1  0.93320337  0.70637374  0.83434220  1  0.141964  0  0.11775  0.076388  0  1.030077  0
H  H16  1  0.54054201  0.32274410  0.66405525  1  0.116212  0  0.11804  0.077949  0  1.026844  0
H  H17  1  0.95945891  0.17725723  0.16405419  1  0.116229  0  0.118068  0.077966  0  1.026865  0
H  H18  1  0.45945998  0.67725588  0.33594676  1  0.116282  0  0.118073  0.078003  0  1.026805  0
H  H19  1  0.04053928  0.82274346  0.83594539  1  0.11668  0  0.118072  0.077988  0  1.026786  0
H  H20  1  0.35489127  0.10161196  0.57648988  1  0.135841  0  0.116209  0.135078  0  1.017929  0
H  H21  1  0.14510935  0.39838814  0.07649027  1  0.135817  0  0.11621  0.135077  0  1.017919  0
H  H22  1  0.64511073  0.89838803  0.42351394  1  0.135857  0  0.116197  0.135083  0  1.017959  0
H  H23  1  0.85488781  0.60161182  0.92351355  1  0.13587  0  0.11622  0.135096  0  1.017921  0
H  H24  1  0.64063283  0.15719059  0.49022608  1  0.086002  0  0.12502  0.113461  0  0.973202  0
H  H25  1  0.85937142  0.34281256  0.99022303  1  0.085974  0  0.125015  0.113481  0  0.973116  0
H  H26  1  0.35936742  0.84281154  0.50977350  1  0.085967  0  0.125015  0.113457  0  0.97315  0
H  H27  1  0.14063193  0.65719173  0.00977352  1  0.086029  0  0.125027  0.113475  0  0.973204  0
H  H28  1  0.65110053  0.41914951  0.59075773  1  0.078853  0  0.116214  0.134214  0  1.01067  0
H  H29  1  0.84889714  0.08085276  0.09076219  1  0.078944  0  0.116207  0.134246  0  1.010651  0
H  H30  1  0.34890111  0.58085119  0.40924306  1  0.078852  0  0.116213  0.134232  0  1.010698  0
H  H31  1  0.15109931  0.91915007  0.90924042  1  0.078845  0  0.116196  0.134206  0  1.010743  0
H  H32  1  0.89766135  0.41735070  0.44784072  1  0.183697  0  0.115481  0.097298  0  1.035945  0
H  H33  1  0.60234007  0.08265115  0.94784217  1  0.183737  0  0.115492  0.097297  0  1.03597  0
H  H34  1  0.10234029  0.58265000  0.55216129  1  0.184081  0  0.115472  0.097278  0  1.035971  0
H  H35  1  0.39766088  0.91735098  0.05215923  1  0.183706  0  0.115475  0.097283  0  1.035928  0
H  H36  1  0.92197399  0.52006565  0.31996110  1  0.112516  0  0.115393  0.128587  0  1.017205  0
H  H37  1  0.57802263  0.97993525  0.81995867  1  0.112125  0  0.115421  0.128657  0  1.017205  0
H  H38  1  0.07802732  0.47993433  0.68003848  1  0.112508  0  0.115398  0.128635  0  1.017178  0
H  H39  1  0.42197314  0.02006471  0.18003788  1  0.112496  0  0.115421  0.128677  0  1.017197  0
H  H40  1  0.84257366  0.63385804  0.29940799  1  0.073507  0  0.111997  0.04903  0  0.973209  0
H  H41  1  0.65742604  0.86614222  0.79940920  1  0.073512  0  0.112002  0.049031  0  0.97321  0
H  H42  1  0.15742489  0.36614050  0.70058977  1  0.073518  0  0.112  0.049035  0  0.973201  0
H  H43  1  0.34257594  0.13385920  0.20059220  1  0.073539  0  0.112019  0.049057  0  0.973172  0
H  H44  1  0.91398233  0.63374943  0.39007174  1  0.150991  0  0.120237  0.076401  0  1.037173  0
H  H45  1  0.58601924  0.86625269  0.89007276  1  0.150903  0  0.120213  0.076358  0  1.037192  0
H  H46  1  0.08601862  0.36625127  0.60992663  1  0.150952  0  0.120228  0.076363  0  1.03724  0
H  H47  1  0.41398136  0.13374872  0.10992864  1  0.150946  0  0.120223  0.076432  0  1.037177  0
H  H48  1  0.99215979  0.93930047  0.37412054  1  0.16146  0  0.119844  0.145113  0  1.008921  0
H  H49  1  0.50783866  0.56069954  0.87412122  1  0.161431  0  0.119821  0.145044  0  1.008934  0
H  H50  1  0.00783978  0.06070022  0.62587661  1  0.161429  0  0.11984  0.145089  0  1.008932  0
H  H51  1  0.49216057  0.43930043  0.12587896  1  0.161453  0  0.119828  0.145058  0  1.00891  0
H  H52  1  0.77978784  0.96681864  0.20289292  1  0.137207  0  0.117136  0.094131  0  1.039387  0
H  H53  1  0.72021272  0.53318122  0.70289485  1  0.137229  0  0.117127  0.094112  0  1.039454  0
H  H54  1  0.22021242  0.03318206  0.79710484  1  0.137243  0  0.117139  0.094133  0  1.039433  0
H  H55  1  0.27978754  0.46681947  0.29710533  1  0.137206  0  0.117137  0.09413  0  1.039419  0
H  H56  1  0.74003868  0.69476681  0.26572834  1  0.082227  0  0.122702  0.108998  0  0.991183  0
H  H57  1  0.75996165  0.80523356  0.76572941  1  0.082227  0  0.122708  0.108976  0  0.991172  0
H  H58  1  0.25996263  0.30523317  0.73426882  1  0.082227  0  0.122692  0.109008  0  0.991169  0
H  H59  1  0.24003861  0.19476713  0.23427199  1  0.082232  0  0.122709  0.108988  0  0.991175  0
H  H60  1  0.17163394  0.77191604  0.21463097  1  0.14088  0  0.126145  0.113125  0  0.971851  0
H  H61  1  0.32836616  0.72808154  0.71463067  1  0.140829  0  0.126142  0.113119  0  0.971845  0
H  H62  1  0.82836702  0.22808322  0.78536861  1  0.14086  0  0.126149  0.113119  0  0.971838  0
H  H63  1  0.67163553  0.27191342  0.28536891  1  0.140896  0  0.126151  0.113135  0  0.971811  0
H  H64  1  0.18005647  0.50854212  0.20125630  1  0.123993  0  0.115677  0.092333  0  1.037259  0
H  H65  1  0.31993741  0.99145262  0.70125142  1  0.123852  0  0.115637  0.092323  0  1.037256  0
H  H66  1  0.81994312  0.49145570  0.79874388  1  0.124033  0  0.115664  0.092342  0  1.037225  0
H  H67  1  0.68005876  0.00854089  0.29874271  1  0.123952  0  0.115673  0.092344  0  1.037279  0
H  H68  1  0.09753163  0.07118097  0.43001163  1  0.146136  0  0.114399  0.092696  0  1.051562  0
H  H69  1  0.40246928  0.42881726  0.93001263  1  0.146032  0  0.114409  0.092709  0  1.051546  0
H  H70  1  0.90247315  0.92881615  0.56998674  1  0.146266  0  0.114413  0.092679  0  1.051518  0
H  H71  1  0.59752752  0.57118485  0.06998695  1  0.146278  0  0.114422  0.092706  0  1.051471  0
H  H72  1  0.01290056  0.31209395  0.47595940  1  0.652379  0  0.285276  0.380682  0  0.966005  0
H  H73  1  0.48710007  0.18790629  0.97595964  1  0.652378  0  0.285277  0.380702  0  0.965985  0
H  H74  1  0.98709833  0.68790530  0.52404018  1  0.65237  0  0.285283  0.380708  0  0.96596  0
H  H75  1  0.51290055  0.81209369  0.02403872  1  0.65237  0  0.285259  0.380694  0  0.965986  0
H  H76  1  0.95957381  0.18728178  0.48486062  1  0.65619  0  0.28354  0.383681  0  0.963724  0
H  H77  1  0.54042631  0.31271850  0.98485989  1  0.656189  0  0.283532  0.383657  0  0.96376  0
H  H78  1  0.04042716  0.81271748  0.51513957  1  0.656215  0  0.283556  0.383694  0  0.963706  0
H  H79  1  0.45957154  0.68728147  0.01513908  1  0.656204  0  0.283539  0.383667  0  0.963743  0
C  C80  1  0.29447292  0.26950485  0.48921798  1  0.487386  0  0.038022  -0.019435  0  3.925358  0
C  C81  1  0.20552809  0.23049463  0.98921857  1  0.48737  0  0.038021  -0.019426  0  3.925392  0
C  C82  1  0.70553183  0.73049658  0.51078402  1  0.487423  0  0.038026  -0.019453  0  3.925423  0
C  C83  1  0.79446872  0.76950606  0.01078343  1  0.487233  0  0.038114  -0.019308  0  3.925389  0
C  C84  1  0.34998103  0.23372064  0.53651394  1  0.409723  0  0.084979  0.217134  0  4.067928  0
C  C85  1  0.15001952  0.26627959  0.03651359  1  0.409749  0  0.084989  0.217184  0  4.067729  0
C  C86  1  0.65002200  0.76628007  0.46348807  1  0.460733  0  0.084938  0.217105  0  4.06791  0
C  C87  1  0.84997901  0.73372181  0.96348841  1  0.460877  0  0.084915  0.217029  0  4.067994  0
C  C88  1  0.48785333  0.26306123  0.62668611  1  0.854258  0  0.019004  0.157724  0  3.889489  0
C  C89  1  0.01214599  0.23694013  0.12668673  1  0.854266  0  0.018971  0.157756  0  3.889453  0
C  C90  1  0.51214902  0.73693803  0.37331529  1  0.854152  0  0.018943  0.157655  0  3.889645  0
C  C91  1  0.98785013  0.76306055  0.87331406  1  0.853699  0  0.01897  0.157706  0  3.889479  0
C  C92  1  0.31402486  0.13437400  0.54308798  1  -0.000558  0  -0.081629  -0.189937  0  3.938293  0
C  C93  1  0.18597605  0.36562549  0.04308799  1  -0.000523  0  -0.081617  -0.18992  0  3.938303  0
C  C94  1  0.68597851  0.86562742  0.45691403  1  -0.051395  0  -0.081657  -0.190046  0  3.938366  0
C  C95  1  0.81402145  0.63437520  0.95691341  1  -0.051373  0  -0.081647  -0.189998  0  3.9382  0
C  C96  1  0.22160939  0.07417951  0.50515687  1  0.053519  0  -0.014214  -0.04697  0  3.979781  0
C  C97  1  0.27839146  0.42581867  0.00515872  1  0.053514  0  -0.01423  -0.04705  0  3.97981  0
C  C98  1  0.77839605  0.92582192  0.49484453  1  0.053403  0  -0.014185  -0.046931  0  3.979808  0
C  C99  1  0.72160503  0.57417842  0.99484450  1  0.053423  0  -0.014191  -0.046935  0  3.979728  0
C  C100  1  0.17687522  0.96655170  0.51545650  1  1.575267  0  0.204674  0.576508  0  4.218631  0
C  C101  1  0.32312866  0.53344655  0.01545863  1  1.575317  0  0.204626  0.576562  0  4.218582  0
C  C102  1  0.82313161  0.03344830  0.48454368  1  1.574743  0  0.204637  0.576553  0  4.218699  0
C  C103  1  0.67686678  0.46655126  0.98454398  1  1.574746  0  0.204656  0.576559  0  4.218679  0
C  C104  1  0.67919912  0.23479200  0.49978833  1  0.566869  0  0.041527  -0.019094  0  3.930155  0
C  C105  1  0.82080273  0.26521039  0.99978848  1  0.567089  0  0.041489  -0.019189  0  3.930037  0
C  C106  1  0.32080114  0.76520870  0.50021247  1  0.56688  0  0.041547  -0.019078  0  3.93003  0
C  C107  1  0.17919854  0.73479389  0.00021110  1  0.566913  0  0.041545  -0.019097  0  3.930193  0
C  C108  1  0.63327692  0.27941288  0.54800296  1  0.437399  0  0.089742  0.225435  0  4.056928  0
C  C109  1  0.86672310  0.22058882  0.04800576  1  0.478341  0  0.089716  0.225464  0  4.056962  0
C  C110  1  0.36672473  0.72058782  0.45199783  1  0.437414  0  0.089745  0.225475  0  4.056793  0
C  C111  1  0.13327370  0.77941330  0.95199685  1  0.437389  0  0.089729  0.225406  0  4.056975  0
C  C112  1  0.68365675  0.37906101  0.55701114  1  0.045638  0  -0.078335  -0.178709  0  3.92386  0
C  C113  1  0.81634050  0.12094353  0.05701295  1  0.004404  0  -0.078354  -0.178835  0  3.92402  0
C  C114  1  0.31634248  0.62093897  0.44298965  1  0.045677  0  -0.07837  -0.178838  0  3.92403  0
C  C115  1  0.18365731  0.87906218  0.94298724  1  0.045614  0  -0.078357  -0.178767  0  3.923995  0
C  C116  1  0.78033750  0.42986282  0.52123926  1  0.012802  0  -0.014777  -0.052523  0  3.982896  0
C  C117  1  0.71966697  0.07013827  0.02124160  1  0.012393  0  -0.014824  -0.052524  0  3.982801  0
C  C118  1  0.21966554  0.57013645  0.47876335  1  0.012761  0  -0.014788  -0.052517  0  3.982942  0
C  C119  1  0.28033606  0.92986243  0.97876040  1  0.012748  0  -0.014803  -0.052574  0  3.982965  0
C  C120  1  0.83845370  0.53729397  0.53199382  1  1.578709  0  0.207553  0.575528  0  4.215291  0
C  C121  1  0.66154724  0.96270787  0.03199766  1  1.579041  0  0.207563  0.575554  0  4.215324  0
C  C122  1  0.16154658  0.46270529  0.46800879  1  1.578611  0  0.207577  0.575533  0  4.215297  0
C  C123  1  0.33845577  0.03729426  0.96800495  1  1.57873  0  0.207538  0.575586  0  4.215286  0
C  C124  1  0.82202259  0.37998828  0.47562631  1  0.479985  0  0.039152  0.052377  0  3.926558  0
C  C125  1  0.67797647  0.12001274  0.97562843  1  0.480024  0  0.03918  0.05244  0  3.926469  0
C  C126  1  0.17797837  0.62001241  0.52437509  1  0.479637  0  0.0392  0.052472  0  3.926554  0
C  C127  1  0.32202205  0.87999010  0.02437357  1  0.479965  0  0.039191  0.05247  0  3.926488  0
C  C128  1  0.00190978  0.39733544  0.28497321  1  1.629771  0  0.212131  0.599827  0  4.199454  0
C  C129  1  0.49808500  0.10266252  0.78496894  1  1.629696  0  0.212236  0.599888  0  4.199563  0
C  C130  1  0.99808877  0.60266309  0.71502637  1  1.629782  0  0.212159  0.599871  0  4.199267  0
C  C131  1  0.50190976  0.89733528  0.21502640  1  1.629911  0  0.212141  0.599879  0  4.199302  0
C  C132  1  0.04526018  0.50252824  0.26330917  1  -0.005188  0  -0.01026  -0.040634  0  3.959764  0
C  C133  1  0.45473723  0.99747061  0.76330400  1  -0.005546  0  -0.010259  -0.040666  0  3.959846  0
C  C134  1  0.95473941  0.49746958  0.73669162  1  -0.005504  0  -0.010266  -0.040618  0  3.959801  0
C  C135  1  0.54526063  0.00252792  0.23669073  1  -0.005209  0  -0.01028  -0.040726  0  3.959851  0
C  C136  1  0.99463558  0.55651052  0.28765832  1  0.005396  0  -0.079583  -0.188106  0  3.927252  0
C  C137  1  0.50536203  0.94348833  0.78765523  1  0.005881  0  -0.079618  -0.188186  0  3.927323  0
C  C138  1  0.00536435  0.44348802  0.71234126  1  0.00544  0  -0.079604  -0.188262  0  3.927274  0
C  C139  1  0.49463446  0.05650876  0.21234314  1  0.005422  0  -0.079588  -0.188222  0  3.927315  0
C  C140  1  0.04034684  0.65499610  0.27093209  1  0.485845  0  0.090894  0.225854  0  4.074789  0
C  C141  1  0.45965231  0.84500346  0.77093050  1  0.485834  0  0.09091  0.225862  0  4.074769  0
C  C142  1  0.95965206  0.34500173  0.72906809  1  0.48585  0  0.090952  0.226008  0  4.074679  0
C  C143  1  0.54034866  0.15499580  0.22906786  1  0.485859  0  0.090915  0.225944  0  4.074769  0
C  C144  1  0.90766078  0.67697459  0.33970377  1  0.870093  0  0.030322  0.169922  0  3.917562  0
C  C145  1  0.59233864  0.82302625  0.83970435  1  0.870143  0  0.030365  0.169992  0  3.917671  0
C  C146  1  0.09233915  0.32302538  0.66029399  1  0.869999  0  0.030293  0.169887  0  3.917659  0
C  C147  1  0.40766231  0.17697445  0.16029705  1  0.870033  0  0.030371  0.169923  0  3.917625  0
C  C148  1  0.87055184  0.81070220  0.32571550  1  0.424307  0  0.089331  0.216909  0  4.047252  0
C  C149  1  0.62944755  0.68929868  0.82571604  1  0.424316  0  0.08936  0.216902  0  4.047294  0
C  C150  1  0.12944842  0.18929849  0.67428286  1  0.424432  0  0.089393  0.216956  0  4.047241  0
C  C151  1  0.37055237  0.31070129  0.17428475  1  0.424306  0  0.089321  0.216863  0  4.047267  0
C  C152  1  0.92617697  0.91015124  0.33324343  1  0.039848  0  -0.062916  -0.146977  0  3.873654  0
C  C153  1  0.57382071  0.58984890  0.83324236  1  0.040532  0  -0.062906  -0.146874  0  3.87367  0
C  C154  1  0.07382122  0.08984945  0.66675615  1  0.040613  0  -0.062906  -0.146955  0  3.873723  0
C  C155  1  0.42617921  0.41015107  0.16675783  1  0.040107  0  -0.062899  -0.146856  0  3.873639  0
C  C156  1  0.89357590  0.96834545  0.28918926  1  0.008067  0  -0.008678  -0.046846  0  3.952568  0
C  C157  1  0.60642309  0.53165484  0.78919030  1  0.007145  0  -0.008705  -0.046896  0  3.952711  0
C  C158  1  0.10642367  0.03165524  0.71080850  1  0.007271  0  -0.008667  -0.046798  0  3.952615  0
C  C159  1  0.39357684  0.46834514  0.21081049  1  0.007792  0  -0.008713  -0.046916  0  3.952665  0
C  C160  1  0.80803167  0.92446770  0.23837944  1  0.476596  0  0.045069  0.057067  0  3.919294  0
C  C161  1  0.69196861  0.57553275  0.73838115  1  0.476846  0  0.045055  0.05706  0  3.919435  0
C  C162  1  0.19196859  0.07553299  0.76161832  1  0.476874  0  0.045072  0.057036  0  3.919528  0
C  C163  1  0.30803235  0.42446794  0.26161964  1  0.47661  0  0.045091  0.057079  0  3.919413  0
C  C164  1  0.78630267  0.77203282  0.27312778  1  0.546021  0  0.035419  -0.043353  0  3.956637  0
C  C165  1  0.71369905  0.72796753  0.77313022  1  0.546024  0  0.035479  -0.043195  0  3.956635  0
C  C166  1  0.21369897  0.22796788  0.72686998  1  0.545889  0  0.035417  -0.04339  0  3.956717  0
C  C167  1  0.28630259  0.27203317  0.22687178  1  0.546015  0  0.035483  -0.043243  0  3.956622  0
C  C168  1  0.94559857  0.07641399  0.29602243  1  1.586756  0  0.209069  0.588327  0  4.216148  0
C  C169  1  0.55440190  0.42358547  0.79602317  1  1.586771  0  0.20905  0.588266  0  4.216324  0
C  C170  1  0.05440135  0.92358598  0.70397775  1  1.586532  0  0.209126  0.588385  0  4.216156  0
C  C171  1  0.44559974  0.57641523  0.20397762  1  1.586785  0  0.209105  0.588354  0  4.216108  0
C  C172  1  0.13415642  0.69530499  0.22852630  1  0.518943  0  0.042394  -0.020042  0  3.92745  0
C  C173  1  0.36584163  0.80469255  0.72852643  1  0.518575  0  0.042367  -0.020053  0  3.927446  0
C  C174  1  0.86584351  0.30469355  0.77147268  1  0.518532  0  0.04235  -0.020102  0  3.927406  0
C  C175  1  0.63415868  0.19530241  0.27147133  1  0.518714  0  0.042451  -0.019991  0  3.927478  0
C  C176  1  0.13835842  0.54795229  0.22155136  1  0.456982  0  0.040638  0.053121  0  3.919071  0
C  C177  1  0.36163996  0.95204599  0.72154612  1  0.457397  0  0.04067  0.053167  0  3.919167  0
C  C178  1  0.86164185  0.45204697  0.77844882  1  0.457236  0  0.0407  0.05321  0  3.918992  0
C  C179  1  0.63835758  0.04794896  0.27844861  1  0.456927  0  0.04067  0.053218  0  3.918915  0
C  C180  1  0.16984879  0.11521938  0.46027347  1  0.489346  0  0.039691  0.052353  0  3.927944  0
C  C181  1  0.33015217  0.38477876  0.96027505  1  0.489431  0  0.039648  0.05235  0  3.928032  0
C  C182  1  0.83015665  0.88478205  0.53972429  1  0.489104  0  0.039667  0.052345  0  3.927836  0
C  C183  1  0.66984397  0.61521905  0.03972453  1  0.48913  0  0.03965  0.052315  0  3.927863  0
N  N184  1  0.77087233  0.28450480  0.46413100  1  -1.255377  0  -0.325865  -0.231062  0  3.546556  0
N  N185  1  0.72913223  0.21549628  0.96412989  1  -1.255415  0  -0.325845  -0.231049  0  3.546578  0
N  N186  1  0.22913068  0.71549734  0.53586918  1  -1.25539  0  -0.325896  -0.231105  0  3.546582  0
N  N187  1  0.27087080  0.78450442  0.03586848  1  -1.255296  0  -0.325872  -0.231086  0  3.546505  0
N  N188  1  0.75709291  0.82883786  0.22968040  1  -1.220877  0  -0.327919  -0.214746  0  3.549632  0
N  N189  1  0.74290805  0.67116263  0.72968251  1  -1.220872  0  -0.327901  -0.214782  0  3.549703  0
N  N190  1  0.24290771  0.17116212  0.77031736  1  -1.220883  0  -0.327961  -0.214771  0  3.549843  0
N  N191  1  0.25709360  0.32883807  0.27031889  1  -1.220861  0  -0.327948  -0.214769  0  3.549694  0
N  N192  1  0.20695377  0.21082002  0.45166210  1  -1.250822  0  -0.328344  -0.226964  0  3.557834  0
N  N193  1  0.29304578  0.28917957  0.95166210  1  -1.250938  0  -0.328339  -0.226989  0  3.557983  0
N  N194  1  0.79304926  0.78917925  0.54833748  1  -1.250906  0  -0.328286  -0.226843  0  3.557798  0
N  N195  1  0.70695138  0.71082039  0.04833627  1  -1.25091  0  -0.328369  -0.22699  0  3.557891  0
N  N196  1  0.18085490  0.64234876  0.20417053  1  -1.238329  0  -0.324859  -0.219928  0  3.556893  0
N  N197  1  0.31914448  0.85765029  0.70416915  1  -1.237994  0  -0.324822  -0.219896  0  3.556947  0
N  N198  1  0.81914331  0.35764906  0.79583086  1  -1.237918  0  -0.324837  -0.219927  0  3.55676  0
N  N199  1  0.68085685  0.14234682  0.29582982  1  -1.238044  0  -0.324926  -0.220052  0  3.556944  0
O  O200  1  0.79204454  0.57799294  0.56974960  1  -1.179348  0  -0.330298  -0.57008  0  2.265076  0
O  O201  1  0.70795718  0.92200591  0.06974582  1  -1.179386  0  -0.330302  -0.570095  0  2.265147  0
O  O202  1  0.20795816  0.42200561  0.43025483  1  -1.179326  0  -0.330285  -0.570079  0  2.265081  0
O  O203  1  0.29204377  0.07799478  0.93025436  1  -1.179365  0  -0.330285  -0.570105  0  2.265056  0
O  O204  1  0.43699537  0.30052001  0.57373823  1  -1.072804  0  -0.18773  -0.230374  0  2.514611  0
O  O205  1  0.06300249  0.19947865  0.07373851  1  -1.072753  0  -0.18773  -0.230425  0  2.514425  0
O  O206  1  0.56300732  0.69947997  0.42626499  1  -1.072732  0  -0.187641  -0.230293  0  2.514724  0
O  O207  1  0.93699295  0.80052059  0.92626410  1  -1.072736  0  -0.187659  -0.230311  0  2.5147  0
O  O208  1  0.23063196  0.93564909  0.55627673  1  -1.173959  0  -0.337908  -0.57449  0  2.24777  0
O  O209  1  0.26936993  0.56434902  0.05627861  1  -1.173903  0  -0.33785  -0.574499  0  2.247739  0
O  O210  1  0.76937039  0.06434874  0.44372407  1  -1.173788  0  -0.337896  -0.57453  0  2.247691  0
O  O211  1  0.73062826  0.43565167  0.94372339  1  -1.173756  0  -0.33789  -0.574515  0  2.24769  0
O  O212  1  0.54100667  0.21978248  0.58281530  1  -1.082178  0  -0.181245  -0.219673  0  2.5274  0
O  O213  1  0.95899375  0.28021983  0.08281691  1  -1.082254  0  -0.181222  -0.219675  0  2.527446  0
O  O214  1  0.45899532  0.78021894  0.41718489  1  -1.082184  0  -0.181257  -0.219682  0  2.527358  0
O  O215  1  0.04100546  0.71978301  0.91718510  1  -1.082185  0  -0.181242  -0.219611  0  2.527423  0
O  O216  1  0.92888926  0.57837454  0.50222606  1  -1.185321  0  -0.315138  -0.543832  0  2.197251  0
O  O217  1  0.57111335  0.92162813  0.00222739  1  -1.185234  0  -0.31508  -0.543777  0  2.19725  0
O  O218  1  0.07111030  0.42162759  0.49777413  1  -1.185243  0  -0.315147  -0.543811  0  2.19728  0
O  O219  1  0.42889035  0.07837545  0.99777279  1  -1.185345  0  -0.31512  -0.543852  0  2.197294  0
O  O220  1  0.88994689  0.11872878  0.28159544  1  -1.194635  0  -0.330226  -0.579584  0  2.287803  0
O  O221  1  0.61005322  0.38127001  0.78159647  1  -1.194663  0  -0.330195  -0.579515  0  2.287984  0
O  O222  1  0.11005167  0.88126976  0.71840353  1  -1.194627  0  -0.330246  -0.579618  0  2.287893  0
O  O223  1  0.38994842  0.61873069  0.21840372  1  -1.194637  0  -0.330234  -0.579586  0  2.287825  0
O  O224  1  0.90806831  0.35630216  0.30732636  1  -1.167896  0  -0.330892  -0.562413  0  2.246966  0
O  O225  1  0.59192702  0.14369510  0.80732454  1  -1.167682  0  -0.331008  -0.562507  0  2.246905  0
O  O226  1  0.09193092  0.64369925  0.69267383  1  -1.167855  0  -0.330911  -0.56243  0  2.246874  0
O  O227  1  0.40806601  0.85630198  0.19267261  1  -1.167936  0  -0.330949  -0.562486  0  2.246835  0
O  O228  1  0.00118450  0.71661333  0.29271344  1  -1.059506  0  -0.183654  -0.225857  0  2.511798  0
O  O229  1  0.49881709  0.78338831  0.79271339  1  -1.059471  0  -0.183637  -0.225827  0  2.51182  0
O  O230  1  0.99881509  0.28338593  0.70728371  1  -1.059505  0  -0.183661  -0.225895  0  2.511816  0
O  O231  1  0.50118593  0.21661239  0.20728619  1  -1.059395  0  -0.183702  -0.225901  0  2.511805  0
O  O232  1  0.89826491  0.75436430  0.37513669  1  -1.082642  0  -0.173899  -0.200412  0  2.557152  0
O  O233  1  0.60173595  0.74563787  0.87513696  1  -1.082667  0  -0.173977  -0.200512  0  2.557257  0
O  O234  1  0.10173708  0.24563712  0.62486047  1  -1.082617  0  -0.173956  -0.200413  0  2.557156  0
O  O235  1  0.39826465  0.25436355  0.12486383  1  -1.082638  0  -0.173967  -0.200492  0  2.557205  0
O  O236  1  0.06347741  0.35984793  0.27978575  1  -1.192491  0  -0.328596  -0.581876  0  2.331954  0
O  O237  1  0.43651942  0.14015149  0.77978362  1  -1.192582  0  -0.328619  -0.581901  0  2.332147  0
O  O238  1  0.93652285  0.64015276  0.72021504  1  -1.192496  0  -0.32861  -0.581888  0  2.33194  0
O  O239  1  0.56347430  0.85984559  0.22021293  1  -1.192611  0  -0.32858  -0.581862  0  2.331991  0
O  O240  1  0.08874600  0.91653692  0.48439268  1  -1.173594  0  -0.31554  -0.539117  0  2.179128  0
O  O241  1  0.41125490  0.58346338  0.98439310  1  -1.173609  0  -0.315515  -0.539093  0  2.179112  0
O  O242  1  0.91126082  0.08346451  0.51560629  1  -1.173207  0  -0.315512  -0.539114  0  2.179249  0
O  O243  1  0.58873915  0.41653586  0.01560648  1  -1.17324  0  -0.31553  -0.539123  0  2.179261  0
O  O244  1  0.04077706  0.11595105  0.31460517  1  -1.170369  0  -0.327429  -0.55701  0  2.250286  0
O  O245  1  0.45922327  0.38405114  0.81460587  1  -1.170363  0  -0.327417  -0.556986  0  2.250263  0
O  O246  1  0.95922216  0.88405036  0.68539501  1  -1.17039  0  -0.327443  -0.557011  0  2.250232  0
O  O247  1  0.54077769  0.61594955  0.18539492  1  -1.170411  0  -0.327447  -0.55702  0  2.250269  0
O  O248  1  0.98313773  0.24678115  0.44743136  1  -1.270682  0  -0.580404  -0.776639  0  2.268924  0
O  O249  1  0.51686197  0.25321997  0.94743138  1  -1.270683  0  -0.580403  -0.776642  0  2.26894  0
O  O250  1  0.01686150  0.75321883  0.55256822  1  -1.2707  0  -0.580407  -0.776642  0  2.268926  0
O  O251  1  0.48313761  0.74678072  0.05256698  1  -1.27069  0  -0.580374  -0.776646  0  2.268972  0
