# generated using pymatgen
data_NdH12(CO)12
_symmetry_space_group_name_H-M   'P 1'
_cell_length_a   8.10955565
_cell_length_b   9.82196949
_cell_length_c   10.79695085
_cell_angle_alpha   74.42156484
_cell_angle_beta   73.96813189
_cell_angle_gamma   74.53872673
_symmetry_Int_Tables_number   1
_chemical_formula_structural   NdH12(CO)12
_chemical_formula_sum   'Nd2 H24 C24 O24'
_cell_volume   778.79896014
_cell_formula_units_Z   2
loop_
 _symmetry_equiv_pos_site_id
 _symmetry_equiv_pos_as_xyz
  1  'x, y, z'
loop_
 _atom_site_type_symbol
 _atom_site_label
 _atom_site_symmetry_multiplicity
 _atom_site_fract_x
 _atom_site_fract_y
 _atom_site_fract_z
 _atom_site_occupancy
 _atom_site_hle17_bader_spin_density
 _atom_site_hle17_ddec_charge
 _atom_site_hle17_ddec_spin_density
 _atom_site_hle17_ddec_sum_bond_order
 _atom_site_hle17_magmom
 _atom_site_hse06_10hf_bader_spin_density
 _atom_site_hse06_10hf_ddec_charge
 _atom_site_hse06_10hf_ddec_spin_density
 _atom_site_hse06_10hf_ddec_sum_bond_order
 _atom_site_hse06_10hf_magmom
 _atom_site_hse06_bader_spin_density
 _atom_site_hse06_ddec_charge
 _atom_site_hse06_ddec_spin_density
 _atom_site_hse06_ddec_sum_bond_order
 _atom_site_hse06_magmom
 _atom_site_pbe_bader_spin_density
 _atom_site_pbe_cm5_charge
 _atom_site_pbe_ddec_charge
 _atom_site_pbe_ddec_spin_density
 _atom_site_pbe_ddec_sum_bond_order
 _atom_site_pbe_magmom
Nd  Nd0  1  0.54442766  0.30009787  0.14402030  1  0  2.28376  0  1.591591  0  0  2.117599  0  2.054859  0  0  2.216155  0  1.906052  0  0  1.473314  2.084597  0  2.089748  0
Nd  Nd1  1  0.45556982  0.69990204  0.85597917  1  0  2.283762  0  1.591564  0  0  2.117621  0  2.054781  0  0  2.216153  0  1.906024  0  0  1.473307  2.08462  0  2.089664  0
H  H2  1  0.48766575  0.46017665  0.71769771  1  0  0.366361  0  0.899882  0  0  0.341651  0  0.975496  0  0  0.350917  0  0.965361  0  0  0.309057  0.334583  0  0.983992  0
H  H3  1  0.51233741  0.53982111  0.28230203  1  0  0.366336  0  0.899917  0  0  0.341632  0  0.975527  0  0  0.350896  0  0.965397  0  0  0.309064  0.334565  0  0.98402  0
H  H4  1  0.31296644  0.23223709  0.46115374  1  0  0.396056  0  0.884356  0  0  0.36976  0  0.956912  0  0  0.381194  0  0.9441  0  0  0.309268  0.361715  0  0.9658  0
H  H5  1  0.68703899  0.76776174  0.53884714  1  0  0.396065  0  0.884323  0  0  0.369754  0  0.956909  0  0  0.381187  0  0.944103  0  0  0.309281  0.36171  0  0.965798  0
H  H6  1  0.59157981  0.14626916  0.52470790  1  0  0.411456  0  0.862962  0  0  0.38172  0  0.936359  0  0  0.393817  0  0.922881  0  0  0.314436  0.373331  0  0.945396  0
H  H7  1  0.40842151  0.85373076  0.47529171  1  0  0.411489  0  0.862898  0  0  0.381741  0  0.93631  0  0  0.393839  0  0.922831  0  0  0.31444  0.37335  0  0.945352  0
H  H8  1  0.65089820  0.99282212  0.16417469  1  0  0.439301  0  0.814365  0  0  0.422861  0  0.865682  0  0  0.430979  0  0.853941  0  0  0.32931  0.416922  0  0.873661  0
H  H9  1  0.34910073  0.00718214  0.83582254  1  0  0.43926  0  0.814423  0  0  0.42282  0  0.865739  0  0  0.430937  0  0.853999  0  0  0.329297  0.416878  0  0.873723  0
H  H10  1  0.46366328  0.98878229  0.25823864  1  0  0.44511  0  0.850377  0  0  0.411655  0  0.916187  0  0  0.423221  0  0.899477  0  0  0.302298  0.403499  0  0.928105  0
H  H11  1  0.53633548  0.01121763  0.74176057  1  0  0.445114  0  0.850368  0  0  0.411633  0  0.91622  0  0  0.423199  0  0.899511  0  0  0.302285  0.403475  0  0.928141  0
H  H12  1  0.17985424  0.32770836  0.11126892  1  0  0.431138  0  0.876272  0  0  0.393164  0  0.949867  0  0  0.406154  0  0.931407  0  0  0.295943  0.383995  0  0.962975  0
H  H13  1  0.82014267  0.67229368  0.88873295  1  0  0.431125  0  0.876291  0  0  0.393151  0  0.949888  0  0  0.40614  0  0.931429  0  0  0.295935  0.383979  0  0.963  0
H  H14  1  0.29343656  0.20445534  0.02852793  1  0  0.444488  0  0.800822  0  0  0.43076  0  0.84543  0  0  0.43872  0  0.835362  0  0  0.34017  0.424967  0  0.851971  0
H  H15  1  0.70656063  0.79554563  0.97147320  1  0  0.444481  0  0.80081  0  0  0.430754  0  0.845418  0  0  0.438714  0  0.835364  0  0  0.340165  0.42496  0  0.85196  0
H  H16  1  0.73027778  0.55373008  0.09189108  1  0  0.443999  0  0.849872  0  0  0.415915  0  0.906968  0  0  0.427009  0  0.890797  0  0  0.302508  0.408068  0  0.918566  0
H  H17  1  0.26972098  0.44626983  0.90810906  1  0  0.444002  0  0.849867  0  0  0.415919  0  0.906962  0  0  0.427012  0  0.890791  0  0  0.302508  0.408071  0  0.91856  0
H  H18  1  0.83719939  0.43033072  0.19164117  1  0  0.453244  0  0.837966  0  0  0.419837  0  0.903852  0  0  0.431426  0  0.887041  0  0  0.303054  0.411783  0  0.915563  0
H  H19  1  0.16280165  0.56967026  0.80835917  1  0  0.453254  0  0.837952  0  0  0.419848  0  0.903837  0  0  0.431437  0  0.887026  0  0  0.303067  0.411796  0  0.915541  0
H  H20  1  0.76359020  0.45397920  0.40467744  1  0  0.130357  0  0.939754  0  0  0.14012  0  0.999669  0  0  0.1442  0  0.996417  0  0  0.115074  0.137267  0  1.001947  0
H  H21  1  0.23641084  0.54602178  0.59532291  1  0  0.13026  0  0.93987  0  0  0.140061  0  0.999747  0  0  0.144138  0  0.996501  0  0  0.115047  0.137212  0  1.00201  0
H  H22  1  0.04556473  0.21366479  0.78269284  1  0  0.120319  0  0.923536  0  0  0.132392  0  0.978423  0  0  0.136757  0  0.975316  0  0  0.111147  0.129246  0  0.980932  0
H  H23  1  0.95443744  0.78633189  0.21730643  1  0  0.120324  0  0.92355  0  0  0.132449  0  0.978373  0  0  0.136774  0  0.975316  0  0  0.111175  0.129301  0  0.98089  0
H  H24  1  0.11280322  0.02709522  0.25763661  1  0  0.130519  0  0.91903  0  0  0.14089  0  0.976375  0  0  0.1453  0  0.972969  0  0  0.114802  0.137818  0  0.978751  0
H  H25  1  0.88719582  0.97290361  0.74236372  1  0  0.130525  0  0.919011  0  0  0.140891  0  0.976364  0  0  0.1453  0  0.972959  0  0  0.114811  0.137818  0  0.97874  0
C  C26  1  0.80796212  0.33437795  0.72126537  1  0  -0.155424  0  3.760068  0  0  -0.140032  0  4.002789  0  0  -0.146327  0  4.021077  0  0  -0.023247  -0.135732  0  3.989977  0
C  C27  1  0.19204120  0.66562413  0.27873425  1  0  -0.155515  0  3.760091  0  0  -0.140133  0  4.002803  0  0  -0.146426  0  4.021076  0  0  -0.023289  -0.13583  0  3.989991  0
C  C28  1  0.72723955  0.40397511  0.61387017  1  0  0.313031  0  3.789558  0  0  0.292597  0  4.066104  0  0  0.302766  0  4.080532  0  0  0.083383  0.285939  0  4.055741  0
C  C29  1  0.27276277  0.59602586  0.38613084  1  0  0.313057  0  3.789475  0  0  0.292642  0  4.066007  0  0  0.302812  0  4.080437  0  0  0.083397  0.285987  0  4.055642  0
C  C30  1  0.82818731  0.40316480  0.48637427  1  0  -0.141988  0  3.676994  0  0  -0.178369  0  3.941471  0  0  -0.178213  0  3.958261  0  0  -0.091113  -0.178348  0  3.930618  0
C  C31  1  0.17181501  0.59683620  0.51362488  1  0  -0.141922  0  3.677021  0  0  -0.178336  0  3.941491  0  0  -0.178182  0  3.95828  0  0  -0.0911  -0.178318  0  3.930636  0
C  C32  1  0.00760926  0.34035958  0.46266105  1  0  -0.201562  0  3.792939  0  0  -0.185596  0  4.03733  0  0  -0.197347  0  4.06161  0  0  -0.032738  -0.177592  0  4.022458  0
C  C33  1  0.99239462  0.65964035  0.53733803  1  0  -0.201451  0  3.792848  0  0  -0.185499  0  4.037215  0  0  -0.19725  0  4.061497  0  0  -0.032693  -0.177491  0  4.022338  0
C  C34  1  0.08920799  0.27518086  0.57146197  1  0  0.315568  0  3.816626  0  0  0.300343  0  4.082063  0  0  0.311732  0  4.099976  0  0  0.082685  0.29182  0  4.071849  0
C  C35  1  0.91079233  0.72481797  0.42853809  1  0  0.315453  0  3.816777  0  0  0.300271  0  4.082153  0  0  0.311663  0  4.100056  0  0  0.08268  0.291752  0  4.071933  0
C  C36  1  0.98587548  0.26928787  0.69885535  1  0  -0.165478  0  3.712338  0  0  -0.198512  0  3.972342  0  0  -0.202038  0  3.989859  0  0  -0.09529  -0.196124  0  3.961449  0
C  C37  1  0.01412584  0.73071205  0.30114426  1  0  -0.165456  0  3.712404  0  0  -0.198546  0  3.972377  0  0  -0.202039  0  3.989898  0  0  -0.095326  -0.196157  0  3.96148  0
C  C38  1  0.71077564  0.32732577  0.86011821  1  0  0.703018  0  3.876705  0  0  0.656852  0  4.164407  0  0  0.691892  0  4.158446  0  0  0.216853  0.6327  0  4.171938  0
C  C39  1  0.28922412  0.67267522  0.13988147  1  0  0.703099  0  3.876711  0  0  0.656943  0  4.164395  0  0  0.691984  0  4.15843  0  0  0.216917  0.632782  0  4.171938  0
C  C40  1  0.10986782  0.33797888  0.32653936  1  0  0.699529  0  3.841114  0  0  0.643226  0  4.143322  0  0  0.678558  0  4.136483  0  0  0.226591  0.618927  0  4.149163  0
C  C41  1  0.89013322  0.66202211  0.67346006  1  0  0.699524  0  3.840963  0  0  0.643232  0  4.143159  0  0  0.678565  0  4.136317  0  0  0.226572  0.618919  0  4.149013  0
C  C42  1  0.82064326  0.04889754  0.55161525  1  0  0.312871  0  3.781091  0  0  0.290415  0  4.052748  0  0  0.301047  0  4.069277  0  0  0.084129  0.282841  0  4.042252  0
C  C43  1  0.17935651  0.95110346  0.44838349  1  0  0.31279  0  3.781275  0  0  0.290379  0  4.052841  0  0  0.301014  0  4.069371  0  0  0.08412  0.282802  0  4.042346  0
C  C44  1  0.88715180  0.06475175  0.41400366  1  0  -0.157985  0  3.773865  0  0  -0.143434  0  4.018044  0  0  -0.1516  0  4.03807  0  0  -0.025932  -0.138  0  4.005412  0
C  C45  1  0.11284724  0.93524708  0.58599574  1  0  -0.158081  0  3.773967  0  0  -0.143551  0  4.018136  0  0  -0.151717  0  4.03816  0  0  -0.025969  -0.138113  0  4.005501  0
C  C46  1  0.06547241  0.01561789  0.36385141  1  0  -0.152782  0  3.700491  0  0  -0.187948  0  3.965497  0  0  -0.190104  0  3.983194  0  0  -0.090499  -0.186386  0  3.954587  0
C  C47  1  0.93452607  0.98438312  0.63614667  1  0  -0.152781  0  3.700366  0  0  -0.187925  0  3.965406  0  0  -0.190081  0  3.983101  0  0  -0.090516  -0.186362  0  3.954493  0
C  C48  1  0.77039744  0.13448019  0.32161448  1  0  0.652099  0  3.914301  0  0  0.602745  0  4.209924  0  0  0.636984  0  4.205557  0  0  0.191918  0.579081  0  4.215546  0
C  C49  1  0.22960159  0.86551863  0.67838678  1  0  0.652063  0  3.91435  0  0  0.602704  0  4.20998  0  0  0.636943  0  4.20561  0  0  0.191902  0.579037  0  4.215599  0
O  O50  1  0.73113324  0.21068144  0.94501101  1  0  -0.65147  0  1.914774  0  0  -0.60324  0  2.13823  0  0  -0.631138  0  2.125792  0  0  -0.36679  -0.587622  0  2.145939  0
O  O51  1  0.26886680  0.78931848  0.05498793  1  0  -0.651526  0  1.914817  0  0  -0.603305  0  2.138277  0  0  -0.631199  0  2.125832  0  0  -0.36684  -0.587684  0  2.14599  0
O  O52  1  0.60626083  0.44263999  0.89514890  1  0  -0.836896  0  2.093481  0  0  -0.77464  0  2.351867  0  0  -0.812124  0  2.339027  0  0  -0.437542  -0.756585  0  2.359968  0
O  O53  1  0.39373564  0.55735883  0.10485196  1  0  -0.836873  0  2.09344  0  0  -0.774622  0  2.35182  0  0  -0.812105  0  2.338977  0  0  -0.437534  -0.756563  0  2.359922  0
O  O54  1  0.27753336  0.29183138  0.31117733  1  0  -0.760007  0  2.116046  0  0  -0.701784  0  2.376956  0  0  -0.734076  0  2.364441  0  0  -0.405761  -0.684073  0  2.384468  0
O  O55  1  0.72246796  0.70816854  0.68882228  1  0  -0.759981  0  2.116016  0  0  -0.701756  0  2.376914  0  0  -0.734044  0  2.364399  0  0  -0.405724  -0.684044  0  2.384432  0
O  O56  1  0.03714370  0.37666165  0.22794902  1  0  -0.625628  0  1.993432  0  0  -0.559008  0  2.207751  0  0  -0.584694  0  2.19657  0  0  -0.29621  -0.540692  0  2.215084  0
O  O57  1  0.96285706  0.62334042  0.77205112  1  0  -0.625673  0  1.993365  0  0  -0.559071  0  2.20769  0  0  -0.584756  0  2.196507  0  0  -0.296248  -0.54075  0  2.215023  0
O  O58  1  0.55492081  0.46900648  0.62606924  1  0  -0.494372  0  2.154042  0  0  -0.451955  0  2.377244  0  0  -0.46957  0  2.369407  0  0  -0.344427  -0.439652  0  2.383445  0
O  O59  1  0.44508207  0.53099236  0.37393031  1  0  -0.494354  0  2.154032  0  0  -0.451961  0  2.377243  0  0  -0.469577  0  2.369409  0  0  -0.344448  -0.43966  0  2.383442  0
O  O60  1  0.26202402  0.21425973  0.55854769  1  0  -0.507677  0  2.077935  0  0  -0.463326  0  2.290273  0  0  -0.48196  0  2.280856  0  0  -0.354516  -0.44969  0  2.296702  0
O  O61  1  0.73797713  0.78573586  0.44145296  1  0  -0.507646  0  2.077974  0  0  -0.463309  0  2.290303  0  0  -0.481945  0  2.280887  0  0  -0.354521  -0.449663  0  2.296705  0
O  O62  1  0.60909760  0.19288226  0.36848325  1  0  -0.70706  0  2.018677  0  0  -0.649854  0  2.256832  0  0  -0.679006  0  2.245391  0  0  -0.376638  -0.633249  0  2.264069  0
O  O63  1  0.39089987  0.80711764  0.63151714  1  0  -0.707056  0  2.018668  0  0  -0.649839  0  2.256827  0  0  -0.678987  0  2.245383  0  0  -0.376659  -0.633236  0  2.264062  0
O  O64  1  0.82456688  0.14073683  0.19823980  1  0  -0.685386  0  1.940234  0  0  -0.639457  0  2.170447  0  0  -0.667416  0  2.159126  0  0  -0.381428  -0.623486  0  2.177222  0
O  O65  1  0.17542402  0.85925871  0.80176295  1  0  -0.685324  0  1.940232  0  0  -0.639411  0  2.170458  0  0  -0.667365  0  2.159134  0  0  -0.381384  -0.623437  0  2.177228  0
O  O66  1  0.64720535  0.09627121  0.60310538  1  0  -0.532108  0  2.149651  0  0  -0.469596  0  2.359696  0  0  -0.490099  0  2.348967  0  0  -0.337409  -0.454652  0  2.366523  0
O  O67  1  0.35279369  0.90372761  0.39689495  1  0  -0.532103  0  2.149667  0  0  -0.469581  0  2.359663  0  0  -0.49009  0  2.348937  0  0  -0.337405  -0.454637  0  2.366497  0
O  O68  1  0.52766967  0.04083723  0.17258821  1  0  -0.90002  0  1.80399  0  0  -0.856364  0  1.986114  0  0  -0.879939  0  1.950362  0  0  -0.630578  -0.843979  0  2.007663  0
O  O69  1  0.47232753  0.95916376  0.82741106  1  0  -0.899985  0  1.804047  0  0  -0.856304  0  1.986193  0  0  -0.879877  0  1.950447  0  0  -0.630549  -0.843916  0  2.007743  0
O  O70  1  0.28865453  0.30154604  0.03764625  1  0  -0.885645  0  1.858932  0  0  -0.828387  0  2.039082  0  0  -0.853692  0  2.004566  0  0  -0.585906  -0.814546  0  2.06011  0
O  O71  1  0.71134395  0.69845496  0.96235276  1  0  -0.885616  0  1.858931  0  0  -0.828357  0  2.039071  0  0  -0.85366  0  2.004574  0  0  -0.585891  -0.814516  0  2.060102  0
O  O72  1  0.72413889  0.46354556  0.16121920  1  0  -0.930677  0  1.859206  0  0  -0.872956  0  2.047122  0  0  -0.899433  0  2.01007  0  0  -0.629879  -0.858646  0  2.070507  0
O  O73  1  0.27586243  0.53645435  0.83878041  1  0  -0.9307  0  1.859194  0  0  -0.872983  0  2.0471  0  0  -0.899461  0  2.01006  0  0  -0.629914  -0.858681  0  2.070491  0
