# generated using pymatgen
data_Cu3H4C4BrN6
_symmetry_space_group_name_H-M   'P 1'
_cell_length_a   7.25646861
_cell_length_b   8.63772807
_cell_length_c   14.19817784
_cell_angle_alpha   85.45029714
_cell_angle_beta   83.68831747
_cell_angle_gamma   81.34759519
_symmetry_Int_Tables_number   1
_chemical_formula_structural   Cu3H4C4BrN6
_chemical_formula_sum   'Cu12 H16 C16 Br4 N24'
_cell_volume   872.68538752
_cell_formula_units_Z   4
loop_
 _symmetry_equiv_pos_site_id
 _symmetry_equiv_pos_as_xyz
  1  'x, y, z'
loop_
 _atom_site_type_symbol
 _atom_site_label
 _atom_site_symmetry_multiplicity
 _atom_site_fract_x
 _atom_site_fract_y
 _atom_site_fract_z
 _atom_site_occupancy
 _atom_site_hle17_bader_spin_density
 _atom_site_hle17_ddec_charge
 _atom_site_hle17_ddec_spin_density
 _atom_site_hle17_ddec_sum_bond_order
 _atom_site_hle17_magmom
 _atom_site_hse06_10hf_bader_spin_density
 _atom_site_hse06_10hf_ddec_charge
 _atom_site_hse06_10hf_ddec_spin_density
 _atom_site_hse06_10hf_ddec_sum_bond_order
 _atom_site_hse06_10hf_magmom
 _atom_site_hse06_bader_spin_density
 _atom_site_hse06_ddec_charge
 _atom_site_hse06_ddec_spin_density
 _atom_site_hse06_ddec_sum_bond_order
 _atom_site_hse06_magmom
 _atom_site_pbe_bader_spin_density
 _atom_site_pbe_cm5_charge
 _atom_site_pbe_ddec_charge
 _atom_site_pbe_ddec_spin_density
 _atom_site_pbe_ddec_sum_bond_order
 _atom_site_pbe_magmom
Cu  Cu0  1  0.35687803  0.90633159  0.81655450  1  0  0.372522  0  1.939992  0  0  0.243369  0  2.44348  0  0  0.26085  0  2.380435  0  0  0.434558  0.233272  0  2.485722  0
Cu  Cu1  1  0.64312562  0.09366811  0.18344395  1  0  0.37253  0  1.940022  0  0  0.243382  0  2.443516  0  0  0.260863  0  2.380467  0  0  0.43456  0.233282  0  2.48578  0
Cu  Cu2  1  0.20338942  0.48884786  0.02297006  1  0  0.430954  0  1.68923  0  0  0.303098  0  2.131095  0  0  0.32342  0  2.078946  0  0  0.455872  0.29016  0  2.166583  0
Cu  Cu3  1  0.79661147  0.51115182  0.97702996  1  0  0.431013  0  1.689271  0  0  0.303106  0  2.131097  0  0  0.323436  0  2.078976  0  0  0.45589  0.290193  0  2.166598  0
Cu  Cu4  1  0.52530711  0.15296417  0.69035747  1  0  0.366347  0  1.823058  0  0  0.223126  0  2.306568  0  0  0.252292  0  2.236735  0  0  0.460576  0.204395  0  2.353845  0
Cu  Cu5  1  0.47469119  0.84703437  0.30964205  1  0  0.366321  0  1.823057  0  0  0.223082  0  2.306554  0  0  0.252259  0  2.236723  0  0  0.460574  0.204353  0  2.353859  0
Cu  Cu6  1  0.70964381  0.40951800  0.56914466  1  0  0.424438  0  1.79988  0  0  0.300312  0  2.26983  0  0  0.313817  0  2.217765  0  0  0.445561  0.292384  0  2.305911  0
Cu  Cu7  1  0.29035272  0.59048288  0.43085556  1  0  0.424467  0  1.799871  0  0  0.300332  0  2.269814  0  0  0.313834  0  2.217754  0  0  0.445568  0.292409  0  2.305914  0
Cu  Cu8  1  0.81950896  0.92943986  0.78801088  1  0  0.385126  0  1.832195  0  0  0.253455  0  2.313844  0  0  0.272926  0  2.253723  0  0  0.452837  0.241767  0  2.354212  0
Cu  Cu9  1  0.18049232  0.07055747  0.21198992  1  0  0.385121  0  1.832301  0  0  0.253442  0  2.313945  0  0  0.272912  0  2.253836  0  0  0.452871  0.241752  0  2.354367  0
Cu  Cu10  1  0.88762906  0.85869937  0.34259450  1  0  0.39292  0  1.841631  0  0  0.265577  0  2.328252  0  0  0.284237  0  2.267393  0  0  0.445078  0.254117  0  2.369975  0
Cu  Cu11  1  0.11236886  0.14130151  0.65740564  1  0  0.392919  0  1.841675  0  0  0.265555  0  2.328322  0  0  0.284208  0  2.267446  0  0  0.445041  0.254091  0  2.369999  0
H  H12  1  0.19185839  0.11962144  0.01041698  1  0  0.090022  0  0.958973  0  0  0.099283  0  1.027934  0  0  0.102202  0  1.023962  0  0  0.120448  0.096912  0  1.031118  0
H  H13  1  0.80814408  0.88037707  0.98958300  1  0  0.090002  0  0.959025  0  0  0.099261  0  1.027997  0  0  0.102178  0  1.024025  0  0  0.120444  0.096888  0  1.031177  0
H  H14  1  0.42581647  0.45812525  0.82443066  1  0  0.092881  0  0.954579  0  0  0.103555  0  1.018504  0  0  0.105532  0  1.016223  0  0  0.12714  0.101929  0  1.020386  0
H  H15  1  0.57418264  0.54187680  0.17556866  1  0  0.092899  0  0.954582  0  0  0.103586  0  1.018475  0  0  0.105565  0  1.01619  0  0  0.127161  0.101959  0  1.020358  0
H  H16  1  0.65471951  0.85112699  0.54739401  1  0  0.102845  0  0.943109  0  0  0.115825  0  0.997538  0  0  0.11655  0  0.998405  0  0  0.131572  0.115168  0  0.997077  0
H  H17  1  0.34527879  0.14887154  0.45260621  1  0  0.102848  0  0.943107  0  0  0.115828  0  0.997536  0  0  0.116554  0  0.998401  0  0  0.131575  0.115171  0  0.997074  0
H  H18  1  0.89297764  0.21156849  0.38455368  1  0  0.081874  0  0.965878  0  0  0.091992  0  1.034811  0  0  0.094253  0  1.03122  0  0  0.124521  0.090108  0  1.0377  0
H  H19  1  0.10701312  0.78843362  0.61544471  1  0  0.081885  0  0.965864  0  0  0.092009  0  1.03478  0  0  0.094279  0  1.03119  0  0  0.124527  0.090124  0  1.037666  0
H  H20  1  0.37164288  0.61404394  0.68228426  1  0  0.084534  0  0.98984  0  0  0.092253  0  1.060446  0  0  0.093766  0  1.059343  0  0  0.111225  0.09103  0  1.061359  0
H  H21  1  0.62835758  0.38595815  0.31771216  1  0  0.08449  0  0.989928  0  0  0.092221  0  1.06053  0  0  0.093739  0  1.059423  0  0  0.111206  0.090998  0  1.061443  0
H  H22  1  0.95207159  0.61668227  0.66632011  1  0  0.081716  0  0.98634  0  0  0.091938  0  1.053875  0  0  0.093842  0  1.051507  0  0  0.114618  0.090369  0  1.055861  0
H  H23  1  0.04793147  0.38331271  0.33368069  1  0  0.081684  0  0.986329  0  0  0.091914  0  1.053857  0  0  0.09382  0  1.051486  0  0  0.114614  0.090348  0  1.055844  0
H  H24  1  0.95925017  0.55763016  0.21891377  1  0  0.087177  0  0.975929  0  0  0.096154  0  1.043319  0  0  0.097334  0  1.042397  0  0  0.119151  0.095099  0  1.044214  0
H  H25  1  0.04075090  0.44236837  0.78108558  1  0  0.087138  0  0.975968  0  0  0.09614  0  1.043325  0  0  0.097319  0  1.042403  0  0  0.119152  0.095083  0  1.044218  0
H  H26  1  0.30429053  0.82920395  0.03935633  1  0  0.090303  0  0.933479  0  0  0.103162  0  0.995578  0  0  0.105247  0  0.992964  0  0  0.128026  0.101336  0  0.997893  0
H  H27  1  0.69570779  0.17079456  0.96064530  1  0  0.090261  0  0.933507  0  0  0.103126  0  0.995605  0  0  0.105209  0  0.992991  0  0  0.12802  0.101302  0  0.997918  0
C  C28  1  0.26790844  0.17399853  0.94967032  1  0  0.204625  0  3.670258  0  0  0.153142  0  3.925804  0  0  0.165194  0  3.941544  0  0  0.132467  0.14517  0  3.915435  0
C  C29  1  0.73209224  0.82600234  0.05032896  1  0  0.204665  0  3.670309  0  0  0.153153  0  3.925848  0  0  0.165199  0  3.941586  0  0  0.132442  0.145187  0  3.915471  0
C  C30  1  0.38493838  0.34781723  0.85456040  1  0  0.203906  0  3.686486  0  0  0.149863  0  3.941474  0  0  0.162727  0  3.957167  0  0  0.135039  0.141274  0  3.93127  0
C  C31  1  0.61506666  0.65218245  0.14543867  1  0  0.203912  0  3.686493  0  0  0.149829  0  3.941464  0  0  0.16269  0  3.957157  0  0  0.135027  0.141245  0  3.931261  0
C  C32  1  0.69932609  0.96382136  0.52541636  1  0  0.211993  0  3.659094  0  0  0.159949  0  3.909369  0  0  0.17182  0  3.928854  0  0  0.137571  0.152138  0  3.896317  0
C  C33  1  0.30067063  0.03617836  0.47458320  1  0  0.212026  0  3.659006  0  0  0.159972  0  3.909286  0  0  0.171843  0  3.928773  0  0  0.13758  0.152165  0  3.896236  0
C  C34  1  0.81987602  0.14758306  0.44171970  1  0  0.20345  0  3.69775  0  0  0.15185  0  3.955347  0  0  0.163686  0  3.971266  0  0  0.135536  0.143975  0  3.944902  0
C  C35  1  0.18011792  0.85241667  0.55828002  1  0  0.203398  0  3.697653  0  0  0.151813  0  3.955232  0  0  0.163633  0  3.971165  0  0  0.135502  0.143944  0  3.94478  0
C  C36  1  0.50655016  0.64783429  0.69111240  1  0  0.18958  0  3.696875  0  0  0.141733  0  3.945071  0  0  0.15257  0  3.962554  0  0  0.124459  0.134591  0  3.933497  0
C  C37  1  0.49345170  0.35216777  0.30888535  1  0  0.189663  0  3.696907  0  0  0.141783  0  3.945095  0  0  0.152618  0  3.962577  0  0  0.124485  0.134648  0  3.933519  0
C  C38  1  0.80235818  0.64988110  0.68315017  1  0  0.192643  0  3.692704  0  0  0.140768  0  3.946426  0  0  0.152317  0  3.963008  0  0  0.129816  0.133146  0  3.93546  0
C  C39  1  0.19764447  0.35011625  0.31684914  1  0  0.192639  0  3.692856  0  0  0.140725  0  3.94658  0  0  0.152276  0  3.96316  0  0  0.129779  0.133107  0  3.935619  0
C  C40  1  0.03688603  0.65116203  0.19013016  1  0  0.213769  0  3.679087  0  0  0.161194  0  3.928809  0  0  0.172813  0  3.947677  0  0  0.13294  0.153519  0  3.91632  0
C  C41  1  0.96311626  0.34883764  0.80987049  1  0  0.213836  0  3.679081  0  0  0.161238  0  3.928794  0  0  0.172859  0  3.947665  0  0  0.132936  0.153563  0  3.916306  0
C  C42  1  0.21068999  0.79077460  0.09853078  1  0  0.200958  0  3.691069  0  0  0.150425  0  3.938427  0  0  0.161715  0  3.957451  0  0  0.131334  0.143  0  3.925909  0
C  C43  1  0.78931155  0.20922974  0.90147181  1  0  0.201078  0  3.69105  0  0  0.150532  0  3.938418  0  0  0.161823  0  3.957443  0  0  0.131345  0.1431  0  3.925903  0
Br  Br44  1  0.10704189  0.73729488  0.85878627  1  0  -0.572584  0  1.26024  0  0  -0.497402  0  1.68644  0  0  -0.516629  0  1.636709  0  0  -0.282939  -0.483339  0  1.720196  0
Br  Br45  1  0.89296223  0.26270237  0.14121930  1  0  -0.572569  0  1.260232  0  0  -0.497391  0  1.686446  0  0  -0.516623  0  1.636716  0  0  -0.282934  -0.483325  0  1.720212  0
Br  Br46  1  0.76349144  0.59345127  0.40941529  1  0  -0.579048  0  1.142167  0  0  -0.507341  0  1.533728  0  0  -0.524141  0  1.489308  0  0  -0.285714  -0.49509  0  1.565061  0
Br  Br47  1  0.23650705  0.40654609  0.59058427  1  0  -0.579055  0  1.142178  0  0  -0.507348  0  1.53375  0  0  -0.524139  0  1.489321  0  0  -0.285703  -0.495098  0  1.565076  0
N  N48  1  0.34030808  0.10268348  0.87123598  1  0  -0.254321  0  3.369993  0  0  -0.184329  0  3.675693  0  0  -0.196896  0  3.684796  0  0  -0.313234  -0.176624  0  3.669927  0
N  N49  1  0.65969261  0.89731739  0.12876329  1  0  -0.254323  0  3.369987  0  0  -0.184356  0  3.675712  0  0  -0.196922  0  3.684817  0  0  -0.313249  -0.176651  0  3.669952  0
N  N50  1  0.29319528  0.32748572  0.94224911  1  0  -0.397514  0  3.451132  0  0  -0.31015  0  3.764815  0  0  -0.329584  0  3.768925  0  0  -0.413855  -0.297573  0  3.762144  0
N  N51  1  0.70680836  0.67251398  0.05774934  1  0  -0.397605  0  3.451164  0  0  -0.310131  0  3.764744  0  0  -0.329552  0  3.768851  0  0  -0.413835  -0.297562  0  3.762093  0
N  N52  1  0.41556888  0.21507940  0.81010654  1  0  -0.247129  0  3.410323  0  0  -0.162151  0  3.696959  0  0  -0.178698  0  3.707121  0  0  -0.317669  -0.151729  0  3.690734  0
N  N53  1  0.58443339  0.78492029  0.18989270  1  0  -0.247114  0  3.410226  0  0  -0.162109  0  3.696838  0  0  -0.178664  0  3.707014  0  0  -0.317658  -0.15169  0  3.690626  0
N  N54  1  0.66098646  0.09107421  0.57551157  1  0  -0.248159  0  3.376503  0  0  -0.166044  0  3.673304  0  0  -0.182768  0  3.682168  0  0  -0.312594  -0.155477  0  3.667786  0
N  N55  1  0.33901025  0.90892552  0.42448728  1  0  -0.248148  0  3.37633  0  0  -0.166016  0  3.67313  0  0  -0.182742  0  3.682  0  0  -0.312575  -0.155454  0  3.667627  0
N  N56  1  0.79850565  0.99438165  0.44099352  1  0  -0.383616  0  3.423955  0  0  -0.296955  0  3.735138  0  0  -0.317221  0  3.74229  0  0  -0.407434  -0.283802  0  3.73016  0
N  N57  1  0.20148949  0.00561925  0.55900608  1  0  -0.383642  0  3.423901  0  0  -0.29698  0  3.735094  0  0  -0.317243  0  3.74224  0  0  -0.407432  -0.283826  0  3.730091  0
N  N58  1  0.73888769  0.20965038  0.52146213  1  0  -0.249928  0  3.385989  0  0  -0.177383  0  3.688939  0  0  -0.188875  0  3.696883  0  0  -0.316901  -0.170446  0  3.684376  0
N  N59  1  0.26110902  0.79034935  0.47853673  1  0  -0.249893  0  3.385846  0  0  -0.177383  0  3.688827  0  0  -0.188876  0  3.696775  0  0  -0.316905  -0.17045  0  3.684281  0
N  N60  1  0.67261429  0.57104749  0.65454814  1  0  -0.374596  0  3.411576  0  0  -0.289044  0  3.720549  0  0  -0.307342  0  3.726714  0  0  -0.409401  -0.277111  0  3.716238  0
N  N61  1  0.32738658  0.42895222  0.34545047  1  0  -0.374675  0  3.411669  0  0  -0.289075  0  3.72059  0  0  -0.307374  0  3.726759  0  0  -0.409405  -0.277149  0  3.716293  0
N  N62  1  0.53088986  0.76819799  0.73947187  1  0  -0.257967  0  3.377983  0  0  -0.183726  0  3.67699  0  0  -0.196845  0  3.685616  0  0  -0.313654  -0.175628  0  3.671625  0
N  N63  1  0.46911378  0.23180170  0.26052658  1  0  -0.258045  0  3.377945  0  0  -0.183827  0  3.676974  0  0  -0.196948  0  3.6856  0  0  -0.3137  -0.175726  0  3.671614  0
N  N64  1  0.72175040  0.76995788  0.73414883  1  0  -0.25429  0  3.394905  0  0  -0.176409  0  3.693732  0  0  -0.190699  0  3.70342  0  0  -0.316423  -0.167483  0  3.68772  0
N  N65  1  0.27825206  0.23004064  0.26585045  1  0  -0.254167  0  3.394884  0  0  -0.176229  0  3.693643  0  0  -0.190521  0  3.703341  0  0  -0.316318  -0.167306  0  3.687645  0
N  N66  1  0.02753826  0.78648459  0.23048730  1  0  -0.245951  0  3.375426  0  0  -0.171307  0  3.678877  0  0  -0.183964  0  3.685732  0  0  -0.312695  -0.163601  0  3.674995  0
N  N67  1  0.97245987  0.21351509  0.76951429  1  0  -0.245942  0  3.375471  0  0  -0.171269  0  3.678892  0  0  -0.183924  0  3.685735  0  0  -0.312653  -0.163572  0  3.674993  0
N  N68  1  0.14972957  0.64860645  0.10751538  1  0  -0.386074  0  3.432422  0  0  -0.294716  0  3.735691  0  0  -0.315937  0  3.74413  0  0  -0.413376  -0.280875  0  3.729853  0
N  N69  1  0.85027373  0.35139554  0.89248652  1  0  -0.386133  0  3.432479  0  0  -0.294762  0  3.735726  0  0  -0.315991  0  3.744185  0  0  -0.413404  -0.28093  0  3.729903  0
N  N70  1  0.14058719  0.87620869  0.17167707  1  0  -0.25342  0  3.397955  0  0  -0.175087  0  3.694071  0  0  -0.189531  0  3.704506  0  0  -0.314512  -0.166106  0  3.687534  0
N  N71  1  0.85940880  0.12379565  0.82832655  1  0  -0.253472  0  3.397738  0  0  -0.175131  0  3.693837  0  0  -0.189575  0  3.70427  0  0  -0.314476  -0.166147  0  3.687288  0
