# generated using pymatgen
data_AgH3C6NClO2
_symmetry_space_group_name_H-M   'P 1'
_cell_length_a   3.73941381
_cell_length_b   12.13089762
_cell_length_c   14.48245367
_cell_angle_alpha   89.99966650
_cell_angle_beta   89.63878856
_cell_angle_gamma   90.00036943
_symmetry_Int_Tables_number   1
_chemical_formula_structural   AgH3C6NClO2
_chemical_formula_sum   'Ag4 H12 C24 N4 Cl4 O8'
_cell_volume   656.94646820
_cell_formula_units_Z   4
loop_
 _symmetry_equiv_pos_site_id
 _symmetry_equiv_pos_as_xyz
  1  'x, y, z'
loop_
 _atom_site_type_symbol
 _atom_site_label
 _atom_site_symmetry_multiplicity
 _atom_site_fract_x
 _atom_site_fract_y
 _atom_site_fract_z
 _atom_site_occupancy
 _atom_site_hle17_bader_spin_density
 _atom_site_hle17_ddec_charge
 _atom_site_hle17_ddec_spin_density
 _atom_site_hle17_ddec_sum_bond_order
 _atom_site_hle17_magmom
 _atom_site_hse06_10hf_bader_spin_density
 _atom_site_hse06_10hf_ddec_charge
 _atom_site_hse06_10hf_ddec_spin_density
 _atom_site_hse06_10hf_ddec_sum_bond_order
 _atom_site_hse06_10hf_magmom
 _atom_site_hse06_bader_spin_density
 _atom_site_hse06_ddec_charge
 _atom_site_hse06_ddec_spin_density
 _atom_site_hse06_ddec_sum_bond_order
 _atom_site_hse06_magmom
 _atom_site_pbe_bader_spin_density
 _atom_site_pbe_cm5_charge
 _atom_site_pbe_ddec_charge
 _atom_site_pbe_ddec_spin_density
 _atom_site_pbe_ddec_sum_bond_order
 _atom_site_pbe_magmom
Ag  Ag0  1  0.53106133  0.44115063  0.08240658  1  0  0.556142  0  1.442734  0  0  0.425132  0  1.93038  0  0  0.461326  0  1.865328  0  0  0.4045  0.40053  0  1.975388  0
Ag  Ag1  1  0.96895133  0.94115577  0.41759307  1  0  0.556148  0  1.442687  0  0  0.425122  0  1.930328  0  0  0.461316  0  1.865276  0  0  0.404492  0.400519  0  1.975341  0
Ag  Ag2  1  0.46894890  0.55884544  0.91759489  1  0  0.556106  0  1.442731  0  0  0.425086  0  1.930365  0  0  0.461284  0  1.865311  0  0  0.404491  0.400481  0  1.975375  0
Ag  Ag3  1  0.03103476  0.05884937  0.58241115  1  0  0.556134  0  1.442711  0  0  0.425129  0  1.930323  0  0  0.461323  0  1.865266  0  0  0.404498  0.400522  0  1.975343  0
H  H4  1  0.86669291  0.14987767  0.00266157  1  0  0.104161  0  0.941641  0  0  0.113821  0  1.005435  0  0  0.116952  0  1.002254  0  0  0.106668  0.111513  0  1.007763  0
H  H5  1  0.63329237  0.64988239  0.49734088  1  0  0.10408  0  0.941715  0  0  0.113758  0  1.005456  0  0  0.116892  0  1.002274  0  0  0.106652  0.111453  0  1.007778  0
H  H6  1  0.13331194  0.85012582  0.99734128  1  0  0.104191  0  0.941576  0  0  0.113832  0  1.005384  0  0  0.116964  0  1.002203  0  0  0.106666  0.111524  0  1.007713  0
H  H7  1  0.36670999  0.35011780  0.50265575  1  0  0.104044  0  0.941808  0  0  0.113731  0  1.005516  0  0  0.116865  0  1.002333  0  0  0.106619  0.111424  0  1.007844  0
H  H8  1  0.62146184  0.97540335  0.93010265  1  0  0.102471  0  0.958802  0  0  0.114099  0  1.018986  0  0  0.116644  0  1.01902  0  0  0.103536  0.112287  0  1.019124  0
H  H9  1  0.87849822  0.47540643  0.56989896  1  0  0.102515  0  0.958737  0  0  0.114178  0  1.018873  0  0  0.116724  0  1.018904  0  0  0.10357  0.112361  0  1.019016  0
H  H10  1  0.37849747  0.02460508  0.06990294  1  0  0.102512  0  0.958854  0  0  0.114145  0  1.019017  0  0  0.116693  0  1.019052  0  0  0.103515  0.11235  0  1.019132  0
H  H11  1  0.12150961  0.52459541  0.43009353  1  0  0.10245  0  0.958807  0  0  0.11412  0  1.018955  0  0  0.116668  0  1.018985  0  0  0.103504  0.11228  0  1.019125  0
H  H12  1  0.66917291  0.95522166  0.75770639  1  0  0.084495  0  0.98008  0  0  0.085312  0  1.057815  0  0  0.08898  0  1.053582  0  0  0.103775  0.082552  0  1.060981  0
H  H13  1  0.83078139  0.45522095  0.74229531  1  0  0.084472  0  0.980107  0  0  0.085322  0  1.057792  0  0  0.089002  0  1.053557  0  0  0.103787  0.082546  0  1.060996  0
H  H14  1  0.33078372  0.04478348  0.24229920  1  0  0.084432  0  0.980128  0  0  0.085287  0  1.05781  0  0  0.088965  0  1.053568  0  0  0.103754  0.082506  0  1.061025  0
H  H15  1  0.16923179  0.54477594  0.25769718  1  0  0.084461  0  0.980069  0  0  0.085342  0  1.057738  0  0  0.089026  0  1.053499  0  0  0.103784  0.082562  0  1.060957  0
C  C16  1  0.18137261  0.31981172  0.91900779  1  0  0.654853  0  3.927553  0  0  0.599264  0  4.213482  0  0  0.636409  0  4.208494  0  0  0.198698  0.573985  0  4.216056  0
C  C17  1  0.31862190  0.81981397  0.58099145  1  0  0.655066  0  3.927479  0  0  0.599414  0  4.213522  0  0  0.636561  0  4.208531  0  0  0.198767  0.574133  0  4.216103  0
C  C18  1  0.81864837  0.68018682  0.08099230  1  0  0.655159  0  3.926999  0  0  0.599527  0  4.212997  0  0  0.636674  0  4.208004  0  0  0.198821  0.574246  0  4.215576  0
C  C19  1  0.68138844  0.18018788  0.41900656  1  0  0.654852  0  3.927593  0  0  0.599266  0  4.213527  0  0  0.636413  0  4.208537  0  0  0.198668  0.573986  0  4.216106  0
C  C20  1  0.88367577  0.13515583  0.92859374  1  0  0.009708  0  3.688415  0  0  -0.019019  0  3.939283  0  0  -0.012388  0  3.954964  0  0  -0.06197  -0.023164  0  3.928755  0
C  C21  1  0.61630681  0.63515938  0.57140746  1  0  0.00983  0  3.688265  0  0  -0.018879  0  3.939116  0  0  -0.012249  0  3.954794  0  0  -0.06195  -0.023025  0  3.928588  0
C  C22  1  0.11631573  0.86484683  0.07140841  1  0  0.009687  0  3.688283  0  0  -0.019039  0  3.939156  0  0  -0.012409  0  3.954843  0  0  -0.061981  -0.023185  0  3.928632  0
C  C23  1  0.38369289  0.36484164  0.42858847  1  0  0.009683  0  3.68822  0  0  -0.018996  0  3.939009  0  0  -0.012367  0  3.954689  0  0  -0.061955  -0.02314  0  3.928476  0
C  C24  1  0.74853767  0.03957758  0.88886373  1  0  -0.139672  0  3.74696  0  0  -0.155043  0  4.006222  0  0  -0.163302  0  4.028269  0  0  -0.096015  -0.149824  0  3.991579  0
C  C25  1  0.75142689  0.53958112  0.61113862  1  0  -0.13987  0  3.746888  0  0  -0.155294  0  4.006167  0  0  -0.163553  0  4.028214  0  0  -0.096119  -0.150069  0  3.991523  0
C  C26  1  0.25143235  0.96043003  0.11114117  1  0  -0.139784  0  3.746793  0  0  -0.155163  0  4.006064  0  0  -0.163418  0  4.028091  0  0  -0.09602  -0.149955  0  3.991409  0
C  C27  1  0.24857816  0.46041824  0.38885732  1  0  -0.139703  0  3.746805  0  0  -0.155156  0  4.006051  0  0  -0.163416  0  4.0281  0  0  -0.096043  -0.149909  0  3.991417  0
C  C28  1  0.04048584  0.21716558  0.87338504  1  0  -0.145504  0  3.692248  0  0  -0.121994  0  3.92423  0  0  -0.135062  0  3.946632  0  0  -0.012866  -0.113868  0  3.909628  0
C  C29  1  0.45951180  0.71716944  0.62661885  1  0  -0.145448  0  3.692037  0  0  -0.121957  0  3.924065  0  0  -0.135027  0  3.946468  0  0  -0.012882  -0.113828  0  3.909468  0
C  C30  1  0.95952440  0.78283214  0.12661643  1  0  -0.145487  0  3.692089  0  0  -0.121979  0  3.924069  0  0  -0.135048  0  3.946473  0  0  -0.012857  -0.113848  0  3.909466  0
C  C31  1  0.54049315  0.28282828  0.37338054  1  0  -0.145247  0  3.691838  0  0  -0.121793  0  3.923846  0  0  -0.13486  0  3.946246  0  0  -0.012774  -0.113667  0  3.909252  0
C  C32  1  0.06217299  0.19456744  0.77828860  1  0  0.267875  0  3.775149  0  0  0.249735  0  4.04931  0  0  0.262302  0  4.067888  0  0  0.143058  0.24117  0  4.036935  0
C  C33  1  0.43780821  0.69456895  0.72171332  1  0  0.267843  0  3.775482  0  0  0.2497  0  4.049608  0  0  0.262268  0  4.068185  0  0  0.143041  0.241133  0  4.037235  0
C  C34  1  0.93781853  0.80543192  0.22171286  1  0  0.267703  0  3.775458  0  0  0.249586  0  4.049565  0  0  0.262154  0  4.068144  0  0  0.143007  0.241019  0  4.037187  0
C  C35  1  0.56219150  0.30542630  0.27828262  1  0  0.267786  0  3.775498  0  0  0.249647  0  4.049631  0  0  0.262217  0  4.068204  0  0  0.142992  0.241079  0  4.037259  0
C  C36  1  0.77746931  0.02658550  0.79367935  1  0  0.147514  0  3.690974  0  0  0.113857  0  3.949504  0  0  0.122581  0  3.966146  0  0  0.040555  0.108053  0  3.938404  0
C  C37  1  0.72248966  0.52658667  0.70632238  1  0  0.147717  0  3.690879  0  0  0.11404  0  3.94935  0  0  0.122748  0  3.966008  0  0  0.04065  0.108235  0  3.938243  0
C  C38  1  0.22249271  0.97341634  0.20632486  1  0  0.147727  0  3.690875  0  0  0.114046  0  3.949354  0  0  0.122763  0  3.966009  0  0  0.040693  0.108236  0  3.938257  0
C  C39  1  0.27751811  0.47341105  0.29367218  1  0  0.147772  0  3.690712  0  0  0.114076  0  3.949173  0  0  0.122784  0  3.965826  0  0  0.040712  0.108276  0  3.938045  0
N  N40  1  0.93763407  0.10233292  0.73986635  1  0  -0.353149  0  3.272499  0  0  -0.284233  0  3.552482  0  0  -0.304016  0  3.567173  0  0  -0.335344  -0.270953  0  3.542646  0
N  N41  1  0.56232912  0.60233586  0.76013501  1  0  -0.353288  0  3.272674  0  0  -0.284343  0  3.552597  0  0  -0.304128  0  3.567293  0  0  -0.335384  -0.271058  0  3.542754  0
N  N42  1  0.06233871  0.89766892  0.26013579  1  0  -0.353258  0  3.272663  0  0  -0.284331  0  3.552621  0  0  -0.304117  0  3.567315  0  0  -0.335445  -0.271046  0  3.542776  0
N  N43  1  0.43767591  0.39766021  0.23986162  1  0  -0.353338  0  3.272814  0  0  -0.284408  0  3.552776  0  0  -0.304193  0  3.56747  0  0  -0.335437  -0.271122  0  3.542939  0
Cl  Cl44  1  0.26965779  0.28341790  0.70149880  1  0  -0.054486  0  1.443447  0  0  -0.034718  0  1.711659  0  0  -0.039187  0  1.70456  0  0  0.047781  -0.0314  0  1.716731  0
Cl  Cl45  1  0.23032252  0.78341927  0.79850338  1  0  -0.054431  0  1.443436  0  0  -0.034652  0  1.711616  0  0  -0.039114  0  1.704506  0  0  0.047824  -0.031338  0  1.716687  0
Cl  Cl46  1  0.73033914  0.71657817  0.29850059  1  0  -0.054386  0  1.443463  0  0  -0.034616  0  1.711645  0  0  -0.039087  0  1.704549  0  0  0.047833  -0.031297  0  1.716716  0
Cl  Cl47  1  0.76968769  0.21657350  0.20149878  1  0  -0.054431  0  1.443532  0  0  -0.03467  0  1.711744  0  0  -0.039136  0  1.704633  0  0  0.04782  -0.031349  0  1.716818  0
O  O48  1  0.32681302  0.30419033  0.99706504  1  0  -0.614475  0  2.108866  0  0  -0.541853  0  2.386484  0  0  -0.574713  0  2.375521  0  0  -0.323485  -0.518942  0  2.393211  0
O  O49  1  0.17318901  0.80419694  0.50294050  1  0  -0.614474  0  2.109176  0  0  -0.541834  0  2.386826  0  0  -0.574692  0  2.375862  0  0  -0.323393  -0.518925  0  2.393554  0
O  O50  1  0.67321323  0.69580409  0.00293782  1  0  -0.614526  0  2.108857  0  0  -0.541894  0  2.386506  0  0  -0.574753  0  2.375543  0  0  -0.323441  -0.518982  0  2.393232  0
O  O51  1  0.82684550  0.19580655  0.49705407  1  0  -0.614395  0  2.109209  0  0  -0.541771  0  2.386817  0  0  -0.574629  0  2.375857  0  0  -0.323317  -0.518859  0  2.393543  0
O  O52  1  0.14192855  0.41075646  0.87700380  1  0  -0.619893  0  2.124381  0  0  -0.544331  0  2.404112  0  0  -0.576504  0  2.39093  0  0  -0.318894  -0.521899  0  2.412423  0
O  O53  1  0.35808104  0.91076426  0.62299984  1  0  -0.620146  0  2.124094  0  0  -0.544549  0  2.403832  0  0  -0.576719  0  2.390638  0  0  -0.319048  -0.522117  0  2.412149  0
O  O54  1  0.85810839  0.58923961  0.12299905  1  0  -0.620128  0  2.124043  0  0  -0.544558  0  2.403813  0  0  -0.576733  0  2.390627  0  0  -0.319064  -0.522126  0  2.412129  0
O  O55  1  0.64189976  0.08923511  0.37700231  1  0  -0.62007  0  2.124137  0  0  -0.544501  0  2.40385  0  0  -0.576676  0  2.390662  0  0  -0.319044  -0.522065  0  2.412166  0
