# generated using pymatgen
data_CdH14C18N3O7
_symmetry_space_group_name_H-M   'P 1'
_cell_length_a   12.41760523
_cell_length_b   15.59448082
_cell_length_c   24.18931438
_cell_angle_alpha   89.99977544
_cell_angle_beta   89.99966121
_cell_angle_gamma   90.00038571
_symmetry_Int_Tables_number   1
_chemical_formula_structural   CdH14C18N3O7
_chemical_formula_sum   'Cd8 H112 C144 N24 O56'
_cell_volume   4684.16654889
_cell_formula_units_Z   8
loop_
 _symmetry_equiv_pos_site_id
 _symmetry_equiv_pos_as_xyz
  1  'x, y, z'
loop_
 _atom_site_type_symbol
 _atom_site_label
 _atom_site_symmetry_multiplicity
 _atom_site_fract_x
 _atom_site_fract_y
 _atom_site_fract_z
 _atom_site_occupancy
 _atom_site_pbe_bader_charge
 _atom_site_pbe_bader_spin_density
 _atom_site_pbe_cm5_charge
 _atom_site_pbe_ddec_charge
 _atom_site_pbe_ddec_spin_density
 _atom_site_pbe_ddec_sum_bond_order
 _atom_site_pbe_magmom
Cd  Cd0  1  0.67700738  0.42747511  0.73230486  1  1.304746  0  0.766669  0.959745  0  2.140842  0
Cd  Cd1  1  0.82299396  0.92748691  0.76769072  1  1.304689  0  0.766744  0.959764  0  2.140836  0
Cd  Cd2  1  0.67700129  0.07251509  0.26769477  1  1.304738  0  0.766695  0.959783  0  2.140784  0
Cd  Cd3  1  0.82298989  0.57252005  0.23231302  1  1.304588  0  0.766704  0.959725  0  2.140856  0
Cd  Cd4  1  0.32299473  0.57252181  0.26769097  1  1.304749  0  0.766696  0.959735  0  2.140814  0
Cd  Cd5  1  0.17701620  0.07251899  0.23231586  1  1.304652  0  0.766692  0.959677  0  2.140825  0
Cd  Cd6  1  0.32299357  0.92747670  0.73230520  1  1.304752  0  0.766694  0.959683  0  2.140861  0
Cd  Cd7  1  0.17700658  0.42748392  0.76768694  1  1.304665  0  0.766713  0.959739  0  2.140856  0
H  H8  1  0.50432970  0.96022954  0.61013441  1  0.159306  0  0.139849  0.129272  0  0.963197  0
H  H9  1  0.56916653  0.06945004  0.53927725  1  0.087044  0  0.113284  0.116291  0  0.983361  0
H  H10  1  0.62588239  0.21652199  0.57471867  1  0.100598  0  0.110238  0.116088  0  0.993419  0
H  H11  1  0.60807480  0.11214622  0.88558708  1  0.113812  0  0.108667  0.11234  0  1.005135  0
H  H12  1  0.43441436  0.19511608  0.90280518  1  0.059841  0  0.108685  0.10865  0  0.992737  0
H  H13  1  0.32105015  0.23692441  0.82120398  1  0.209057  0  0.129536  0.123436  0  1.017366  0
H  H14  1  0.46322078  0.38497786  0.80784437  1  0.120213  0  0.116473  0.08873  0  1.021621  0
H  H15  1  0.40251852  0.39052102  0.90554793  1  0.094708  0  0.110401  0.125994  0  0.984717  0
H  H16  1  0.71198180  0.50079021  0.94687053  1  0.040189  0  0.099974  0.103262  0  1.012879  0
H  H17  1  0.75720605  0.49448265  0.84593913  1  0.121639  0  0.112028  0.087535  0  1.040933  0
H  H18  1  0.58984817  0.44139549  0.02164490  1  0.037575  0  0.099973  0.103378  0  0.973497  0
H  H19  1  0.45722674  0.40781472  0.00483400  1  0.052369  0  0.095871  0.094167  0  0.981932  0
H  H20  1  0.89842089  0.40497850  0.77856216  1  0.637876  0  0.28702  0.379765  0  0.960205  0
H  H21  1  0.84825946  0.30779143  0.77472264  1  0.663496  0  0.28192  0.376654  0  0.973098  0
H  H22  1  0.99565421  0.46023642  0.88984993  1  0.159176  0  0.1399  0.129354  0  0.963194  0
H  H23  1  0.93082856  0.56945607  0.96070721  1  0.087646  0  0.113254  0.116284  0  0.982926  0
H  H24  1  0.87412682  0.71653371  0.92526378  1  0.099923  0  0.110226  0.116007  0  0.993517  0
H  H25  1  0.89190776  0.61214075  0.61439645  1  0.113795  0  0.108705  0.112311  0  1.005034  0
H  H26  1  0.06556128  0.69511795  0.59717183  1  0.05924  0  0.108637  0.108501  0  0.992923  0
H  H27  1  0.17893470  0.73693087  0.67877085  1  0.206377  0  0.129408  0.123233  0  1.01761  0
H  H28  1  0.03676532  0.88497192  0.69215242  1  0.120439  0  0.116483  0.088695  0  1.021635  0
H  H29  1  0.09747004  0.89050063  0.59444926  1  0.094718  0  0.110459  0.12605  0  0.984705  0
H  H30  1  0.78801351  0.00077693  0.55312320  1  0.040296  0  0.099921  0.103254  0  1.012841  0
H  H31  1  0.74278620  0.99448383  0.65405463  1  0.124475  0  0.112065  0.08762  0  1.04075  0
H  H32  1  0.91015419  0.94137437  0.47834835  1  0.037985  0  0.099974  0.103346  0  0.973405  0
H  H33  1  0.04277496  0.90779858  0.49516499  1  0.052181  0  0.095854  0.094242  0  0.981935  0
H  H34  1  0.60158188  0.90497914  0.72143719  1  0.637776  0  0.286971  0.379815  0  0.960146  0
H  H35  1  0.65173524  0.80778590  0.72527819  1  0.663261  0  0.281885  0.376633  0  0.973161  0
H  H36  1  0.50433965  0.53976737  0.38985542  1  0.159032  0  0.139869  0.129277  0  0.963183  0
H  H37  1  0.56916770  0.43054663  0.46071402  1  0.087362  0  0.113382  0.116438  0  0.983034  0
H  H38  1  0.62587468  0.28347307  0.42527202  1  0.100305  0  0.110225  0.116042  0  0.993468  0
H  H39  1  0.60809730  0.38785772  0.11440159  1  0.113717  0  0.10875  0.11239  0  1.004839  0
H  H40  1  0.43443394  0.30489398  0.09718072  1  0.059405  0  0.108705  0.108553  0  0.992877  0
H  H41  1  0.32105636  0.26308889  0.17878020  1  0.208758  0  0.129457  0.123169  0  1.017579  0
H  H42  1  0.46322558  0.11503300  0.19215218  1  0.120317  0  0.116441  0.088647  0  1.0217  0
H  H43  1  0.40252278  0.10949657  0.09444881  1  0.094685  0  0.11042  0.126025  0  0.984793  0
H  H44  1  0.71197213  0.99920397  0.05312900  1  0.040133  0  0.099964  0.103276  0  1.012837  0
H  H45  1  0.75720392  0.00551439  0.15405984  1  0.121691  0  0.112065  0.087607  0  1.040751  0
H  H46  1  0.58984348  0.05861155  0.97835127  1  0.037886  0  0.100002  0.103398  0  0.973463  0
H  H47  1  0.45722455  0.09219546  0.99516588  1  0.052411  0  0.095863  0.094204  0  0.981862  0
H  H48  1  0.89841793  0.09501609  0.22144009  1  0.637883  0  0.287014  0.37981  0  0.960159  0
H  H49  1  0.84825970  0.19220546  0.22528596  1  0.663417  0  0.281921  0.376585  0  0.973174  0
H  H50  1  0.99566253  0.03976318  0.11014831  1  0.15906  0  0.139903  0.12933  0  0.963221  0
H  H51  1  0.93083940  0.93053671  0.03929413  1  0.087311  0  0.113267  0.116322  0  0.982943  0
H  H52  1  0.87413923  0.78346070  0.07474187  1  0.100153  0  0.110178  0.115878  0  0.9934  0
H  H53  1  0.89189736  0.88785183  0.38560501  1  0.113665  0  0.108689  0.11228  0  1.005013  0
H  H54  1  0.06555078  0.80487662  0.40283092  1  0.059387  0  0.108644  0.108473  0  0.992827  0
H  H55  1  0.17893203  0.76306944  0.32123196  1  0.206465  0  0.129419  0.123155  0  1.017727  0
H  H56  1  0.03677041  0.61502762  0.30784959  1  0.120372  0  0.1165  0.088671  0  1.021614  0
H  H57  1  0.09747316  0.60949732  0.40555297  1  0.094719  0  0.110426  0.126013  0  0.98489  0
H  H58  1  0.78802106  0.49921066  0.44687981  1  0.039999  0  0.09996  0.103337  0  1.012782  0
H  H59  1  0.74279556  0.50550731  0.34594811  1  0.124582  0  0.112027  0.087579  0  1.04083  0
H  H60  1  0.91015313  0.55861510  0.52165348  1  0.038043  0  0.099976  0.103288  0  0.973436  0
H  H61  1  0.04277195  0.59219779  0.50483907  1  0.05221  0  0.095855  0.094176  0  0.981967  0
H  H62  1  0.60157424  0.59501253  0.27857136  1  0.637598  0  0.287004  0.37965  0  0.960345  0
H  H63  1  0.65174216  0.69220091  0.27474013  1  0.66329  0  0.281851  0.37644  0  0.973418  0
H  H64  1  0.49565711  0.03976417  0.38986845  1  0.15901  0  0.139813  0.129127  0  0.963282  0
H  H65  1  0.43082994  0.93053598  0.46072189  1  0.087163  0  0.113284  0.116301  0  0.983317  0
H  H66  1  0.37411811  0.78346339  0.42527923  1  0.09997  0  0.110187  0.116033  0  0.993322  0
H  H67  1  0.39192328  0.88784429  0.11441206  1  0.113778  0  0.108589  0.112182  0  1.00505  0
H  H68  1  0.56558534  0.80487443  0.09719727  1  0.059764  0  0.108714  0.108681  0  0.992845  0
H  H69  1  0.67895116  0.76307122  0.17879764  1  0.208956  0  0.129554  0.123511  0  1.017442  0
H  H70  1  0.53677811  0.61502868  0.19215270  1  0.12023  0  0.116433  0.088622  0  1.021629  0
H  H71  1  0.59747554  0.60950476  0.09444831  1  0.094566  0  0.110455  0.126044  0  0.984986  0
H  H72  1  0.28801950  0.49922787  0.05312034  1  0.039892  0  0.099943  0.103291  0  1.012782  0
H  H73  1  0.24280170  0.50551235  0.15405381  1  0.124692  0  0.112085  0.087624  0  1.040838  0
H  H74  1  0.41016039  0.55864119  0.97834515  1  0.037801  0  0.099967  0.103276  0  0.973481  0
H  H75  1  0.54278343  0.59222196  0.99516307  1  0.051792  0  0.095763  0.094002  0  0.981763  0
H  H76  1  0.10158122  0.59502035  0.22143367  1  0.637892  0  0.287004  0.379753  0  0.960217  0
H  H77  1  0.15173863  0.69220742  0.22527277  1  0.663517  0  0.281894  0.376569  0  0.973231  0
H  H78  1  0.00434629  0.53975922  0.11014962  1  0.159264  0  0.13989  0.129307  0  0.963276  0
H  H79  1  0.06915906  0.43053443  0.03929234  1  0.08728  0  0.113255  0.116301  0  0.982948  0
H  H80  1  0.12586159  0.28345744  0.07473618  1  0.100369  0  0.110187  0.115936  0  0.993462  0
H  H81  1  0.10810240  0.38786836  0.38560434  1  0.113412  0  0.108674  0.112229  0  1.004933  0
H  H82  1  0.93445050  0.30488731  0.40283227  1  0.059241  0  0.108657  0.108517  0  0.992889  0
H  H83  1  0.82107305  0.26307311  0.32123531  1  0.206654  0  0.129384  0.12311  0  1.017737  0
H  H84  1  0.96323115  0.11502692  0.30784755  1  0.120371  0  0.116457  0.088628  0  1.021711  0
H  H85  1  0.90252240  0.10950142  0.40554988  1  0.094563  0  0.110407  0.125991  0  0.984895  0
H  H86  1  0.21197169  0.99921743  0.44688007  1  0.039778  0  0.099936  0.103292  0  1.012781  0
H  H87  1  0.25720383  0.00551117  0.34594905  1  0.124679  0  0.112038  0.087588  0  1.040808  0
H  H88  1  0.08982939  0.05862512  0.52165327  1  0.038097  0  0.099995  0.103352  0  0.973571  0
H  H89  1  0.95720944  0.09220155  0.50483498  1  0.052243  0  0.09581  0.094121  0  0.981809  0
H  H90  1  0.39842506  0.09502035  0.27857559  1  0.637548  0  0.286995  0.379662  0  0.960288  0
H  H91  1  0.34826768  0.19220846  0.27473377  1  0.663716  0  0.281837  0.376404  0  0.973473  0
H  H92  1  0.49566327  0.46023019  0.61013875  1  0.158952  0  0.139823  0.129195  0  0.963185  0
H  H93  1  0.43083602  0.56945285  0.53928098  1  0.0872  0  0.113305  0.116326  0  0.98336  0
H  H94  1  0.37412502  0.71652642  0.57472175  1  0.100177  0  0.11024  0.116085  0  0.993427  0
H  H95  1  0.39191286  0.61214882  0.88559341  1  0.113934  0  0.108745  0.112406  0  1.004959  0
H  H96  1  0.56557462  0.69511961  0.90281056  1  0.059788  0  0.108709  0.108661  0  0.992628  0
H  H97  1  0.67894172  0.73692406  0.82120861  1  0.209195  0  0.129491  0.123324  0  1.017487  0
H  H98  1  0.53677653  0.88497674  0.80784530  1  0.120249  0  0.116489  0.088786  0  1.021512  0
H  H99  1  0.59746402  0.89050035  0.90555116  1  0.094724  0  0.110478  0.126056  0  0.984878  0
H  H100  1  0.28801468  0.00078590  0.94687716  1  0.040116  0  0.099951  0.103281  0  1.01276  0
H  H101  1  0.24279819  0.99449215  0.84594426  1  0.124504  0  0.112027  0.087542  0  1.040979  0
H  H102  1  0.41015300  0.94136869  0.02165283  1  0.037717  0  0.099948  0.103261  0  0.973429  0
H  H103  1  0.54277031  0.90778671  0.00483367  1  0.052078  0  0.09585  0.094209  0  0.981766  0
H  H104  1  0.10157532  0.90497955  0.77856318  1  0.637826  0  0.287011  0.379708  0  0.960289  0
H  H105  1  0.15173597  0.80779274  0.77472144  1  0.663525  0  0.281881  0.376482  0  0.973343  0
H  H106  1  0.00433958  0.96024015  0.88985496  1  0.159131  0  0.139859  0.129271  0  0.963323  0
H  H107  1  0.06916513  0.06946406  0.96071079  1  0.087529  0  0.113269  0.116327  0  0.983021  0
H  H108  1  0.12587576  0.21653815  0.92526471  1  0.099954  0  0.11022  0.116029  0  0.993411  0
H  H109  1  0.10809912  0.11214253  0.61439826  1  0.11382  0  0.108714  0.112326  0  1.00501  0
H  H110  1  0.93444811  0.19512158  0.59717318  1  0.059501  0  0.10866  0.108493  0  0.9929  0
H  H111  1  0.82106686  0.23692684  0.67877173  1  0.206586  0  0.129435  0.123277  0  1.017604  0
H  H112  1  0.96322848  0.38497250  0.69215203  1  0.120378  0  0.116452  0.088616  0  1.0217  0
H  H113  1  0.90252493  0.39050153  0.59444947  1  0.094694  0  0.110425  0.126002  0  0.984913  0
H  H114  1  0.21198024  0.50077600  0.55311892  1  0.039861  0  0.099906  0.103216  0  1.01277  0
H  H115  1  0.25721139  0.49448191  0.65405020  1  0.124603  0  0.112005  0.087509  0  1.040879  0
H  H116  1  0.08983771  0.44137541  0.47834608  1  0.03817  0  0.100002  0.103352  0  0.97346  0
H  H117  1  0.95721808  0.40779208  0.49516379  1  0.052037  0  0.095822  0.094141  0  0.981765  0
H  H118  1  0.39842384  0.40498632  0.72142902  1  0.637705  0  0.287008  0.379768  0  0.960188  0
H  H119  1  0.34826075  0.30779922  0.72526520  1  0.663511  0  0.281866  0.376471  0  0.973389  0
C  C120  1  0.52714328  0.02575730  0.62011223  1  0.38568  0  0.048269  -0.02436  0  3.858152  0
C  C121  1  0.56321834  0.08648925  0.58285392  1  -0.074362  0  -0.082838  -0.118276  0  4.056032  0
C  C122  1  0.59309874  0.16743650  0.60196883  1  0.047098  0  -0.071461  -0.069569  0  3.962681  0
C  C123  1  0.58163010  0.18748249  0.65786623  1  0.023102  0  0.004793  -0.063131  0  3.916869  0
C  C124  1  0.54299255  0.12521473  0.69458464  1  0.519296  0  0.145554  0.109637  0  3.842995  0
C  C125  1  0.52061839  0.14032111  0.75416592  1  0.45517  0  0.128304  0.071119  0  3.860791  0
C  C126  1  0.58599457  0.11416317  0.79786366  1  0.049019  0  0.003927  -0.052299  0  3.931367  0
C  C127  1  0.55599016  0.13331201  0.85208556  1  -0.0037  0  -0.074385  -0.075725  0  3.95994  0
C  C128  1  0.46068690  0.17808012  0.86126326  1  0.040393  0  -0.08069  -0.106679  0  4.044879  0
C  C129  1  0.39610234  0.20167113  0.81717403  1  0.294368  0  0.042606  -0.025837  0  3.827999  0
C  C130  1  0.61720888  0.27461142  0.67821720  1  1.596715  0  0.192901  0.563123  0  4.248954  0
C  C131  1  0.68501029  0.06255227  0.78542709  1  1.584681  0  0.193104  0.572918  0  4.233047  0
C  C132  1  0.51630742  0.40997777  0.83989684  1  0.505073  0  0.053159  0.117525  0  3.935008  0
C  C133  1  0.48334022  0.41250981  0.89490134  1  -0.032012  0  -0.085386  -0.190801  0  3.94109  0
C  C134  1  0.55358636  0.44480848  0.93496310  1  -0.036578  0  0.005186  0.154477  0  3.985406  0
C  C135  1  0.65444661  0.47426410  0.91733364  1  -0.009089  0  -0.095712  -0.203369  0  3.986003  0
C  C136  1  0.68082479  0.47052007  0.86165861  1  0.476392  0  0.041793  0.096898  0  3.978549  0
C  C137  1  0.52082048  0.45414292  0.99429843  1  -0.039676  0  -0.151602  -0.189895  0  3.942666  0
C  C138  1  0.97284660  0.52575444  0.87987110  1  0.385067  0  0.048024  -0.024494  0  3.85844  0
C  C139  1  0.93677769  0.58649751  0.91712678  1  -0.073978  0  -0.082944  -0.118618  0  4.056138  0
C  C140  1  0.90690201  0.66743959  0.89801457  1  0.047904  0  -0.07105  -0.068933  0  3.962453  0
C  C141  1  0.91837242  0.68748727  0.84211299  1  0.02333  0  0.004646  -0.063142  0  3.917089  0
C  C142  1  0.95700140  0.62521674  0.80539721  1  0.519555  0  0.145556  0.109543  0  3.842944  0
C  C143  1  0.97936682  0.64032426  0.74581299  1  0.454599  0  0.128202  0.071227  0  3.861076  0
C  C144  1  0.91398801  0.61416753  0.70211862  1  0.049286  0  0.003789  -0.052767  0  3.931398  0
C  C145  1  0.94399097  0.63331494  0.64789378  1  -0.004049  0  -0.074328  -0.075654  0  3.959816  0
C  C146  1  0.03928537  0.67808352  0.63871709  1  0.039931  0  -0.080777  -0.106589  0  4.045  0
C  C147  1  0.10387577  0.70167844  0.68280751  1  0.298324  0  0.042607  -0.025868  0  3.828509  0
C  C148  1  0.88280244  0.77461486  0.82176428  1  1.596171  0  0.193019  0.563203  0  4.249374  0
C  C149  1  0.81497266  0.56255153  0.71455615  1  1.580583  0  0.193425  0.573445  0  4.233035  0
C  C150  1  0.98368249  0.90996865  0.66009919  1  0.504345  0  0.053037  0.117554  0  3.935097  0
C  C151  1  0.01664692  0.91249342  0.60509662  1  -0.031788  0  -0.085466  -0.190898  0  3.941623  0
C  C152  1  0.94640386  0.94479207  0.56503161  1  -0.036598  0  0.005218  0.154451  0  3.985971  0
C  C153  1  0.84554708  0.97425153  0.58266058  1  -0.009261  0  -0.095696  -0.203391  0  3.986247  0
C  C154  1  0.81917048  0.97051406  0.63833521  1  0.473224  0  0.041783  0.096886  0  3.9787  0
C  C155  1  0.97917465  0.95412449  0.50569791  1  -0.018498  0  -0.151588  -0.189977  0  3.942642  0
C  C156  1  0.52715059  0.47424108  0.37987958  1  0.385396  0  0.048175  -0.024284  0  3.858344  0
C  C157  1  0.56321907  0.41350996  0.41713365  1  -0.074348  0  -0.083034  -0.118656  0  4.056031  0
C  C158  1  0.59309819  0.33256223  0.39802279  1  0.047508  0  -0.071177  -0.069199  0  3.962087  0
C  C159  1  0.58163164  0.31251682  0.34212128  1  0.023163  0  0.004625  -0.063173  0  3.917029  0
C  C160  1  0.54300148  0.37478245  0.30540547  1  0.519508  0  0.145607  0.109631  0  3.842971  0
C  C161  1  0.52063432  0.35968108  0.24582095  1  0.454466  0  0.128099  0.071102  0  3.861064  0
C  C162  1  0.58601282  0.38583616  0.20212714  1  0.04965  0  0.003766  -0.05281  0  3.931289  0
C  C163  1  0.55600807  0.36668845  0.14790037  1  -0.002766  0  -0.07424  -0.075502  0  3.959493  0
C  C164  1  0.46070776  0.32192880  0.13872462  1  0.039672  0  -0.080902  -0.106775  0  4.045568  0
C  C165  1  0.39611766  0.29833680  0.18281033  1  0.294989  0  0.042661  -0.025598  0  3.828342  0
C  C166  1  0.61720668  0.22538807  0.32177268  1  1.596627  0  0.193195  0.563576  0  4.248691  0
C  C167  1  0.68503045  0.43744567  0.21456506  1  1.584552  0  0.193074  0.572903  0  4.23344  0
C  C168  1  0.51631077  0.09003209  0.16010161  1  0.50502  0  0.053198  0.117732  0  3.935104  0
C  C169  1  0.48334417  0.08750115  0.10509763  1  -0.031921  0  -0.085413  -0.190938  0  3.941414  0
C  C170  1  0.55358889  0.05519773  0.06503442  1  -0.036554  0  0.005151  0.15444  0  3.985612  0
C  C171  1  0.65444305  0.02573688  0.08266357  1  -0.009125  0  -0.095751  -0.20343  0  3.985986  0
C  C172  1  0.68081982  0.02948169  0.13833894  1  0.476388  0  0.041856  0.096991  0  3.978471  0
C  C173  1  0.52081717  0.04586440  0.00569919  1  -0.040166  0  -0.151625  -0.189908  0  3.942426  0
C  C174  1  0.97286091  0.97424562  0.12012930  1  0.385161  0  0.048077  -0.024444  0  3.858554  0
C  C175  1  0.93679594  0.91350108  0.08287496  1  -0.073486  0  -0.082995  -0.118657  0  4.05585  0
C  C176  1  0.90691694  0.83255756  0.10199057  1  0.047906  0  -0.071004  -0.068871  0  3.961892  0
C  C177  1  0.91838735  0.81251378  0.15789295  1  0.023342  0  0.004756  -0.062928  0  3.916404  0
C  C178  1  0.95701320  0.87478837  0.19460530  1  0.519664  0  0.145593  0.109602  0  3.842779  0
C  C179  1  0.97937863  0.85968289  0.25418945  1  0.454856  0  0.12815  0.071228  0  3.861249  0
C  C180  1  0.91399148  0.88583671  0.29788277  1  0.049127  0  0.00382  -0.052799  0  3.931355  0
C  C181  1  0.94398480  0.86668625  0.35210587  1  -0.003625  0  -0.074309  -0.075627  0  3.959879  0
C  C182  1  0.03928032  0.82191476  0.36128532  1  0.039457  0  -0.0808  -0.106568  0  4.044867  0
C  C183  1  0.10387667  0.79832403  0.31719595  1  0.298198  0  0.042725  -0.025664  0  3.828583  0
C  C184  1  0.88280512  0.72539049  0.17824507  1  1.597353  0  0.192655  0.563071  0  4.249202  0
C  C185  1  0.81497590  0.93744769  0.28544431  1  1.581116  0  0.193499  0.573685  0  4.233051  0
C  C186  1  0.98368539  0.59002826  0.33990324  1  0.505002  0  0.053016  0.117584  0  3.935249  0
C  C187  1  0.01665239  0.58750410  0.39490669  1  -0.031906  0  -0.085528  -0.191048  0  3.941921  0
C  C188  1  0.94641101  0.55520400  0.43497052  1  -0.036211  0  0.005271  0.154479  0  3.985853  0
C  C189  1  0.84555337  0.52574144  0.41734185  1  -0.009293  0  -0.095762  -0.203521  0  3.986069  0
C  C190  1  0.81917503  0.52947620  0.36166689  1  0.473343  0  0.041882  0.097  0  3.978718  0
C  C191  1  0.97917781  0.54587240  0.49430495  1  -0.040401  0  -0.151577  -0.189679  0  3.942332  0
C  C192  1  0.47285238  0.97423385  0.37988980  1  0.386068  0  0.048481  -0.023825  0  3.858175  0
C  C193  1  0.43678135  0.91350510  0.41714439  1  -0.074319  0  -0.08294  -0.118566  0  4.055994  0
C  C194  1  0.40690337  0.83255657  0.39802866  1  0.048146  0  -0.071295  -0.069349  0  3.962129  0
C  C195  1  0.41837120  0.81251187  0.34213043  1  0.022134  0  0.004689  -0.063199  0  3.916893  0
C  C196  1  0.45700956  0.87478219  0.30541326  1  0.519084  0  0.14555  0.109563  0  3.843121  0
C  C197  1  0.47938291  0.85967709  0.24583487  1  0.455097  0  0.128305  0.071258  0  3.860957  0
C  C198  1  0.41400754  0.88583631  0.20213754  1  0.050041  0  0.003855  -0.05236  0  3.931451  0
C  C199  1  0.44401275  0.86668043  0.14791523  1  -0.004052  0  -0.074186  -0.075426  0  3.959653  0
C  C200  1  0.53931602  0.82191359  0.13873712  1  0.040347  0  -0.080754  -0.10673  0  4.045059  0
C  C201  1  0.60390219  0.79832387  0.18282677  1  0.294443  0  0.042521  -0.026035  0  3.82818  0
C  C202  1  0.38279243  0.72538229  0.32177904  1  1.597063  0  0.192988  0.563299  0  4.248997  0
C  C203  1  0.31499584  0.93744978  0.21457370  1  1.584265  0  0.193052  0.572815  0  4.233157  0
C  C204  1  0.48369468  0.59003262  0.16009692  1  0.505471  0  0.053163  0.117752  0  3.935045  0
C  C205  1  0.51665706  0.58751276  0.10509325  1  -0.032031  0  -0.085556  -0.191109  0  3.942147  0
C  C206  1  0.44641414  0.55521922  0.06503107  1  -0.035291  0  0.005243  0.154449  0  3.986169  0
C  C207  1  0.34555630  0.52575334  0.08265723  1  -0.009715  0  -0.095748  -0.203432  0  3.98603  0
C  C208  1  0.31918135  0.52948326  0.13833557  1  0.473309  0  0.041798  0.096935  0  3.978589  0
C  C209  1  0.47918485  0.54588798  0.00569616  1  -0.018296  0  -0.151514  -0.189569  0  3.942325  0
C  C210  1  0.02714826  0.47424120  0.12012804  1  0.385002  0  0.048063  -0.024421  0  3.85844  0
C  C211  1  0.06321153  0.41349748  0.08287318  1  -0.07355  0  -0.08302  -0.118655  0  4.056212  0
C  C212  1  0.09308802  0.33255412  0.10198663  1  0.048598  0  -0.071025  -0.068927  0  3.962515  0
C  C213  1  0.08162324  0.31250644  0.15788863  1  0.021986  0  0.004731  -0.063032  0  3.917013  0
C  C214  1  0.04299910  0.37478018  0.19460359  1  0.519679  0  0.145653  0.109463  0  3.843071  0
C  C215  1  0.02063287  0.35967843  0.25418821  1  0.454682  0  0.128218  0.071373  0  3.861085  0
C  C216  1  0.08601490  0.38583837  0.29788010  1  0.049037  0  0.003774  -0.05295  0  3.931526  0
C  C217  1  0.05601678  0.36669288  0.35210618  1  -0.003226  0  -0.074283  -0.075432  0  3.959628  0
C  C218  1  0.96072238  0.32192110  0.36128577  1  0.039735  0  -0.080873  -0.106747  0  4.045066  0
C  C219  1  0.89612956  0.29832554  0.31719907  1  0.297936  0  0.04281  -0.025513  0  3.828297  0
C  C220  1  0.11719886  0.22538398  0.17823858  1  1.596682  0  0.192984  0.56337  0  4.249223  0
C  C221  1  0.18502382  0.43745629  0.28544299  1  1.580569  0  0.193394  0.573483  0  4.233029  0
C  C222  1  0.01630995  0.09003083  0.33989995  1  0.504876  0  0.053137  0.117705  0  3.934769  0
C  C223  1  0.98334472  0.08750735  0.39490417  1  -0.031846  0  -0.085487  -0.191031  0  3.941698  0
C  C224  1  0.05358456  0.05520741  0.43496877  1  -0.036155  0  0.005268  0.154612  0  3.985729  0
C  C225  1  0.15444215  0.02574475  0.41734393  1  -0.008918  0  -0.095714  -0.20344  0  3.98601  0
C  C226  1  0.18082036  0.02948093  0.36166641  1  0.473377  0  0.041781  0.09681  0  3.97884  0
C  C227  1  0.02080814  0.04587499  0.49430412  1  -0.040603  0  -0.151594  -0.18975  0  3.942379  0
C  C228  1  0.47285233  0.52575969  0.62011667  1  0.38618  0  0.048311  -0.024109  0  3.858197  0
C  C229  1  0.43678304  0.58648825  0.58285763  1  -0.074296  0  -0.082995  -0.118548  0  4.05604  0
C  C230  1  0.40690312  0.66743854  0.60197263  1  0.047117  0  -0.071251  -0.069389  0  3.962258  0
C  C231  1  0.41836886  0.68748331  0.65787041  1  0.023526  0  0.004778  -0.063019  0  3.916736  0
C  C232  1  0.45700144  0.62521832  0.69459036  1  0.519296  0  0.145522  0.109631  0  3.842688  0
C  C233  1  0.47937262  0.64032289  0.75417158  1  0.45496  0  0.12829  0.071137  0  3.861042  0
C  C234  1  0.41399251  0.61416525  0.79786621  1  0.049849  0  0.003938  -0.052401  0  3.931885  0
C  C235  1  0.44400209  0.63331617  0.85209050  1  -0.003989  0  -0.074426  -0.075734  0  3.959763  0
C  C236  1  0.53930160  0.67808095  0.86126584  1  0.039698  0  -0.080857  -0.106858  0  4.045038  0
C  C237  1  0.60389009  0.70167294  0.81718013  1  0.294649  0  0.042608  -0.025682  0  3.827967  0
C  C238  1  0.38278979  0.77461269  0.67821860  1  1.59659  0  0.192882  0.563052  0  4.249096  0
C  C239  1  0.31497890  0.56255895  0.78542829  1  1.584535  0  0.192987  0.572881  0  4.233325  0
C  C240  1  0.48368328  0.90997317  0.83990124  1  0.504726  0  0.053132  0.117636  0  3.934771  0
C  C241  1  0.51665149  0.91249513  0.89490730  1  -0.031926  0  -0.085544  -0.191089  0  3.941793  0
C  C242  1  0.44640758  0.94479086  0.93496762  1  -0.036706  0  0.005185  0.15445  0  3.985968  0
C  C243  1  0.34555100  0.97425555  0.91733722  1  -0.008975  0  -0.095768  -0.203458  0  3.98607  0
C  C244  1  0.31917182  0.97052357  0.86166144  1  0.473128  0  0.041801  0.096875  0  3.978928  0
C  C245  1  0.47917367  0.95411713  0.99430202  1  -0.018258  0  -0.151548  -0.189768  0  3.942253  0
C  C246  1  0.02714764  0.02575771  0.87987563  1  0.385243  0  0.04825  -0.02422  0  3.85854  0
C  C247  1  0.06321825  0.08649905  0.91712997  1  -0.07405  0  -0.083063  -0.118723  0  4.056113  0
C  C248  1  0.09309644  0.16744257  0.89801477  1  0.04743  0  -0.071027  -0.069026  0  3.962233  0
C  C249  1  0.08162523  0.18748891  0.84211198  1  0.023778  0  0.004712  -0.063041  0  3.916966  0
C  C250  1  0.04299535  0.12521689  0.80539921  1  0.519505  0  0.145535  0.109552  0  3.84283  0
C  C251  1  0.02062751  0.14031980  0.74581548  1  0.454675  0  0.128148  0.071265  0  3.861071  0
C  C252  1  0.08600821  0.11416278  0.70212174  1  0.049257  0  0.003782  -0.052799  0  3.931394  0
C  C253  1  0.05600926  0.13331323  0.64789575  1  -0.003334  0  -0.074301  -0.075627  0  3.959828  0
C  C254  1  0.96071857  0.17808280  0.63871754  1  0.039214  0  -0.080844  -0.106573  0  4.045043  0
C  C255  1  0.89612222  0.20167353  0.68280650  1  0.297928  0  0.042679  -0.025848  0  3.828419  0
C  C256  1  0.11719618  0.27461541  0.82176234  1  1.596332  0  0.1929  0.563301  0  4.249201  0
C  C257  1  0.18502299  0.06254667  0.71455648  1  1.580574  0  0.19332  0.573308  0  4.233085  0
C  C258  1  0.01631269  0.40996738  0.66009921  1  0.505  0  0.053122  0.11768  0  3.934808  0
C  C259  1  0.98334569  0.41249218  0.60509328  1  -0.031964  0  -0.085494  -0.190939  0  3.941753  0
C  C260  1  0.05358949  0.44478843  0.56503068  1  -0.035731  0  0.005271  0.154426  0  3.986127  0
C  C261  1  0.15444713  0.47424842  0.58265687  1  -0.009668  0  -0.095705  -0.203298  0  3.986123  0
C  C262  1  0.18082628  0.47051174  0.63833183  1  0.473419  0  0.041903  0.09702  0  3.978808  0
C  C263  1  0.02081705  0.45412196  0.50569833  1  -0.018677  0  -0.151625  -0.189827  0  3.942323  0
N  N264  1  0.61311455  0.43854139  0.82352497  1  -1.227186  0  -0.326085  -0.24096  0  3.492861  0
N  N265  1  0.42556396  0.18253127  0.76430851  1  -0.591417  0  -0.098853  0.304873  0  3.954858  0
N  N266  1  0.51968268  0.04475036  0.67488682  1  -0.631224  0  -0.100637  0.299034  0  3.913199  0
N  N267  1  0.88687400  0.93853935  0.67647058  1  -1.226437  0  -0.32601  -0.24097  0  3.492831  0
N  N268  1  0.07442526  0.68253360  0.73567017  1  -0.590994  0  -0.098678  0.305281  0  3.955472  0
N  N269  1  0.98030737  0.54475046  0.82509605  1  -0.630998  0  -0.100536  0.298886  0  3.913394  0
N  N270  1  0.61311425  0.06146386  0.17647278  1  -1.227214  0  -0.326095  -0.241108  0  3.493015  0
N  N271  1  0.42557158  0.31747554  0.23567741  1  -0.591461  0  -0.098824  0.305022  0  3.955072  0
N  N272  1  0.51968964  0.45524733  0.32510295  1  -0.631037  0  -0.100615  0.2988  0  3.912944  0
N  N273  1  0.88687845  0.56145705  0.32353255  1  -1.226983  0  -0.325983  -0.240877  0  3.492815  0
N  N274  1  0.07443015  0.81747192  0.26433296  1  -0.591247  0  -0.098881  0.305018  0  3.955821  0
N  N275  1  0.98032170  0.95525414  0.17490225  1  -0.632182  0  -0.100502  0.298876  0  3.913646  0
N  N276  1  0.38688514  0.56146002  0.17647045  1  -1.227576  0  -0.32599  -0.240949  0  3.492604  0
N  N277  1  0.57443735  0.81746629  0.23569063  1  -0.591376  0  -0.098823  0.304879  0  3.955102  0
N  N278  1  0.48031782  0.95524463  0.32511562  1  -0.63056  0  -0.100758  0.298856  0  3.913031  0
N  N279  1  0.11312006  0.06145757  0.32353228  1  -1.227001  0  -0.325999  -0.240864  0  3.492786  0
N  N280  1  0.92557926  0.31746653  0.26433434  1  -0.591085  0  -0.098796  0.305083  0  3.955128  0
N  N281  1  0.01968830  0.45524518  0.17490268  1  -0.630883  0  -0.100524  0.29892  0  3.913264  0
N  N282  1  0.38687739  0.93854717  0.82352760  1  -1.226545  0  -0.325967  -0.240869  0  3.492871  0
N  N283  1  0.57442892  0.68252843  0.76431429  1  -0.591594  0  -0.098713  0.304991  0  3.954724  0
N  N284  1  0.48031327  0.54475215  0.67489082  1  -0.631109  0  -0.100637  0.298878  0  3.912975  0
N  N285  1  0.11312366  0.43853731  0.67646824  1  -1.226976  0  -0.326037  -0.240984  0  3.492744  0
N  N286  1  0.92557116  0.18252885  0.73567031  1  -0.591091  0  -0.098715  0.305092  0  3.955583  0
N  N287  1  0.01968927  0.04475048  0.82510102  1  -0.631109  0  -0.10064  0.298741  0  3.913386  0
O  O288  1  0.59028401  0.29607713  0.72718388  1  -1.137567  0  -0.318281  -0.5353  0  2.238081  0
O  O289  1  0.67363962  0.32036440  0.64614959  1  -1.169925  0  -0.344759  -0.578866  0  2.089131  0
O  O290  1  0.72622717  0.01897722  0.82488914  1  -1.144642  0  -0.338734  -0.560771  0  2.156392  0
O  O291  1  0.71813612  0.06068070  0.73599654  1  -1.155948  0  -0.317662  -0.556039  0  2.227706  0
O  O292  1  0.49523729  0.98299495  0.70998468  1  -0.646224  0  -0.23105  -0.494843  0  2.146824  0
O  O293  1  0.36560024  0.20585552  0.72258395  1  -0.596158  0  -0.222344  -0.442572  0  1.951045  0
O  O294  1  0.83410727  0.37082396  0.76918047  1  -1.294268  0  -0.599699  -0.785472  0  2.114157  0
O  O295  1  0.90973716  0.79608743  0.77280044  1  -1.137317  0  -0.318416  -0.535346  0  2.238218  0
O  O296  1  0.82636323  0.82036477  0.85382930  1  -1.169323  0  -0.34472  -0.578952  0  2.089161  0
O  O297  1  0.77376749  0.51896304  0.67509669  1  -1.140762  0  -0.338946  -0.561059  0  2.156677  0
O  O298  1  0.78183796  0.56069358  0.76398670  1  -1.156026  0  -0.317739  -0.55622  0  2.227711  0
O  O299  1  0.00475528  0.48299726  0.78999988  1  -0.646991  0  -0.231047  -0.494676  0  2.146853  0
O  O300  1  0.13439562  0.70584701  0.77739178  1  -0.596529  0  -0.222247  -0.442649  0  1.95108  0
O  O301  1  0.66587266  0.87081912  0.73085493  1  -1.293913  0  -0.599616  -0.785565  0  2.114159  0
O  O302  1  0.59026368  0.20391261  0.27281063  1  -1.137555  0  -0.318501  -0.535449  0  2.237867  0
O  O303  1  0.67365519  0.17964053  0.35383474  1  -1.169419  0  -0.34475  -0.579101  0  2.089008  0
O  O304  1  0.72624251  0.48103376  0.17510579  1  -1.144938  0  -0.338796  -0.560802  0  2.156544  0
O  O305  1  0.71816056  0.43930395  0.26399428  1  -1.155828  0  -0.317538  -0.555938  0  2.227973  0
O  O306  1  0.49523692  0.51700063  0.29000518  1  -0.646837  0  -0.231013  -0.494685  0  2.146786  0
O  O307  1  0.36560155  0.29415867  0.27740050  1  -0.595972  0  -0.222148  -0.442462  0  1.950846  0
O  O308  1  0.83410852  0.12917028  0.23083397  1  -1.29417  0  -0.599704  -0.785442  0  2.114151  0
O  O309  1  0.90974553  0.70391614  0.22720758  1  -1.137695  0  -0.318325  -0.535337  0  2.238026  0
O  O310  1  0.82635220  0.67964413  0.14618436  1  -1.169992  0  -0.344497  -0.57892  0  2.089304  0
O  O311  1  0.77376260  0.98103211  0.32490431  1  -1.141391  0  -0.338973  -0.56112  0  2.156552  0
O  O312  1  0.78184662  0.93930995  0.23601427  1  -1.155972  0  -0.317789  -0.556361  0  2.227939  0
O  O313  1  0.00476468  0.01700858  0.20999807  1  -0.646212  0  -0.231067  -0.494737  0  2.147064  0
O  O314  1  0.13440320  0.79415883  0.22261200  1  -0.596453  0  -0.222204  -0.442611  0  1.951111  0
O  O315  1  0.66589361  0.62916648  0.26919353  1  -1.293873  0  -0.599663  -0.785211  0  2.114419  0
O  O316  1  0.40972454  0.70391595  0.27281319  1  -1.137823  0  -0.318304  -0.535381  0  2.238093  0
O  O317  1  0.32635685  0.67963124  0.35384500  1  -1.16968  0  -0.344773  -0.578955  0  2.089108  0
O  O318  1  0.27378541  0.98103380  0.17511372  1  -1.144676  0  -0.33869  -0.560739  0  2.156474  0
O  O319  1  0.28186760  0.93932007  0.26400342  1  -1.155933  0  -0.317653  -0.556012  0  2.2278  0
O  O320  1  0.50476482  0.01699876  0.29001652  1  -0.646677  0  -0.231027  -0.494869  0  2.146755  0
O  O321  1  0.63440349  0.79414397  0.27741766  1  -0.596237  0  -0.222333  -0.442564  0  1.951162  0
O  O322  1  0.16589968  0.62917616  0.23080544  1  -1.294311  0  -0.599677  -0.785348  0  2.114015  0
O  O323  1  0.09027784  0.20391719  0.22720614  1  -1.137602  0  -0.318435  -0.535398  0  2.238054  0
O  O324  1  0.17362438  0.17962702  0.14617398  1  -1.169531  0  -0.344726  -0.579047  0  2.089232  0
O  O325  1  0.22624187  0.48103772  0.32490121  1  -1.140814  0  -0.338907  -0.561042  0  2.156825  0
O  O326  1  0.21814966  0.43932450  0.23601037  1  -1.156092  0  -0.317753  -0.556226  0  2.227606  0
O  O327  1  0.99523797  0.51700030  0.21000008  1  -0.647002  0  -0.23107  -0.494702  0  2.146723  0
O  O328  1  0.86560729  0.29414991  0.22261232  1  -0.596289  0  -0.22224  -0.442633  0  1.950797  0
O  O329  1  0.33411093  0.12917524  0.26919588  1  -1.294198  0  -0.599616  -0.785156  0  2.114404  0
O  O330  1  0.40971266  0.79608175  0.72718437  1  -1.137634  0  -0.318277  -0.535257  0  2.238205  0
O  O331  1  0.32636061  0.82036409  0.64614951  1  -1.169747  0  -0.344747  -0.578855  0  2.08914  0
O  O332  1  0.27376523  0.51897086  0.82488715  1  -1.144508  0  -0.338746  -0.560831  0  2.156305  0
O  O333  1  0.28184880  0.56069746  0.73599990  1  -1.156048  0  -0.317551  -0.555979  0  2.227853  0
O  O334  1  0.50476358  0.48299949  0.70998983  1  -0.646797  0  -0.231044  -0.494819  0  2.14679  0
O  O335  1  0.63439895  0.70584659  0.72258789  1  -0.595989  0  -0.222308  -0.442556  0  1.95073  0
O  O336  1  0.16588553  0.87082536  0.76917427  1  -1.294267  0  -0.599699  -0.785272  0  2.11428  0
O  O337  1  0.09025497  0.29608655  0.77279900  1  -1.137492  0  -0.318375  -0.535329  0  2.237935  0
O  O338  1  0.17364025  0.32036690  0.85382305  1  -1.169331  0  -0.344676  -0.579089  0  2.089347  0
O  O339  1  0.22622663  0.01895840  0.67509648  1  -1.140805  0  -0.338863  -0.560928  0  2.15661  0
O  O340  1  0.21815710  0.06068761  0.76398652  1  -1.156002  0  -0.317721  -0.556213  0  2.227784  0
O  O341  1  0.99524145  0.98299732  0.79000438  1  -0.646865  0  -0.231009  -0.494632  0  2.146912  0
O  O342  1  0.86559891  0.20584386  0.77739210  1  -0.596458  0  -0.222249  -0.442625  0  1.951089  0
O  O343  1  0.33411333  0.37083044  0.73081719  1  -1.294184  0  -0.599645  -0.785343  0  2.114354  0
