# generated using pymatgen
data_CoH16C16(NO2)2
_symmetry_space_group_name_H-M   'P 1'
_cell_length_a   4.30903746
_cell_length_b   10.51552620
_cell_length_c   15.35011771
_cell_angle_alpha   96.02739953
_cell_angle_beta   90.00037968
_cell_angle_gamma   89.99956060
_symmetry_Int_Tables_number   1
_chemical_formula_structural   CoH16C16(NO2)2
_chemical_formula_sum   'Co2 H32 C32 N4 O8'
_cell_volume   691.69631097
_cell_formula_units_Z   2
loop_
 _symmetry_equiv_pos_site_id
 _symmetry_equiv_pos_as_xyz
  1  'x, y, z'
loop_
 _atom_site_type_symbol
 _atom_site_label
 _atom_site_symmetry_multiplicity
 _atom_site_fract_x
 _atom_site_fract_y
 _atom_site_fract_z
 _atom_site_occupancy
 _atom_site_hle17_ddec_charge
 _atom_site_hle17_ddec_spin_density
 _atom_site_hle17_ddec_sum_bond_order
 _atom_site_hle17_magmom
 _atom_site_hse06_10hf_ddec_charge
 _atom_site_hse06_10hf_ddec_spin_density
 _atom_site_hse06_10hf_ddec_sum_bond_order
 _atom_site_hse06_10hf_magmom
 _atom_site_hse06_ddec_charge
 _atom_site_hse06_ddec_spin_density
 _atom_site_hse06_ddec_sum_bond_order
 _atom_site_hse06_magmom
 _atom_site_pbe_cm5_charge
 _atom_site_pbe_ddec_charge
 _atom_site_pbe_ddec_spin_density
 _atom_site_pbe_ddec_sum_bond_order
 _atom_site_pbe_magmom
Co  Co0  1  0.49999917  0.50000033  0.49999955  1  1.011341  -2.828742  1.906089  -2.541  1.002825  -2.828386  2.293071  -2.621  1.081941  -2.881985  2.226451  -2.711  0.636153  0.925976  -2.770352  2.361863  -2.524
Co  Co1  1  0.00000228  0.49999923  0.99999999  1  1.011317  -2.828742  1.906173  -2.541  1.002815  -2.828384  2.293156  -2.621  1.08193  -2.881979  2.226536  -2.711  0.636152  0.925992  -2.770348  2.361898  -2.524
H  H2  1  0.25709244  0.43755853  0.76295669  1  0.114655  0.000598  0.958567  0.001  0.124066  1.1e-05  1.022243  0.0  0.126922  5.7e-05  1.021075  0.0  0.108097  0.121733  -5.7e-05  1.023699  0.0
H  H3  1  0.75709127  0.56244107  0.73704462  1  0.11459  0.000598  0.95859  0.001  0.12404  1.1e-05  1.022226  0.0  0.126896  5.7e-05  1.021057  0.0  0.108062  0.121706  -5.7e-05  1.023684  0.0
H  H4  1  0.74290821  0.56244021  0.23704227  1  0.114664  0.000596  0.958554  0.001  0.124085  1.2e-05  1.022207  0.0  0.126941  5.6e-05  1.02104  0.0  0.108089  0.121752  -5.7e-05  1.023669  0.0
H  H5  1  0.24290939  0.43755863  0.26295506  1  0.114593  0.000597  0.958587  0.001  0.124041  1.2e-05  1.022224  0.0  0.126898  5.6e-05  1.021056  0.0  0.108069  0.12171  -5.7e-05  1.023683  0.0
H  H6  1  0.56942777  0.05871611  0.75008990  1  0.085032  1.5e-05  0.988322  -0.001  0.096053  7.8e-05  1.052797  0.0  0.097869  9.9e-05  1.053624  0.0  0.094564  0.094797  5.3e-05  1.05229  0.0
H  H7  1  0.06944010  0.94129072  0.74991091  1  0.085001  1.5e-05  0.988297  -0.001  0.096063  7.8e-05  1.052719  0.0  0.097878  9.9e-05  1.053547  0.0  0.094569  0.094805  5.3e-05  1.052213  0.0
H  H8  1  0.43057056  0.94128359  0.24991043  1  0.085026  1.4e-05  0.988352  -0.001  0.096064  7.8e-05  1.052812  0.0  0.097881  9.9e-05  1.053636  0.0  0.094564  0.094808  5.3e-05  1.052304  0.0
H  H9  1  0.93055823  0.05870803  0.25008935  1  0.084985  1.5e-05  0.988346  -0.001  0.096066  7.8e-05  1.052747  0.0  0.097883  9.9e-05  1.053573  0.0  0.094577  0.094813  5.3e-05  1.052239  0.0
H  H10  1  0.62369941  0.17946588  0.61953462  1  0.089639  0.000754  0.966692  0.001  0.098514  9e-06  1.033234  0.0  0.101707  6.2e-05  1.031535  0.0  0.0962  0.09613  -5.1e-05  1.034695  0.0
H  H11  1  0.12370314  0.82053983  0.88046556  1  0.089651  0.000756  0.966633  0.001  0.098517  9e-06  1.033183  0.0  0.10171  6.2e-05  1.031485  0.0  0.096169  0.096134  -5.1e-05  1.034642  0.0
H  H12  1  0.37630125  0.82053383  0.38046571  1  0.089641  0.000754  0.966669  0.001  0.098516  9e-06  1.033208  0.0  0.10171  6.2e-05  1.031508  0.0  0.096197  0.096136  -5.1e-05  1.034667  0.0
H  H13  1  0.87629751  0.17945891  0.11953405  1  0.089637  0.000755  0.966638  0.001  0.098484  9e-06  1.03321  0.0  0.101677  6.2e-05  1.031514  0.0  0.096165  0.096104  -5.1e-05  1.03467  0.0
H  H14  1  0.74397643  0.16431277  0.96651348  1  0.116767  -0.000376  0.974674  -0.001  0.133922  -0.000214  1.042499  0.0  0.136415  -0.000143  1.041005  0.0  0.090386  0.131829  -0.000289  1.043901  0.0
H  H15  1  0.24397172  0.83568686  0.53348650  1  0.116776  -0.000378  0.974657  -0.001  0.133924  -0.000214  1.042493  0.0  0.136418  -0.000142  1.040997  0.0  0.090378  0.131831  -0.000289  1.043892  0.0
H  H16  1  0.25602191  0.83568789  0.03348626  1  0.116769  -0.000376  0.974657  -0.001  0.133922  -0.000214  1.042485  0.0  0.136413  -0.000143  1.040993  0.0  0.090379  0.131832  -0.000289  1.043881  0.0
H  H17  1  0.75602893  0.16431380  0.46651389  1  0.116767  -0.00038  0.974655  -0.001  0.133914  -0.000214  1.042497  0.0  0.136406  -0.000143  1.041003  0.0  0.090376  0.131824  -0.000289  1.043894  0.0
H  H18  1  0.06863115  0.07110139  0.92951892  1  0.100094  -0.000389  0.946353  -0.001  0.124637  -0.000277  1.005013  0.0  0.125557  -0.000217  1.00522  0.0  0.090808  0.123873  -0.000347  1.005009  0.0
H  H19  1  0.56862616  0.92889874  0.57047947  1  0.100081  -0.000389  0.946369  -0.001  0.124646  -0.000277  1.005004  0.0  0.125567  -0.000217  1.005211  0.0  0.090824  0.123881  -0.000347  1.005002  0.0
H  H20  1  0.93136719  0.92889832  0.07048141  1  0.100115  -0.000389  0.946326  -0.001  0.124642  -0.000277  1.00501  0.0  0.125562  -0.000216  1.005218  0.0  0.090803  0.123877  -0.000347  1.005007  0.0
H  H21  1  0.43137218  0.07110287  0.42952034  1  0.100071  -0.00039  0.946376  -0.001  0.124641  -0.000277  1.005008  0.0  0.125562  -0.000216  1.005216  0.0  0.090821  0.123879  -0.000347  1.005004  0.0
H  H22  1  0.69282858  0.02197749  0.89310394  1  0.107574  -3.6e-05  0.9519  0.0  0.129835  -3.7e-05  1.012526  0.0  0.130978  -2.9e-05  1.012872  0.0  0.090888  0.128976  -4.6e-05  1.012354  0.0
H  H23  1  0.19282062  0.97802418  0.60689414  1  0.107602  -3.6e-05  0.951856  0.0  0.129848  -3.7e-05  1.012504  0.0  0.13099  -2.9e-05  1.012849  0.0  0.090895  0.128987  -4.6e-05  1.012335  0.0
H  H24  1  0.30716975  0.97802221  0.10689574  1  0.107557  -3.5e-05  0.95196  0.0  0.129845  -3.7e-05  1.012546  0.0  0.130986  -2.9e-05  1.012893  0.0  0.090895  0.128983  -4.6e-05  1.012377  0.0
H  H25  1  0.80717772  0.02197647  0.39310560  1  0.107615  -3.6e-05  0.951861  0.0  0.129865  -3.7e-05  1.012503  0.0  0.131007  -2.9e-05  1.012848  0.0  0.090907  0.129006  -4.6e-05  1.012332  0.0
H  H26  1  0.42592822  0.37606268  0.90548278  1  0.312682  0.002272  0.914735  0.002  0.297193  0.001017  0.982281  0.001  0.303539  0.001062  0.978202  0.001  0.299308  0.292594  0.000924  0.9847  0.001
H  H27  1  0.92592487  0.62393643  0.59451881  1  0.312716  0.002273  0.914648  0.002  0.297235  0.001017  0.982181  0.001  0.303581  0.001062  0.978101  0.001  0.299333  0.292634  0.000924  0.984601  0.001
H  H28  1  0.57407243  0.62393702  0.09451689  1  0.31269  0.002271  0.914725  0.002  0.297207  0.001017  0.982263  0.001  0.303553  0.001062  0.978186  0.001  0.29931  0.292607  0.000924  0.984683  0.001
H  H29  1  0.07407579  0.37606422  0.40548094  1  0.312656  0.002268  0.9148  0.002  0.297195  0.001017  0.982313  0.001  0.303541  0.001063  0.978233  0.001  0.299295  0.292598  0.000924  0.98473  0.001
H  H30  1  0.22905522  0.27174426  0.95737910  1  0.298888  0.001469  0.89287  0.002  0.294193  0.000219  0.943551  0.0  0.299282  0.000229  0.940627  0.0  0.303854  0.290389  0.000272  0.945525  0.0
H  H31  1  0.72905333  0.72825542  0.54262281  1  0.298851  0.001471  0.892947  0.002  0.294151  0.000219  0.943638  0.0  0.299241  0.000229  0.940711  0.0  0.303853  0.290348  0.000272  0.945603  0.0
H  H32  1  0.77094776  0.72825544  0.04262058  1  0.298873  0.00147  0.892896  0.002  0.29417  0.000219  0.943602  0.0  0.29926  0.000228  0.940678  0.0  0.303846  0.290366  0.000272  0.945574  0.0
H  H33  1  0.27094733  0.27174428  0.45737686  1  0.298881  0.001468  0.892925  0.002  0.294179  0.000219  0.943612  0.0  0.299268  0.000229  0.940686  0.0  0.303863  0.290379  0.000272  0.945576  0.0
C  C34  1  0.94863689  0.31484925  0.68317520  1  -0.066314  0.006473  3.792312  0.004  -0.04748  -0.0001  4.033116  -0.001  -0.054987  0.001687  4.054394  0.001  -0.025215  -0.042679  -0.001928  4.020043  -0.002
C  C35  1  0.44863934  0.68515265  0.81682467  1  -0.066263  0.006467  3.792467  0.004  -0.04743  -0.000101  4.033263  -0.001  -0.054939  0.001686  4.054545  0.001  -0.025207  -0.042632  -0.001928  4.020192  -0.002
C  C36  1  0.05136145  0.68515045  0.31682448  1  -0.066202  0.006469  3.792209  0.004  -0.047467  -9.9e-05  4.03312  -0.001  -0.054974  0.001692  4.054399  0.001  -0.025207  -0.042667  -0.001927  4.020052  -0.002
C  C37  1  0.55135900  0.31484704  0.18317435  1  -0.066315  0.006474  3.792461  0.004  -0.047473  -9.9e-05  4.033238  -0.001  -0.054983  0.00169  4.05452  0.001  -0.02523  -0.042672  -0.001927  4.02017  -0.002
C  C38  1  0.10384551  0.35506542  0.76107755  1  -0.135554  -0.011635  3.673943  -0.015  -0.166298  -0.005356  3.92499  -0.007  -0.167051  -0.004539  3.942904  -0.006  -0.084913  -0.166088  -0.006176  3.914085  -0.008
C  C39  1  0.60384515  0.64493558  0.73892357  1  -0.135528  -0.01163  3.673976  -0.015  -0.166285  -0.005356  3.924998  -0.007  -0.167039  -0.004537  3.942914  -0.006  -0.084898  -0.166078  -0.006176  3.914093  -0.008
C  C40  1  0.89615514  0.64493428  0.23892213  1  -0.1356  -0.011629  3.674  -0.015  -0.1663  -0.005357  3.92504  -0.007  -0.167055  -0.004537  3.942957  -0.006  -0.084884  -0.166089  -0.006175  3.914139  -0.008
C  C41  1  0.39615318  0.35506412  0.26107611  1  -0.135488  -0.011633  3.673992  -0.015  -0.166245  -0.005357  3.925005  -0.007  -0.167001  -0.004538  3.942922  -0.006  -0.084874  -0.166037  -0.006175  3.914104  -0.008
C  C42  1  0.06254774  0.29139733  0.83557798  1  0.235184  0.018515  3.748534  0.014  0.232809  0.006431  3.995324  0.005  0.238595  0.007572  4.016533  0.005  0.088962  0.228202  0.004758  3.980932  0.004
C  C43  1  0.56254676  0.70860378  0.66442242  1  0.235205  0.018509  3.748431  0.014  0.232813  0.006431  3.995232  0.005  0.238599  0.007572  4.016441  0.005  0.088988  0.228209  0.004758  3.980832  0.004
C  C44  1  0.93745292  0.70860237  0.16442170  1  0.23517  0.018514  3.748574  0.014  0.232789  0.006431  3.995347  0.005  0.238576  0.007569  4.016558  0.005  0.088945  0.228182  0.004757  3.980956  0.004
C  C45  1  0.43745390  0.29139592  0.33557726  1  0.23517  0.018516  3.748551  0.014  0.232768  0.006431  3.995359  0.005  0.238554  0.007572  4.016569  0.005  0.088957  0.228162  0.004757  3.980968  0.004
C  C46  1  0.87253240  0.18159413  0.83180773  1  0.053571  -0.012217  3.705335  -0.016  0.075635  -0.006043  3.9415  -0.008  0.074751  -0.005005  3.965091  -0.007  -0.013853  0.076028  -0.007221  3.925926  -0.009
C  C47  1  0.37253350  0.81840896  0.66819339  1  0.053606  -0.012218  3.705289  -0.016  0.075688  -0.006043  3.941435  -0.008  0.074802  -0.005006  3.965029  -0.007  -0.013853  0.076082  -0.00722  3.925856  -0.009
C  C48  1  0.12746826  0.81840558  0.16819260  1  0.053582  -0.012222  3.705416  -0.016  0.075673  -0.006042  3.941543  -0.008  0.074787  -0.005005  3.965137  -0.007  -0.013848  0.076063  -0.00722  3.925971  -0.009
C  C49  1  0.62746715  0.18159170  0.33180701  1  0.053641  -0.012222  3.705392  -0.016  0.075722  -0.006042  3.941536  -0.008  0.074835  -0.005005  3.965132  -0.007  -0.013838  0.076112  -0.007221  3.925966  -0.009
C  C50  1  0.71901263  0.14266945  0.75296352  1  -0.131443  0.015741  3.78955  0.011  -0.149191  0.0047  4.04063  0.003  -0.152403  0.005343  4.063157  0.003  -0.100523  -0.146992  0.004086  4.025589  0.003
C  C51  1  0.21901718  0.85733600  0.74703747  1  -0.131427  0.015742  3.789536  0.011  -0.149188  0.0047  4.040577  0.003  -0.152398  0.005343  4.063103  0.003  -0.100523  -0.146992  0.004085  4.02554  0.003
C  C52  1  0.28098570  0.85733026  0.24703616  1  -0.13148  0.015757  3.789698  0.011  -0.149257  0.0047  4.040769  0.003  -0.152469  0.005344  4.063295  0.003  -0.100548  -0.147059  0.004085  4.02573  0.003
C  C53  1  0.78098115  0.14266275  0.25296279  1  -0.131439  0.015747  3.789778  0.011  -0.149222  0.004699  4.040812  0.003  -0.152434  0.005345  4.063337  0.003  -0.100542  -0.147026  0.004085  4.025777  0.003
C  C54  1  0.75099045  0.20860230  0.67956515  1  -0.084562  -0.013174  3.78364  -0.017  -0.115254  -0.007005  4.04527  -0.008  -0.115569  -0.005683  4.066059  -0.007  -0.099466  -0.11526  -0.008614  4.031824  -0.01
C  C55  1  0.25099332  0.79140113  0.82043511  1  -0.084605  -0.013175  3.783779  -0.017  -0.1153  -0.007005  4.045421  -0.008  -0.115616  -0.00568  4.066214  -0.007  -0.099445  -0.115308  -0.008614  4.031976  -0.01
C  C56  1  0.24901020  0.79139740  0.32043452  1  -0.084548  -0.013178  3.783588  -0.017  -0.115211  -0.007006  4.045244  -0.008  -0.115525  -0.005685  4.066032  -0.007  -0.099435  -0.115218  -0.008614  4.031799  -0.01
C  C57  1  0.74900502  0.20859666  0.17956574  1  -0.084564  -0.013178  3.783781  -0.017  -0.115241  -0.007006  4.045411  -0.008  -0.115556  -0.005684  4.066202  -0.007  -0.099424  -0.115248  -0.008614  4.031967  -0.01
C  C58  1  0.99012020  0.38664236  0.60533461  1  0.653207  -0.004049  3.85349  -0.005  0.609662  -0.008446  4.149258  -0.011  0.648603  -0.00618  4.138912  -0.008  0.217502  0.580725  -0.010437  4.154511  -0.012
C  C59  1  0.49011887  0.61335656  0.89466578  1  0.653219  -0.004048  3.853507  -0.005  0.609678  -0.008446  4.149268  -0.011  0.64862  -0.006181  4.138925  -0.008  0.21754  0.580744  -0.010437  4.154524  -0.012
C  C60  1  0.00988045  0.61335734  0.39466506  1  0.653176  -0.004052  3.853458  -0.005  0.609654  -0.008446  4.149237  -0.011  0.648595  -0.006179  4.138889  -0.008  0.217483  0.580715  -0.010437  4.154492  -0.012
C  C61  1  0.50988179  0.38664219  0.10533448  1  0.653189  -0.004047  3.853559  -0.005  0.609639  -0.008446  4.149319  -0.011  0.648582  -0.00618  4.13898  -0.008  0.217527  0.5807  -0.010437  4.154583  -0.012
C  C62  1  0.84112329  0.10599807  0.90924997  1  -0.33272  0.001331  3.729459  0.001  -0.412718  -4e-06  3.964782  0.0  -0.414463  9.5e-05  3.973187  0.0  -0.243554  -0.411196  -0.000105  3.959414  0.0
C  C63  1  0.34111652  0.89400223  0.59074959  1  -0.332769  0.00134  3.729401  0.002  -0.412779  -4e-06  3.964733  0.0  -0.414523  9.5e-05  3.973136  0.0  -0.243593  -0.411255  -0.000105  3.959363  0.0
C  C64  1  0.15887737  0.89400259  0.09074977  1  -0.332739  0.001327  3.72944  0.001  -0.412754  -4e-06  3.964746  0.0  -0.414497  9.6e-05  3.973153  0.0  -0.243574  -0.411228  -0.000105  3.959373  0.0
C  C65  1  0.65888414  0.10599747  0.40925009  1  -0.332766  0.001347  3.729391  0.002  -0.412786  -4e-06  3.964718  0.0  -0.41453  9.3e-05  3.973124  0.0  -0.243597  -0.411261  -0.000105  3.959346  0.0
N  N66  1  0.20928169  0.33933329  0.91482457  1  -0.644485  -0.026672  3.20067  -0.054  -0.622843  -0.018454  3.446447  -0.032  -0.645559  -0.015092  3.441806  -0.027  -0.600374  -0.603542  -0.021198  3.449041  -0.035
N  N67  1  0.70928206  0.66066644  0.58517601  1  -0.644493  -0.026673  3.200623  -0.054  -0.622867  -0.018453  3.446433  -0.032  -0.645574  -0.015092  3.441782  -0.027  -0.600421  -0.603559  -0.021198  3.449008  -0.035
N  N68  1  0.79071897  0.66066641  0.08517511  1  -0.64449  -0.02667  3.200668  -0.054  -0.622859  -0.018454  3.446437  -0.032  -0.645576  -0.015091  3.441798  -0.027  -0.600377  -0.603554  -0.021197  3.449021  -0.035
N  N69  1  0.29072091  0.33933326  0.41482367  1  -0.644452  -0.026667  3.200848  -0.054  -0.622812  -0.018454  3.446545  -0.032  -0.64552  -0.015092  3.441898  -0.027  -0.600354  -0.603505  -0.021196  3.449121  -0.035
O  O70  1  0.79557736  0.36647409  0.54211124  1  -0.651401  -0.031699  2.13047  -0.054  -0.614222  -0.026162  2.40907  -0.04  -0.650445  -0.018732  2.398232  -0.028  -0.323051  -0.582458  -0.03462  2.414279  -0.053
O  O71  1  0.29557481  0.63352538  0.95788883  1  -0.651417  -0.031701  2.130491  -0.054  -0.614242  -0.026163  2.409103  -0.04  -0.650448  -0.018732  2.398233  -0.028  -0.323065  -0.582477  -0.034622  2.4143  -0.053
O  O72  1  0.20442097  0.63352561  0.45788844  1  -0.651405  -0.031701  2.130507  -0.054  -0.614212  -0.026162  2.409084  -0.04  -0.650444  -0.018732  2.398267  -0.028  -0.323027  -0.58245  -0.03462  2.414303  -0.053
O  O73  1  0.70442352  0.36647432  0.04211150  1  -0.651386  -0.031702  2.130486  -0.054  -0.614205  -0.026162  2.4091  -0.04  -0.650422  -0.018731  2.398252  -0.028  -0.323052  -0.582428  -0.034619  2.414284  -0.053
O  O74  1  0.21597907  0.46534832  0.60564299  1  -0.626474  -0.032555  2.108731  -0.056  -0.589918  -0.026173  2.382471  -0.042  -0.624708  -0.019597  2.37362  -0.032  -0.307689  -0.560053  -0.03383  2.386577  -0.053
O  O75  1  0.71598210  0.53465043  0.89435688  1  -0.626453  -0.032554  2.108775  -0.056  -0.589916  -0.026174  2.382548  -0.042  -0.624715  -0.019597  2.373706  -0.032  -0.307695  -0.56006  -0.033831  2.38666  -0.053
O  O76  1  0.78401927  0.53465138  0.39435669  1  -0.626482  -0.032552  2.108721  -0.056  -0.589944  -0.026175  2.382483  -0.042  -0.624734  -0.019599  2.373628  -0.032  -0.3077  -0.560079  -0.03383  2.386591  -0.053
O  O77  1  0.28402087  0.46534831  0.10564273  1  -0.626455  -0.032554  2.108735  -0.056  -0.589922  -0.026175  2.382521  -0.042  -0.624707  -0.019598  2.373652  -0.032  -0.307701  -0.560065  -0.03383  2.386634  -0.053
