# generated using pymatgen
data_CdH10(CN)12
_symmetry_space_group_name_H-M   'P 1'
_cell_length_a   12.08156383
_cell_length_b   12.92736686
_cell_length_c   13.10938344
_cell_angle_alpha   62.49544431
_cell_angle_beta   62.54783158
_cell_angle_gamma   62.14966316
_symmetry_Int_Tables_number   1
_chemical_formula_structural   CdH10(CN)12
_chemical_formula_sum   'Cd4 H40 C48 N48'
_cell_volume   1525.14949452
_cell_formula_units_Z   4
loop_
 _symmetry_equiv_pos_site_id
 _symmetry_equiv_pos_as_xyz
  1  'x, y, z'
loop_
 _atom_site_type_symbol
 _atom_site_label
 _atom_site_symmetry_multiplicity
 _atom_site_fract_x
 _atom_site_fract_y
 _atom_site_fract_z
 _atom_site_occupancy
 _atom_site_hle17_bader_spin_density
 _atom_site_hle17_ddec_charge
 _atom_site_hle17_ddec_spin_density
 _atom_site_hle17_ddec_sum_bond_order
 _atom_site_hle17_magmom
 _atom_site_hse06_10hf_bader_spin_density
 _atom_site_hse06_10hf_ddec_charge
 _atom_site_hse06_10hf_ddec_spin_density
 _atom_site_hse06_10hf_ddec_sum_bond_order
 _atom_site_hse06_10hf_magmom
 _atom_site_hse06_bader_spin_density
 _atom_site_hse06_ddec_charge
 _atom_site_hse06_ddec_spin_density
 _atom_site_hse06_ddec_sum_bond_order
 _atom_site_hse06_magmom
 _atom_site_pbe_bader_spin_density
 _atom_site_pbe_cm5_charge
 _atom_site_pbe_ddec_charge
 _atom_site_pbe_ddec_spin_density
 _atom_site_pbe_ddec_sum_bond_order
 _atom_site_pbe_magmom
Cd  Cd0  1  0.93684917  0.36910462  0.60186763  1  0  1.02982  0  1.926288  0  0  0.838378  0  2.408762  0  0  0.884176  0  2.369954  0  0  0.797818  0.806067  0  2.435141  0
Cd  Cd1  1  0.90797416  0.13087278  0.89805064  1  0  1.029575  0  1.92693  0  0  0.838116  0  2.409348  0  0  0.883895  0  2.370592  0  0  0.797803  0.806063  0  2.435519  0
Cd  Cd2  1  0.06315038  0.63089559  0.39813045  1  0  1.029832  0  1.926246  0  0  0.838382  0  2.408706  0  0  0.884179  0  2.3699  0  0  0.797811  0.80607  0  2.435084  0
Cd  Cd3  1  0.09202501  0.86912654  0.10195120  1  0  1.029599  0  1.926867  0  0  0.838147  0  2.409271  0  0  0.883929  0  2.370513  0  0  0.797817  0.806097  0  2.43544  0
H  H4  1  0.58725391  0.22040679  0.52888236  1  0  0.26793  0  0.924512  0  0  0.266148  0  0.980683  0  0  0.269205  0  0.979235  0  0  0.299522  0.263967  0  0.981679  0
H  H5  1  0.33696165  0.27939343  0.97090415  1  0  0.268274  0  0.923705  0  0  0.266261  0  0.98037  0  0  0.269303  0  0.978924  0  0  0.299545  0.264048  0  0.981447  0
H  H6  1  0.41274724  0.77959343  0.47111691  1  0  0.267932  0  0.924445  0  0  0.266144  0  0.980627  0  0  0.2692  0  0.979179  0  0  0.299485  0.263962  0  0.981624  0
H  H7  1  0.66303797  0.72060680  0.02909664  1  0  0.268267  0  0.92369  0  0  0.266262  0  0.980345  0  0  0.269304  0  0.978899  0  0  0.299552  0.26405  0  0.981421  0
H  H8  1  0.46014841  0.34643703  0.53847929  1  0  0.280085  0  0.964384  0  0  0.253157  0  1.058289  0  0  0.260995  0  1.050773  0  0  0.291722  0.247596  0  1.063487  0
H  H9  1  0.34533223  0.15345508  0.96125227  1  0  0.280338  0  0.965202  0  0  0.253857  0  1.057577  0  0  0.261602  0  1.050124  0  0  0.292278  0.248339  0  1.062763  0
H  H10  1  0.53985414  0.65356135  0.46151979  1  0  0.280082  0  0.964362  0  0  0.253136  0  1.058291  0  0  0.260973  0  1.050777  0  0  0.291704  0.247573  0  1.063492  0
H  H11  1  0.65466794  0.84654422  0.03874766  1  0  0.280292  0  0.965239  0  0  0.253806  0  1.057632  0  0  0.26155  0  1.050181  0  0  0.292249  0.248287  0  1.06282  0
H  H12  1  0.15590135  0.28892390  0.35621923  1  0  0.077297  0  0.941266  0  0  0.084587  0  1.006661  0  0  0.086436  0  1.005952  0  0  0.114579  0.083198  0  1.00722  0
H  H13  1  0.80104857  0.21101305  0.14364780  1  0  0.077388  0  0.940944  0  0  0.0848  0  1.006301  0  0  0.086654  0  1.005577  0  0  0.114594  0.083408  0  1.006928  0
H  H14  1  0.84409940  0.71107816  0.64377830  1  0  0.077315  0  0.941248  0  0  0.084621  0  1.006626  0  0  0.086473  0  1.005912  0  0  0.114576  0.083215  0  1.007204  0
H  H15  1  0.19895150  0.78898809  0.85635194  1  0  0.077386  0  0.940949  0  0  0.0848  0  1.006308  0  0  0.086656  0  1.005583  0  0  0.114605  0.08341  0  1.006933  0
H  H16  1  0.18706743  0.18164437  0.22098140  1  0  0.111988  0  0.95437  0  0  0.118399  0  1.020696  0  0  0.121916  0  1.019288  0  0  0.108171  0.115893  0  1.021764  0
H  H17  1  0.58959336  0.31819749  0.27895579  1  0  0.112848  0  0.953104  0  0  0.118959  0  1.01971  0  0  0.12241  0  1.018418  0  0  0.108339  0.116518  0  1.020648  0
H  H18  1  0.81293094  0.81835862  0.77901697  1  0  0.11196  0  0.954335  0  0  0.11837  0  1.02067  0  0  0.121893  0  1.019255  0  0  0.108158  0.115865  0  1.021738  0
H  H19  1  0.41040573  0.68180274  0.72104461  1  0  0.112865  0  0.953124  0  0  0.118999  0  1.01971  0  0  0.122447  0  1.018417  0  0  0.108356  0.116554  0  1.020653  0
H  H20  1  0.99799597  0.12440280  0.25579918  1  0  0.099322  0  0.946675  0  0  0.107005  0  1.009119  0  0  0.109374  0  1.007801  0  0  0.109726  0.105269  0  1.010124  0
H  H21  1  0.37817971  0.37522269  0.24418420  1  0  0.099123  0  0.94613  0  0  0.106673  0  1.008908  0  0  0.109043  0  1.007588  0  0  0.1093  0.104905  0  1.009974  0
H  H22  1  0.00200365  0.87559836  0.74420287  1  0  0.099334  0  0.946656  0  0  0.107018  0  1.009105  0  0  0.109389  0  1.007787  0  0  0.109742  0.105281  0  1.010109  0
H  H23  1  0.62181992  0.62477660  0.75581533  1  0  0.099081  0  0.946125  0  0  0.106683  0  1.008847  0  0  0.109053  0  1.007526  0  0  0.109318  0.104916  0  1.009914  0
H  H24  1  0.78413493  0.18944996  0.40668591  1  0  0.110611  0  0.986045  0  0  0.117846  0  1.053217  0  0  0.121521  0  1.050646  0  0  0.107362  0.115139  0  1.055203  0
H  H25  1  0.38040796  0.31025730  0.09319355  1  0  0.11067  0  0.98644  0  0  0.118142  0  1.053316  0  0  0.121798  0  1.050762  0  0  0.107668  0.115484  0  1.055237  0
H  H26  1  0.21586601  0.81054933  0.59331325  1  0  0.110593  0  0.986066  0  0  0.11782  0  1.053241  0  0  0.121495  0  1.050671  0  0  0.107353  0.11512  0  1.05522  0
H  H27  1  0.61959221  0.68974200  0.90680638  1  0  0.110719  0  0.986459  0  0  0.11818  0  1.053339  0  0  0.121838  0  1.050784  0  0  0.107687  0.115519  0  1.055261  0
H  H28  1  0.38010433  0.48567040  0.84757986  1  0  0.111516  0  0.959794  0  0  0.118202  0  1.027048  0  0  0.121538  0  1.025572  0  0  0.108264  0.115826  0  1.028189  0
H  H29  1  0.71369328  0.01426718  0.65202268  1  0  0.112202  0  0.959819  0  0  0.119148  0  1.026428  0  0  0.12242  0  1.025054  0  0  0.108337  0.116788  0  1.027607  0
H  H30  1  0.61989755  0.51432614  0.15242017  1  0  0.111497  0  0.959808  0  0  0.118189  0  1.027071  0  0  0.121514  0  1.02561  0  0  0.108274  0.115813  0  1.028213  0
H  H31  1  0.28630676  0.98573029  0.34797859  1  0  0.112279  0  0.959857  0  0  0.119198  0  1.026477  0  0  0.122469  0  1.025104  0  0  0.108373  0.116844  0  1.027648  0
H  H32  1  0.13479534  0.54053590  0.93610185  1  0  0.096558  0  0.962797  0  0  0.104219  0  1.027628  0  0  0.106779  0  1.026115  0  0  0.10461  0.102394  0  1.028667  0
H  H33  1  0.61151334  0.95941525  0.56368647  1  0  0.096954  0  0.963772  0  0  0.104427  0  1.028762  0  0  0.106914  0  1.027307  0  0  0.104731  0.102672  0  1.029715  0
H  H34  1  0.86520677  0.45946062  0.06389703  1  0  0.096608  0  0.962696  0  0  0.104253  0  1.027548  0  0  0.106817  0  1.026026  0  0  0.104644  0.102428  0  1.028585  0
H  H35  1  0.38848377  0.04058407  0.43631650  1  0  0.096963  0  0.963781  0  0  0.10441  0  1.0288  0  0  0.106891  0  1.027352  0  0  0.104753  0.102653  0  1.029753  0
H  H36  1  0.01255261  0.50346346  0.85013567  1  0  0.098606  0  0.977716  0  0  0.105859  0  1.043345  0  0  0.108217  0  1.043544  0  0  0.103603  0.104179  0  1.043344  0
H  H37  1  0.36617470  0.99655159  0.64981108  1  0  0.098458  0  0.976154  0  0  0.105536  0  1.042141  0  0  0.107916  0  1.042294  0  0  0.103512  0.103826  0  1.042139  0
H  H38  1  0.98744626  0.49653584  0.14986462  1  0  0.098591  0  0.977738  0  0  0.105847  0  1.043361  0  0  0.108205  0  1.043561  0  0  0.103607  0.104169  0  1.043359  0
H  H39  1  0.63382191  0.00345141  0.35018998  1  0  0.098489  0  0.976179  0  0  0.105566  0  1.042165  0  0  0.107947  0  1.042322  0  0  0.103524  0.103854  0  1.042166  0
H  H40  1  0.14153430  0.41801044  0.67708641  1  0  0.069967  0  0.954969  0  0  0.075235  0  1.026207  0  0  0.077443  0  1.024957  0  0  0.1085  0.073553  0  1.027206  0
H  H41  1  0.23684325  0.08196167  0.82287834  1  0  0.070224  0  0.954455  0  0  0.075376  0  1.025948  0  0  0.077686  0  1.024608  0  0  0.108418  0.073673  0  1.026955  0
H  H42  1  0.85846632  0.58198977  0.32291246  1  0  0.069898  0  0.955035  0  0  0.075165  0  1.02627  0  0  0.07737  0  1.025029  0  0  0.108474  0.073482  0  1.027269  0
H  H43  1  0.76315422  0.91804041  0.17712339  1  0  0.070236  0  0.954447  0  0  0.075412  0  1.025913  0  0  0.077711  0  1.024596  0  0  0.108431  0.073709  0  1.026921  0
C  C44  1  0.07580051  0.26570442  0.36393291  1  0  0.139716  0  3.715725  0  0  0.107916  0  3.972315  0  0  0.114263  0  3.990858  0  0  0.050784  0.10389  0  3.959613  0
C  C45  1  0.70546746  0.23423612  0.13589501  1  0  0.140257  0  3.713874  0  0  0.108193  0  3.970598  0  0  0.114551  0  3.989122  0  0  0.050652  0.104011  0  3.958073  0
C  C46  1  0.92420024  0.73429764  0.63606462  1  0  0.139708  0  3.715779  0  0  0.107885  0  3.972353  0  0  0.114227  0  3.990898  0  0  0.050797  0.103871  0  3.959653  0
C  C47  1  0.29453293  0.76576411  0.86410502  1  0  0.140259  0  3.713896  0  0  0.108187  0  3.970628  0  0  0.114546  0  3.989152  0  0  0.05065  0.104006  0  3.958099  0
C  C48  1  0.09308895  0.20540445  0.29006933  1  0  -0.107499  0  3.706325  0  0  -0.121123  0  3.959211  0  0  -0.126814  0  3.978912  0  0  -0.076181  -0.117562  0  3.946156  0
C  C49  1  0.58854379  0.29441973  0.20983291  1  0  -0.108206  0  3.704181  0  0  -0.121104  0  3.956715  0  0  -0.126766  0  3.976453  0  0  -0.075634  -0.117563  0  3.943722  0
C  C50  1  0.90691104  0.79459668  0.70992770  1  0  -0.107435  0  3.706156  0  0  -0.121058  0  3.959044  0  0  -0.126749  0  3.978745  0  0  -0.076153  -0.117495  0  3.945982  0
C  C51  1  0.41145552  0.70558049  0.79016633  1  0  -0.10826  0  3.704184  0  0  -0.121188  0  3.956749  0  0  -0.126848  0  3.976483  0  0  -0.075683  -0.117647  0  3.943758  0
C  C52  1  0.98716962  0.17589596  0.30788768  1  0  0.010603  0  3.711015  0  0  -0.00801  0  3.962193  0  0  -0.005347  0  3.980806  0  0  -0.060311  -0.009609  0  3.949588  0
C  C53  1  0.47096488  0.32376376  0.19208656  1  0  0.010945  0  3.709318  0  0  -0.007662  0  3.960805  0  0  -0.005008  0  3.979421  0  0  -0.060548  -0.009316  0  3.94835  0
C  C54  1  0.01283297  0.82410517  0.69210862  1  0  0.010567  0  3.710936  0  0  -0.00807  0  3.962131  0  0  -0.005411  0  3.980748  0  0  -0.060352  -0.009666  0  3.949524  0
C  C55  1  0.52903475  0.67623554  0.80791297  1  0  0.011  0  3.709195  0  0  -0.007643  0  3.960681  0  0  -0.004988  0  3.979295  0  0  -0.060548  -0.009299  0  3.948227  0
C  C56  1  0.86645624  0.21242446  0.39326738  1  0  -0.130874  0  3.694395  0  0  -0.154826  0  3.941422  0  0  -0.160012  0  3.961106  0  0  -0.080492  -0.151363  0  3.928373  0
C  C57  1  0.47225255  0.28722745  0.10667192  1  0  -0.131907  0  3.692401  0  0  -0.155885  0  3.940301  0  0  -0.161076  0  3.959964  0  0  -0.081124  -0.152479  0  3.927127  0
C  C58  1  0.13354752  0.78757482  0.60672989  1  0  -0.13085  0  3.694414  0  0  -0.154772  0  3.941428  0  0  -0.159959  0  3.961111  0  0  -0.080465  -0.151321  0  3.928367  0
C  C59  1  0.52774816  0.71277185  0.89332840  1  0  -0.131938  0  3.692333  0  0  -0.155906  0  3.940261  0  0  -0.161094  0  3.959923  0  0  -0.081138  -0.152496  0  3.927087  0
C  C60  1  0.85573615  0.27672446  0.46034565  1  0  0.171407  0  3.786054  0  0  0.172355  0  4.026113  0  0  0.177784  0  4.045341  0  0  0.120132  0.168482  0  4.013336  0
C  C61  1  0.59296034  0.22306341  0.03949308  1  0  0.173344  0  3.784663  0  0  0.173484  0  4.026085  0  0  0.178936  0  4.045278  0  0  0.121645  0.169667  0  4.013299  0
C  C62  1  0.14426285  0.72327668  0.53965330  1  0  0.171366  0  3.786141  0  0  0.172279  0  4.02622  0  0  0.177712  0  4.045444  0  0  0.120121  0.168416  0  4.013428  0
C  C63  1  0.40703875  0.77693682  0.96050732  1  0  0.173334  0  3.784616  0  0  0.17345  0  4.026065  0  0  0.178894  0  4.045268  0  0  0.121656  0.16963  0  4.013281  0
C  C64  1  0.73444951  0.32491906  0.54915117  1  0  0.205583  0  3.712986  0  0  0.164184  0  3.983998  0  0  0.177053  0  3.997999  0  0  0.223941  0.155792  0  3.974386  0
C  C65  1  0.60882970  0.17491118  0.95058219  1  0  0.203838  0  3.713712  0  0  0.162867  0  3.984761  0  0  0.1758  0  3.998664  0  0  0.223573  0.154377  0  3.975306  0
C  C66  1  0.26554859  0.67508025  0.45084988  1  0  0.205727  0  3.712998  0  0  0.164325  0  3.984016  0  0  0.177196  0  3.998015  0  0  0.223986  0.15593  0  3.974398  0
C  C67  1  0.39117016  0.82508904  0.04941744  1  0  0.203897  0  3.713844  0  0  0.162959  0  3.984872  0  0  0.175893  0  3.998772  0  0  0.22361  0.154468  0  3.975417  0
C  C68  1  0.53047101  0.39342948  0.66072979  1  0  0.183909  0  3.722846  0  0  0.149106  0  4.003716  0  0  0.159906  0  4.017432  0  0  0.217428  0.141961  0  3.994479  0
C  C69  1  0.58503766  0.10633443  0.83901568  1  0  0.182543  0  3.722801  0  0  0.147408  0  4.004231  0  0  0.158392  0  4.017724  0  0  0.217346  0.140091  0  3.995198  0
C  C70  1  0.46953316  0.60656797  0.33926922  1  0  0.183826  0  3.722948  0  0  0.149041  0  4.003787  0  0  0.15984  0  4.017506  0  0  0.217377  0.141896  0  3.994551  0
C  C71  1  0.41496188  0.89366671  0.16098367  1  0  0.182508  0  3.722685  0  0  0.147371  0  4.004091  0  0  0.158352  0  4.017585  0  0  0.217308  0.140053  0  3.995059  0
C  C72  1  0.38722977  0.42651956  0.71404568  1  0  0.161649  0  3.813486  0  0  0.159372  0  4.068228  0  0  0.165226  0  4.08515  0  0  0.115147  0.155362  0  4.056824  0
C  C73  1  0.52817527  0.07332719  0.78568109  1  0  0.16199  0  3.813988  0  0  0.160013  0  4.068353  0  0  0.1658  0  4.085261  0  0  0.114116  0.15604  0  4.056988  0
C  C74  1  0.61277179  0.57347882  0.28595532  1  0  0.161684  0  3.813531  0  0  0.159407  0  4.068261  0  0  0.165264  0  4.08518  0  0  0.115158  0.155399  0  4.056857  0
C  C75  1  0.47182457  0.92667396  0.21431980  1  0  0.162076  0  3.814043  0  0  0.160137  0  4.068331  0  0  0.165924  0  4.08524  0  0  0.11413  0.156162  0  4.056969  0
C  C76  1  0.32318067  0.47323663  0.81194917  1  0  -0.155196  0  3.721578  0  0  -0.174863  0  3.968676  0  0  -0.179819  0  3.987639  0  0  -0.085942  -0.171475  0  3.955811  0
C  C77  1  0.60869501  0.02664611  0.68773979  1  0  -0.15654  0  3.722631  0  0  -0.176571  0  3.969924  0  0  -0.181498  0  3.988897  0  0  -0.086056  -0.173378  0  3.957205  0
C  C78  1  0.67681906  0.52676175  0.18805181  1  0  -0.155215  0  3.721543  0  0  -0.174899  0  3.968633  0  0  -0.179845  0  3.987601  0  0  -0.085981  -0.171512  0  3.955769  0
C  C79  1  0.39130323  0.97335504  0.31225992  1  0  -0.156684  0  3.72277  0  0  -0.176694  0  3.970022  0  0  -0.18162  0  3.988989  0  0  -0.086083  -0.173506  0  3.957297  0
C  C80  1  0.18677361  0.50319346  0.86079040  1  0  -0.009835  0  3.720341  0  0  -0.022844  0  3.962394  0  0  -0.021409  0  3.981771  0  0  -0.067765  -0.023493  0  3.949048  0
C  C81  1  0.55091655  0.99674367  0.63899571  1  0  -0.010619  0  3.72296  0  0  -0.023546  0  3.964998  0  0  -0.022029  0  3.984376  0  0  -0.067824  -0.024264  0  3.951681  0
C  C82  1  0.81322741  0.49680492  0.13921021  1  0  -0.009849  0  3.720179  0  0  -0.022836  0  3.962237  0  0  -0.021398  0  3.981609  0  0  -0.067743  -0.023484  0  3.948893  0
C  C83  1  0.44908060  0.00325841  0.36100448  1  0  -0.010627  0  3.723018  0  0  -0.023543  0  3.965062  0  0  -0.02202  0  3.984437  0  0  -0.067881  -0.024256  0  3.951734  0
C  C84  1  0.11914693  0.48249222  0.81352715  1  0  -0.102515  0  3.720311  0  0  -0.118106  0  3.970618  0  0  -0.123902  0  3.993383  0  0  -0.081774  -0.114478  0  3.955246  0
C  C85  1  0.41532472  0.01744170  0.68635851  1  0  -0.101214  0  3.719326  0  0  -0.116634  0  3.969404  0  0  -0.12241  0  3.992142  0  0  -0.081129  -0.112861  0  3.953959  0
C  C86  1  0.88085314  0.51750893  0.18647259  1  0  -0.102495  0  3.720321  0  0  -0.118097  0  3.970627  0  0  -0.123893  0  3.993392  0  0  -0.081793  -0.11447  0  3.955255  0
C  C87  1  0.58467396  0.98256129  0.31364141  1  0  -0.101224  0  3.719302  0  0  -0.11664  0  3.969374  0  0  -0.12242  0  3.992112  0  0  -0.081129  -0.112866  0  3.95393  0
C  C88  1  0.19089147  0.43496234  0.71688119  1  0  0.138831  0  3.705367  0  0  0.109792  0  3.970503  0  0  0.115122  0  3.987536  0  0  0.044846  0.106496  0  3.958945  0
C  C89  1  0.34297500  0.06501195  0.78297547  1  0  0.138358  0  3.705564  0  0  0.109355  0  3.970581  0  0  0.114601  0  3.987597  0  0  0.044869  0.106075  0  3.958952  0
C  C90  1  0.80911139  0.56503604  0.28311945  1  0  0.138869  0  3.70539  0  0  0.10984  0  3.970515  0  0  0.115171  0  3.987544  0  0  0.044835  0.106546  0  3.958959  0
C  C91  1  0.65702292  0.93499012  0.21702396  1  0  0.138359  0  3.705661  0  0  0.109339  0  3.970676  0  0  0.114587  0  3.98769  0  0  0.044896  0.106057  0  3.959047  0
N  N92  1  0.73333624  0.36784379  0.62494990  1  0  -0.275947  0  3.1983  0  0  -0.22134  0  3.499749  0  0  -0.236394  0  3.515493  0  0  -0.231754  -0.210797  0  3.488426  0
N  N93  1  0.72647661  0.13204880  0.87473982  1  0  -0.274936  0  3.198349  0  0  -0.220183  0  3.499415  0  0  -0.235263  0  3.515155  0  0  -0.230974  -0.209676  0  3.48822  0
N  N94  1  0.26666479  0.63215460  0.37505071  1  0  -0.276007  0  3.198396  0  0  -0.221395  0  3.499846  0  0  -0.236449  0  3.515588  0  0  -0.231766  -0.210853  0  3.488522  0
N  N95  1  0.27352347  0.86795141  0.12525866  1  0  -0.27508  0  3.198499  0  0  -0.220356  0  3.499591  0  0  -0.235435  0  3.515327  0  0  -0.231055  -0.209849  0  3.488398  0
N  N96  1  0.60817140  0.41138945  0.69329675  1  0  -0.224694  0  2.921348  0  0  -0.218918  0  3.211669  0  0  -0.225018  0  3.226026  0  0  -0.216105  -0.214699  0  3.201661  0
N  N97  1  0.71326862  0.08842507  0.80642705  1  0  -0.225174  0  2.921698  0  0  -0.219297  0  3.212205  0  0  -0.225459  0  3.226557  0  0  -0.21653  -0.215105  0  3.202265  0
N  N98  1  0.39183070  0.58860894  0.30670464  1  0  -0.224624  0  2.92138  0  0  -0.218854  0  3.211683  0  0  -0.224954  0  3.226043  0  0  -0.21608  -0.214634  0  3.201677  0
N  N99  1  0.28673168  0.91157607  0.19357153  1  0  -0.225104  0  2.921692  0  0  -0.219223  0  3.212204  0  0  -0.225384  0  3.226556  0  0  -0.216488  -0.215031  0  3.202265  0
N  N100  1  0.60696540  0.33865616  0.57029804  1  0  0.019346  0  3.5122  0  0  0.102095  0  3.733892  0  0  0.089557  0  3.757691  0  0  -0.130997  0.110068  0  3.71773  0
N  N101  1  0.51626806  0.16110417  0.92945837  1  0  0.021313  0  3.509912  0  0  0.103716  0  3.731876  0  0  0.091111  0  3.755612  0  0  -0.131887  0.111738  0  3.715761  0
N  N102  1  0.39303639  0.66134128  0.42970054  1  0  0.019247  0  3.512397  0  0  0.101982  0  3.734082  0  0  0.089443  0  3.75788  0  0  -0.131019  0.109955  0  3.71792  0
N  N103  1  0.48373158  0.83889512  0.07054116  1  0  0.021259  0  3.509906  0  0  0.103651  0  3.73187  0  0  0.091047  0  3.755604  0  0  -0.131916  0.111673  0  3.715755  0
N  N104  1  0.56239937  0.31422847  0.50449844  1  0  -0.490448  0  2.901823  0  0  -0.499952  0  3.153346  0  0  -0.511025  0  3.155134  0  0  -0.488759  -0.491391  0  3.151524  0
N  N105  1  0.38145898  0.18557033  0.99525828  1  0  -0.491035  0  2.901948  0  0  -0.500317  0  3.153597  0  0  -0.511311  0  3.15551  0  0  -0.488213  -0.49171  0  3.151766  0
N  N106  1  0.43760067  0.68576899  0.49550283  1  0  -0.49047  0  2.901728  0  0  -0.499936  0  3.153246  0  0  -0.511015  0  3.15505  0  0  -0.488725  -0.491375  0  3.151426  0
N  N107  1  0.61854173  0.81442897  0.00474204  1  0  -0.490945  0  2.901933  0  0  -0.500231  0  3.153582  0  0  -0.511229  0  3.155501  0  0  -0.488179  -0.491628  0  3.151753  0
N  N108  1  0.96092139  0.30000449  0.44703776  1  0  -0.361607  0  3.238617  0  0  -0.2936  0  3.494776  0  0  -0.311281  0  3.514504  0  0  -0.321339  -0.28153  0  3.481249  0
N  N109  1  0.70807307  0.19988116  0.05280006  1  0  -0.363148  0  3.23999  0  0  -0.294896  0  3.496874  0  0  -0.312593  0  3.516564  0  0  -0.322407  -0.282878  0  3.483443  0
N  N110  1  0.03907783  0.69999851  0.55296255  1  0  -0.361655  0  3.238815  0  0  -0.2936  0  3.494921  0  0  -0.311283  0  3.514652  0  0  -0.321347  -0.281536  0  3.481385  0
N  N111  1  0.29192602  0.80011907  0.94720034  1  0  -0.363117  0  3.239995  0  0  -0.294857  0  3.496886  0  0  -0.312553  0  3.516578  0  0  -0.322396  -0.282838  0  3.483454  0
N  N112  1  0.32187849  0.40912582  0.66628086  1  0  -0.337436  0  3.100171  0  0  -0.298829  0  3.363951  0  0  -0.309815  0  3.378596  0  0  -0.313614  -0.291465  0  3.354114  0
N  N113  1  0.39763453  0.09083959  0.83345867  1  0  -0.33705  0  3.100923  0  0  -0.298719  0  3.364205  0  0  -0.309692  0  3.378899  0  0  -0.313204  -0.291261  0  3.354315  0
N  N114  1  0.67812340  0.59087071  0.33371917  1  0  -0.337394  0  3.100256  0  0  -0.298788  0  3.364034  0  0  -0.309773  0  3.378681  0  0  -0.313563  -0.291424  0  3.354198  0
N  N115  1  0.60236455  0.90916157  0.16654298  1  0  -0.337044  0  3.101113  0  0  -0.298724  0  3.364375  0  0  -0.309692  0  3.37906  0  0  -0.31321  -0.291268  0  3.354485  0
N  N116  1  0.13274114  0.41304660  0.48253675  1  0  -0.634037  0  2.782513  0  0  -0.584419  0  3.102519  0  0  -0.611757  0  3.107787  0  0  -0.340484  -0.565469  0  3.098697  0
N  N117  1  0.02833631  0.08700927  0.01744597  1  0  -0.634723  0  2.779689  0  0  -0.585092  0  3.099714  0  0  -0.612438  0  3.105018  0  0  -0.340837  -0.566307  0  3.095914  0
N  N118  1  0.86726096  0.58695085  0.51746338  1  0  -0.634104  0  2.782446  0  0  -0.584485  0  3.102462  0  0  -0.611826  0  3.10773  0  0  -0.340506  -0.565535  0  3.098641  0
N  N119  1  0.97166224  0.91299096  0.98255403  1  0  -0.634687  0  2.779795  0  0  -0.585077  0  3.09981  0  0  -0.612417  0  3.105111  0  0  -0.340833  -0.566296  0  3.096013  0
N  N120  1  0.24219177  0.34152565  0.48284550  1  0  0.405494  0  4.221418  0  0  0.435371  0  4.504641  0  0  0.451718  0  4.532974  0  0  0.084479  0.424361  0  4.485395  0
N  N121  1  0.06667343  0.15847947  0.01713434  1  0  0.406306  0  4.219829  0  0  0.436152  0  4.503185  0  0  0.452477  0  4.53153  0  0  0.084871  0.425171  0  4.484098  0
N  N122  1  0.75780840  0.65847365  0.51715442  1  0  0.405576  0  4.22134  0  0  0.435447  0  4.504575  0  0  0.451796  0  4.532906  0  0  0.084507  0.424437  0  4.485331  0
N  N123  1  0.93332719  0.84152168  0.98286579  1  0  0.406151  0  4.219856  0  0  0.436025  0  4.503193  0  0  0.452351  0  4.531538  0  0  0.084804  0.425045  0  4.484105  0
N  N124  1  0.34775800  0.27246658  0.48208815  1  0  -0.361484  0  2.395245  0  0  -0.356394  0  2.620773  0  0  -0.362246  0  2.631423  0  0  -0.177987  -0.352325  0  2.6137  0
N  N125  1  0.10252424  0.22747319  0.01789731  1  0  -0.361668  0  2.396343  0  0  -0.35656  0  2.621871  0  0  -0.362385  0  2.632489  0  0  -0.178216  -0.352688  0  2.615056  0
N  N126  1  0.65224347  0.72753272  0.51791140  1  0  -0.361474  0  2.395249  0  0  -0.356386  0  2.620789  0  0  -0.362234  0  2.631436  0  0  -0.177975  -0.352318  0  2.613716  0
N  N127  1  0.89747603  0.77252427  0.98210280  1  0  -0.361575  0  2.396213  0  0  -0.356488  0  2.621742  0  0  -0.362316  0  2.632362  0  0  -0.178181  -0.352608  0  2.614913  0
N  N128  1  0.89142911  0.34607371  0.80242203  1  0  -0.604789  0  2.763883  0  0  -0.557956  0  3.072331  0  0  -0.583604  0  3.078521  0  0  -0.328057  -0.540184  0  3.067842  0
N  N129  1  0.04007244  0.15400784  0.69746144  1  0  -0.605165  0  2.764205  0  0  -0.558183  0  3.072733  0  0  -0.58383  0  3.078888  0  0  -0.328222  -0.540469  0  3.06829  0
N  N130  1  0.10857007  0.65392561  0.19757981  1  0  -0.60476  0  2.763805  0  0  -0.557922  0  3.072242  0  0  -0.583576  0  3.078439  0  0  -0.328062  -0.540148  0  3.067751  0
N  N131  1  0.95992566  0.84599240  0.30254087  1  0  -0.605193  0  2.764287  0  0  -0.558206  0  3.072786  0  0  -0.583847  0  3.078934  0  0  -0.328251  -0.540495  0  3.068345  0
N  N132  1  0.84119100  0.42412306  0.85049851  1  0  0.410688  0  4.240687  0  0  0.443867  0  4.517957  0  0  0.460203  0  4.547767  0  0  0.085681  0.432896  0  4.497709  0
N  N133  1  0.11591360  0.07593691  0.64940723  1  0  0.41187  0  4.241111  0  0  0.444607  0  4.51905  0  0  0.460966  0  4.548809  0  0  0.085513  0.433627  0  4.498926  0
N  N134  1  0.15881025  0.57587531  0.14950094  1  0  0.41066  0  4.240833  0  0  0.443834  0  4.518103  0  0  0.460171  0  4.547915  0  0  0.085686  0.432863  0  4.497855  0
N  N135  1  0.88408796  0.92406054  0.35059252  1  0  0.412152  0  4.240968  0  0  0.4449  0  4.518879  0  0  0.461262  0  4.548638  0  0  0.085678  0.433921  0  4.498756  0
N  N136  1  0.79456230  0.49897159  0.89802876  1  0  -0.404482  0  2.418343  0  0  -0.401804  0  2.647042  0  0  -0.409861  0  2.656825  0  0  -0.194687  -0.396203  0  2.640686  0
N  N137  1  0.19162599  0.00106080  0.60190434  1  0  -0.405512  0  2.420257  0  0  -0.402537  0  2.649325  0  0  -0.410635  0  2.659097  0  0  -0.19437  -0.396887  0  2.642895  0
N  N138  1  0.20543746  0.50103048  0.10197069  1  0  -0.404459  0  2.418576  0  0  -0.401778  0  2.647276  0  0  -0.409827  0  2.657051  0  0  -0.194678  -0.396182  0  2.64092  0
N  N139  1  0.80837116  0.99894220  0.39809710  1  0  -0.405782  0  2.420063  0  0  -0.402835  0  2.649166  0  0  -0.410942  0  2.658941  0  0  -0.194515  -0.397183  0  2.642736  0
