# generated using pymatgen
data_CuH15C13SNO4
_symmetry_space_group_name_H-M   'P 1'
_cell_length_a   4.96608110
_cell_length_b   11.94772170
_cell_length_c   12.45408997
_cell_angle_alpha   99.48052314
_cell_angle_beta   90.00022819
_cell_angle_gamma   89.99977274
_symmetry_Int_Tables_number   1
_chemical_formula_structural   CuH15C13SNO4
_chemical_formula_sum   'Cu2 H30 C26 S2 N2 O8'
_cell_volume   728.85019934
_cell_formula_units_Z   2
loop_
 _symmetry_equiv_pos_site_id
 _symmetry_equiv_pos_as_xyz
  1  'x, y, z'
loop_
 _atom_site_type_symbol
 _atom_site_label
 _atom_site_symmetry_multiplicity
 _atom_site_fract_x
 _atom_site_fract_y
 _atom_site_fract_z
 _atom_site_occupancy
 _atom_site_hle17_ddec_charge
 _atom_site_hle17_ddec_spin_density
 _atom_site_hle17_ddec_sum_bond_order
 _atom_site_hle17_magmom
 _atom_site_hse06_10hf_ddec_charge
 _atom_site_hse06_10hf_ddec_spin_density
 _atom_site_hse06_10hf_ddec_sum_bond_order
 _atom_site_hse06_10hf_magmom
 _atom_site_hse06_ddec_charge
 _atom_site_hse06_ddec_spin_density
 _atom_site_hse06_ddec_sum_bond_order
 _atom_site_hse06_magmom
 _atom_site_pbe_cm5_charge
 _atom_site_pbe_ddec_charge
 _atom_site_pbe_ddec_spin_density
 _atom_site_pbe_ddec_sum_bond_order
 _atom_site_pbe_magmom
Cu  Cu0  1  0.24920454  0.08476357  0.07892848  1  0.926871  -0.669259  1.767596  -0.476  0.914896  -0.771287  2.157829  -0.603  1.006225  -0.858117  2.085611  -0.697  0.751803  0.855822  -0.670904  2.210181  -0.513
Cu  Cu1  1  0.74919256  0.91523922  0.92106715  1  0.926744  0.669255  1.76765  0.476  0.914717  0.771267  2.157782  0.603  1.006047  0.858102  2.085579  0.697  0.751773  0.855784  0.670882  2.210038  0.513
H  H2  1  0.25420299  0.43139298  0.11539646  1  0.073294  2.3e-05  0.983913  0.0  0.089112  2.6e-05  1.053403  0.0  0.088222  1.7e-05  1.055945  0.0  0.092654  0.089682  2.8e-05  1.051736  0.0
H  H3  1  0.75419394  0.56861153  0.88460507  1  0.073348  -2.3e-05  0.983876  0.0  0.08916  -2.5e-05  1.05338  0.0  0.088269  -1.6e-05  1.055925  0.0  0.092689  0.089731  -2.8e-05  1.051712  0.0
H  H4  1  0.01457472  0.50239211  0.04288681  1  0.07394  -1.4e-05  0.961114  0.0  0.093295  -5e-06  1.026029  0.0  0.0933  -5e-06  1.026193  0.0  0.095629  0.093235  -7e-06  1.025921  0.0
H  H5  1  0.51457511  0.49760597  0.95711816  1  0.07392  1.4e-05  0.961116  0.0  0.093296  6e-06  1.026011  0.0  0.0933  5e-06  1.026175  0.0  0.095612  0.093241  7e-06  1.025898  0.0
H  H6  1  0.19563814  0.38144975  0.97369344  1  0.101283  -1.8e-05  0.918784  0.0  0.120655  -5e-06  0.97558  0.0  0.121356  6e-06  0.974742  0.0  0.108553  0.119875  -1.7e-05  0.976514  0.0
H  H7  1  0.69563425  0.61855316  0.02631096  1  0.101249  1.7e-05  0.918764  0.0  0.120625  6e-06  0.975565  0.0  0.121329  -6e-06  0.974721  0.0  0.10853  0.119851  1.7e-05  0.976495  0.0
H  H8  1  0.94295348  0.52050317  0.23313306  1  0.094504  -0.000736  0.982623  -0.001  0.10573  -0.00043  1.045511  -0.001  0.108501  -0.000269  1.04351  0.0  0.097671  0.10364  -0.000542  1.047159  -0.001
H  H9  1  0.44293427  0.47949262  0.76687706  1  0.094359  0.000735  0.98258  0.001  0.105577  0.00043  1.045509  0.001  0.108347  0.000269  1.043509  0.0  0.097599  0.103491  0.000542  1.047156  0.001
H  H10  1  0.29826551  0.40908819  0.42185936  1  0.081804  -0.000461  0.971468  0.0  0.09178  -0.000303  1.038693  0.0  0.094126  -0.000191  1.037394  0.0  0.092032  0.090065  -0.000389  1.039692  0.0
H  H11  1  0.79827940  0.59091540  0.57814049  1  0.081765  0.000463  0.971486  0.0  0.091769  0.000304  1.038683  0.0  0.094118  0.000191  1.03738  0.0  0.092061  0.090059  0.000389  1.039678  0.0
H  H12  1  0.65274946  0.55116466  0.39804381  1  0.082714  1.7e-05  0.974447  0.0  0.094621  2.8e-05  1.035647  0.0  0.096998  1.6e-05  1.035637  0.0  0.091213  0.092851  3.7e-05  1.035866  0.0
H  H13  1  0.15274704  0.44883323  0.60196215  1  0.082727  -1.6e-05  0.974491  0.0  0.09465  -2.8e-05  1.035672  0.0  0.097032  -1.6e-05  1.035663  0.0  0.091211  0.092882  -3.8e-05  1.035888  0.0
H  H14  1  0.06588157  0.24307451  0.36504620  1  0.06604  -0.008718  0.931347  -0.01  0.076455  -0.005849  1.000399  -0.007  0.07666  -0.004307  0.997032  -0.005  0.112878  0.075855  -0.006557  1.003245  -0.007
H  H15  1  0.56589848  0.75692517  0.63495348  1  0.066087  0.008714  0.931349  0.01  0.076478  0.00585  1.000447  0.007  0.076681  0.004307  0.997079  0.005  0.112884  0.075875  0.006557  1.003298  0.007
H  H16  1  0.73686167  0.10381328  0.29714128  1  0.073236  -0.00221  0.920778  -0.003  0.081876  -0.001612  0.98574  -0.002  0.082833  -0.001217  0.98649  -0.001  0.110203  0.080878  -0.001794  0.985575  -0.002
H  H17  1  0.23686204  0.89618613  0.70285301  1  0.07324  0.002211  0.920725  0.003  0.081857  0.001613  0.985675  0.002  0.082815  0.001217  0.986421  0.001  0.110253  0.080859  0.001794  0.985512  0.002
H  H18  1  0.19488909  0.92934070  0.28165604  1  0.100311  -2.6e-05  0.929455  0.0  0.119  -5.9e-05  0.984033  0.0  0.120186  -2.4e-05  0.984387  0.0  0.099137  0.117937  -9.7e-05  0.983954  0.0
H  H19  1  0.69488513  0.07066048  0.71834248  1  0.10036  2.4e-05  0.929397  0.0  0.119037  6e-05  0.984006  0.0  0.120224  2.4e-05  0.984359  0.0  0.099154  0.117973  9.7e-05  0.98392  0.0
H  H20  1  0.11541071  0.03236539  0.39641519  1  0.071955  0.000232  0.963818  0.0  0.088387  0.000104  1.033002  0.0  0.089464  6.7e-05  1.032982  0.0  0.086228  0.087762  0.000136  1.032884  0.0
H  H21  1  0.61541323  0.96763759  0.60358026  1  0.071941  -0.00023  0.963814  0.0  0.088377  -0.000103  1.033024  0.0  0.089455  -6.6e-05  1.033003  0.0  0.086206  0.08775  -0.000136  1.032908  0.0
H  H22  1  0.74557737  0.83464185  0.29940801  1  0.094106  5e-06  0.936476  0.0  0.11418  1e-06  0.986441  0.0  0.115426  -2e-06  0.986254  0.0  0.097209  0.113196  7e-06  0.986763  0.0
H  H23  1  0.24558062  0.16535926  0.70058896  1  0.094139  -8e-06  0.936455  0.0  0.114181  -0.0  0.986447  0.0  0.115425  2e-06  0.986262  0.0  0.097213  0.113196  -7e-06  0.986766  0.0
H  H24  1  0.65152331  0.94684233  0.40417187  1  0.084312  -5.7e-05  0.951178  0.0  0.096536  -0.0001  1.023742  0.0  0.097721  -6.9e-05  1.02349  0.0  0.091654  0.095622  -0.000121  1.024135  0.0
H  H25  1  0.15151652  0.05315807  0.59582806  1  0.084333  5.4e-05  0.951108  0.0  0.096536  0.000101  1.023701  0.0  0.097718  6.9e-05  1.023452  0.0  0.091687  0.095622  0.000121  1.024095  0.0
H  H26  1  0.35430170  0.76405558  0.36552814  1  0.118647  1e-05  0.968003  0.0  0.135585  9e-06  1.031252  0.0  0.137015  4e-06  1.031306  0.0  0.090235  0.134474  2e-05  1.031328  0.0
H  H27  1  0.85429535  0.23593942  0.63446566  1  0.118683  -1.3e-05  0.968026  0.0  0.135652  -8e-06  1.031236  0.0  0.137084  -3e-06  1.031288  0.0  0.090229  0.134541  -2e-05  1.03131  0.0
H  H28  1  0.07503750  0.67009317  0.32954892  1  0.115382  -3.4e-05  0.958655  0.0  0.139101  -4.1e-05  1.011447  0.0  0.140372  -2.7e-05  1.01148  0.0  0.091511  0.138204  -5e-05  1.011476  0.0
H  H29  1  0.57503867  0.32990479  0.67044810  1  0.115432  3.5e-05  0.958658  0.0  0.139121  4.3e-05  1.011475  0.0  0.140393  2.7e-05  1.011509  0.0  0.091511  0.138223  5e-05  1.011504  0.0
H  H30  1  0.25100182  0.66894226  0.45406709  1  0.115911  7.6e-05  0.953794  0.0  0.137495  0.000131  1.015278  0.0  0.138134  9.3e-05  1.01619  0.0  0.092287  0.137144  0.000154  1.014587  0.0
H  H31  1  0.75100376  0.33105714  0.54592882  1  0.115945  -7.4e-05  0.953768  0.0  0.137528  -0.00013  1.015258  0.0  0.138168  -9.3e-05  1.016171  0.0  0.092303  0.137179  -0.000154  1.014567  0.0
C  C32  1  0.10157131  0.41941960  0.05057697  1  -0.078868  0.000253  3.65041  0.0  -0.175457  0.000179  3.915742  0.0  -0.168796  0.000154  3.921377  0.0  -0.142704  -0.179784  0.000172  3.911855  0.0
C  C33  1  0.60156278  0.58058175  0.94942704  1  -0.078927  -0.000253  3.650252  0.0  -0.175493  -0.000182  3.91558  0.0  -0.168832  -0.000155  3.921215  0.0  -0.142705  -0.179815  -0.000172  3.911681  0.0
C  C34  1  0.75372821  0.36426079  0.16346203  1  0.146507  -0.013815  3.796406  -0.016  0.136956  -0.007564  4.05435  -0.01  0.141286  -0.00545  4.070108  -0.007  0.066303  0.133579  -0.00862  4.043901  -0.011
C  C35  1  0.25371022  0.63573865  0.83654514  1  0.146306  0.013811  3.796498  0.016  0.136798  0.007563  4.054412  0.01  0.141122  0.005453  4.070175  0.007  0.066297  0.133416  0.00862  4.043979  0.011
C  C36  1  0.78699986  0.45895911  0.24291637  1  -0.180741  0.004584  3.809345  0.004  -0.206286  0.001093  4.067389  0.001  -0.20671  0.001332  4.087135  0.001  -0.115135  -0.205938  0.000818  4.054442  0.001
C  C37  1  0.28698601  0.54103775  0.75709206  1  -0.180339  -0.004582  3.809082  -0.004  -0.205873  -0.001093  4.067092  -0.001  -0.206292  -0.001336  4.08684  -0.001  -0.115021  -0.205523  -0.000818  4.054144  -0.001
C  C38  1  0.42769524  0.39706917  0.35010516  1  -0.112264  0.004321  3.826032  0.004  -0.137833  0.001193  4.086296  0.001  -0.135339  0.00125  4.109841  0.001  -0.109614  -0.139257  0.001009  4.070422  0.001
C  C39  1  0.92769563  0.60293171  0.64989849  1  -0.112179  -0.004317  3.826003  -0.004  -0.137761  -0.001193  4.086218  -0.001  -0.135266  -0.001252  4.109768  -0.001  -0.109647  -0.13919  -0.00101  4.07035  -0.001
C  C40  1  0.62338834  0.47558440  0.33702072  1  -0.105521  -0.000325  3.858917  -0.001  -0.119098  0.000459  4.117338  0.0  -0.125637  0.000296  4.142641  0.0  -0.122563  -0.11495  0.000537  4.10051  0.0
C  C41  1  0.12338379  0.52441438  0.66298533  1  -0.105719  0.000317  3.858905  0.001  -0.119326  -0.00046  4.117354  0.0  -0.125868  -0.000294  4.14265  0.0  -0.122576  -0.115166  -0.000536  4.100513  0.0
C  C42  1  0.38668309  0.29912321  0.26992377  1  -0.119834  -0.00708  3.848898  -0.01  -0.107571  -0.003544  4.097298  -0.006  -0.124022  -0.002219  4.125814  -0.004  -0.04609  -0.096846  -0.004445  4.078155  -0.007
C  C43  1  0.88667730  0.70087686  0.73007729  1  -0.11982  0.007072  3.848952  0.01  -0.107542  0.003547  4.097318  0.006  -0.123997  0.002224  4.12584  0.004  -0.046068  -0.096811  0.004446  4.078177  0.007
C  C44  1  0.54972071  0.28084645  0.17386540  1  0.243601  0.005344  3.838191  0.011  0.23431  -0.000519  4.103698  0.003  0.255241  0.000489  4.119975  0.003  0.088748  0.220689  -0.001411  4.092466  0.003
C  C45  1  0.04970585  0.71915328  0.82613827  1  0.243721  -0.005336  3.838237  -0.011  0.234416  0.000512  4.103678  -0.003  0.25535  -0.000496  4.119958  -0.003  0.088801  0.220798  0.001408  4.092471  -0.003
C  C46  1  0.17612113  0.22219518  0.28776267  1  0.167191  0.017341  3.726032  0.018  0.124803  0.004609  3.996868  0.006  0.148484  0.005916  4.006437  0.008  0.073448  0.108988  0.003127  3.990887  0.004
C  C47  1  0.67612249  0.77780348  0.71223462  1  0.167083  -0.017334  3.726114  -0.018  0.124676  -0.004613  3.996949  -0.006  0.148356  -0.005914  4.006522  -0.008  0.073411  0.108863  -0.003127  3.990989  -0.004
C  C48  1  0.78302194  0.98553464  0.14954228  1  0.638742  0.000565  3.819459  0.0  0.596392  -0.000352  4.120448  -0.001  0.633346  -0.000391  4.112855  -0.001  0.2114  0.571122  -0.000288  4.123426  -0.001
C  C49  1  0.28302205  0.01446639  0.85045153  1  0.638747  -0.000567  3.819392  0.0  0.596237  0.000345  4.120568  0.001  0.633192  0.000386  4.112972  0.001  0.211305  0.570963  0.000286  4.123543  0.001
C  C50  1  0.90227783  0.05496192  0.25245205  1  0.012396  -0.000106  3.640543  0.002  0.002931  -0.000824  3.872754  0.001  0.001968  -0.000231  3.8881  0.002  0.006789  0.003877  -0.001123  3.862598  0.0
C  C51  1  0.40227818  0.94503555  0.74754140  1  0.012474  0.000109  3.640525  -0.002  0.003191  0.000814  3.872567  -0.001  0.002233  0.000235  3.887909  -0.002  0.006799  0.004145  0.001122  3.862394  0.0
C  C52  1  0.02790631  0.97648223  0.32608454  1  -0.13443  -0.000966  3.643898  -0.001  -0.176811  -0.000448  3.890077  0.0  -0.178622  -0.000445  3.904209  0.0  -0.162096  -0.17534  -0.000414  3.880451  0.0
C  C53  1  0.52790236  0.02351918  0.67391053  1  -0.134538  0.000961  3.64392  0.001  -0.176987  0.000446  3.890116  0.0  -0.178799  0.000446  3.904239  0.0  -0.162112  -0.175507  0.000414  3.880477  0.0
C  C54  1  0.82415848  0.89753938  0.36639084  1  -0.145984  -0.000377  3.688539  0.0  -0.181416  -0.000235  3.952997  0.0  -0.181403  -0.000145  3.96537  0.0  -0.155204  -0.181541  -0.000292  3.944539  0.0
C  C55  1  0.32415361  0.10246500  0.63360436  1  -0.145961  0.00039  3.688446  0.0  -0.181386  0.000231  3.953051  0.0  -0.181396  0.000144  3.965492  0.0  -0.155213  -0.181514  0.000292  3.944584  0.0
C  C56  1  0.18030771  0.72317532  0.39685756  1  -0.322025  2.9e-05  3.685926  0.0  -0.392871  9.7e-05  3.936766  0.0  -0.393897  6.4e-05  3.945689  0.0  -0.230619  -0.39205  0.000118  3.930432  0.0
C  C57  1  0.68030670  0.27682418  0.60313826  1  -0.32219  -3.4e-05  3.685921  0.0  -0.39302  -0.000104  3.936716  0.0  -0.394047  -6.4e-05  3.945634  0.0  -0.230634  -0.392201  -0.000117  3.930386  0.0
S  S58  1  0.95267517  0.82449750  0.47227728  1  -0.037988  0.000117  2.390558  0.0  -0.02084  0.000262  2.756097  0.0  -0.026238  8.3e-05  2.756313  0.0  -0.037464  -0.016342  0.000547  2.75587  0.0
S  S59  1  0.45266453  0.17550162  0.52772052  1  -0.037953  -0.000117  2.390631  0.0  -0.020799  -0.000258  2.756171  0.0  -0.02619  -8.4e-05  2.756394  0.0  -0.037464  -0.0163  -0.000547  2.755941  0.0
N  N60  1  0.10864953  0.13070857  0.22187390  1  -0.351111  -0.100432  3.316609  -0.125  -0.315555  -0.067048  3.637304  -0.089  -0.350532  -0.057176  3.653244  -0.08  -0.387389  -0.29528  -0.067584  3.629145  -0.087
N  N61  1  0.60863657  0.86929018  0.77812008  1  -0.351046  0.100432  3.316589  0.125  -0.315495  0.067064  3.637193  0.089  -0.350465  0.057178  3.653126  0.08  -0.387347  -0.295253  0.067589  3.629065  0.087
O  O62  1  0.57013805  0.93215699  0.15168477  1  -0.572054  -0.009523  1.926973  -0.012  -0.548082  -0.005686  2.162304  -0.008  -0.572023  -0.003151  2.149474  -0.004  -0.30252  -0.530233  -0.008258  2.17  -0.011
O  O63  1  0.07013763  0.06784096  0.84830903  1  -0.571948  0.009529  1.926921  0.012  -0.547922  0.005694  2.162312  0.008  -0.57186  0.003154  2.149482  0.004  -0.302412  -0.530078  0.008261  2.169998  0.011
O  O64  1  0.92402000  0.98576193  0.06008865  1  -0.610491  -0.01132  2.226102  -0.016  -0.572858  -0.009424  2.543097  -0.014  -0.620634  -0.007015  2.527351  -0.011  -0.331984  -0.538451  -0.010643  2.552967  -0.016
O  O65  1  0.42401294  0.01424571  0.93991042  1  -0.610654  0.011324  2.226199  0.016  -0.572931  0.009433  2.543215  0.014  -0.62071  0.007021  2.52747  0.011  -0.332023  -0.538526  0.010662  2.553086  0.016
O  O66  1  0.52776175  0.19630232  0.09382747  1  -0.493482  -0.124497  2.118072  -0.163  -0.491255  -0.077543  2.420588  -0.113  -0.538268  -0.059043  2.420539  -0.091  -0.322804  -0.461885  -0.084153  2.42187  -0.117
O  O67  1  0.02774890  0.80369320  0.90617713  1  -0.493603  0.12449  2.118048  0.163  -0.49132  0.077551  2.420532  0.113  -0.538329  0.059046  2.420484  0.091  -0.322878  -0.461988  0.084153  2.421846  0.117
O  O68  1  0.89947861  0.34034415  0.06996672  1  -0.217901  -0.000578  2.372359  0.0  -0.148113  -0.000305  2.616379  0.0  -0.164698  -0.00015  2.619102  0.0  -0.181422  -0.136606  -0.000422  2.614532  0.0
O  O69  1  0.39945526  0.65965678  0.93004091  1  -0.217776  0.000577  2.372098  0.0  -0.148078  0.000306  2.616173  0.0  -0.16466  0.000153  2.618894  0.0  -0.181409  -0.136567  0.000421  2.614338  0.0
