# generated using pymatgen
data_ZnH5C6(N2O)2
_symmetry_space_group_name_H-M   'P 1'
_cell_length_a   12.62132122
_cell_length_b   12.62132079
_cell_length_c   25.63156726
_cell_angle_alpha   90.00002408
_cell_angle_beta   89.99998286
_cell_angle_gamma   89.99999581
_symmetry_Int_Tables_number   1
_chemical_formula_structural   ZnH5C6(N2O)2
_chemical_formula_sum   'Zn16 H80 C96 N64 O32'
_cell_volume   4083.05083758
_cell_formula_units_Z   16
loop_
 _symmetry_equiv_pos_site_id
 _symmetry_equiv_pos_as_xyz
  1  'x, y, z'
loop_
 _atom_site_type_symbol
 _atom_site_label
 _atom_site_symmetry_multiplicity
 _atom_site_fract_x
 _atom_site_fract_y
 _atom_site_fract_z
 _atom_site_occupancy
 _atom_site_pbe_bader_charge
 _atom_site_pbe_bader_spin_density
 _atom_site_pbe_cm5_charge
 _atom_site_pbe_ddec_charge
 _atom_site_pbe_ddec_spin_density
 _atom_site_pbe_ddec_sum_bond_order
 _atom_site_pbe_magmom
Zn  Zn0  1  0.96096024  0.06634350  0.56155787  1  1.226307  0  0.720642  0.708726  0  2.508099  0
Zn  Zn1  1  0.53903926  0.43365610  0.56155794  1  1.226295  0  0.720618  0.708634  0  2.508154  0
Zn  Zn2  1  0.43365645  0.96095987  0.56155800  1  1.226302  0  0.720633  0.708678  0  2.508143  0
Zn  Zn3  1  0.06634389  0.53903970  0.56155799  1  1.226307  0  0.72061  0.708655  0  2.508192  0
Zn  Zn4  1  0.53903995  0.06634368  0.93844200  1  1.226407  0  0.720631  0.708713  0  2.508121  0
Zn  Zn5  1  0.96096011  0.43365625  0.93844239  1  1.226315  0  0.720614  0.708679  0  2.508117  0
Zn  Zn6  1  0.06634376  0.96096084  0.93844251  1  1.226313  0  0.720598  0.70864  0  2.508194  0
Zn  Zn7  1  0.43365636  0.53903906  0.93844244  1  1.226312  0  0.720621  0.70869  0  2.508119  0
Zn  Zn8  1  0.03903933  0.93365604  0.43844226  1  1.22631  0  0.720624  0.708661  0  2.508176  0
Zn  Zn9  1  0.46096030  0.56634423  0.43844220  1  1.22631  0  0.720641  0.708724  0  2.508117  0
Zn  Zn10  1  0.56634390  0.03903966  0.43844174  1  1.226396  0  0.720621  0.708683  0  2.508139  0
Zn  Zn11  1  0.93365567  0.46095983  0.43844215  1  1.226304  0  0.720614  0.70865  0  2.508171  0
Zn  Zn12  1  0.46096040  0.93365665  0.06155814  1  1.226398  0  0.720644  0.708708  0  2.50814  0
Zn  Zn13  1  0.03903946  0.56634329  0.06155774  1  1.226311  0  0.720627  0.708663  0  2.50815  0
Zn  Zn14  1  0.93365659  0.03903949  0.06155762  1  1.226311  0  0.720638  0.708663  0  2.508152  0
Zn  Zn15  1  0.56634400  0.46096048  0.06155769  1  1.226312  0  0.720618  0.708653  0  2.508147  0
H  H16  1  0.71972084  0.05915883  0.53366299  1  0.150599  0  0.139407  0.107734  0  0.991219  0
H  H17  1  0.78027946  0.44084233  0.53366302  1  0.150594  0  0.139419  0.107765  0  0.991157  0
H  H18  1  0.44084272  0.71972124  0.53366308  1  0.150666  0  0.13943  0.107766  0  0.991173  0
H  H19  1  0.05915923  0.78027910  0.53366272  1  0.150596  0  0.139413  0.107755  0  0.991202  0
H  H20  1  0.78027935  0.05915901  0.96633727  1  0.150605  0  0.139406  0.107723  0  0.991205  0
H  H21  1  0.71972070  0.44084094  0.96633731  1  0.150614  0  0.139417  0.107749  0  0.991199  0
H  H22  1  0.05915910  0.71972065  0.96633739  1  0.150604  0  0.139416  0.107739  0  0.991208  0
H  H23  1  0.44084101  0.78027927  0.96633737  1  0.150612  0  0.139417  0.107741  0  0.991206  0
H  H24  1  0.28027951  0.94083992  0.46633715  1  0.150597  0  0.139418  0.107776  0  0.991163  0
H  H25  1  0.21972089  0.55915879  0.46633711  1  0.150599  0  0.139413  0.107764  0  0.99119  0
H  H26  1  0.55915922  0.28027909  0.46633706  1  0.150596  0  0.139411  0.107759  0  0.991204  0
H  H27  1  0.94084113  0.21972123  0.46633741  1  0.150624  0  0.139429  0.107793  0  0.991174  0
H  H28  1  0.21972101  0.94084211  0.03366287  1  0.1506  0  0.139414  0.10774  0  0.991196  0
H  H29  1  0.28027966  0.55915781  0.03366321  1  0.150597  0  0.139422  0.107776  0  0.991165  0
H  H30  1  0.94084047  0.28027889  0.03366314  1  0.150598  0  0.139414  0.107767  0  0.99119  0
H  H31  1  0.55915935  0.21972026  0.03366277  1  0.150599  0  0.13942  0.107746  0  0.991189  0
H  H32  1  0.94441991  0.07219480  0.76603581  1  0.083545  0  0.101582  0.105053  0  1.031837  0
H  H33  1  0.55557946  0.42780577  0.76603588  1  0.083406  0  0.101583  0.105066  0  1.031871  0
H  H34  1  0.42780597  0.94442049  0.76603555  1  0.083426  0  0.101579  0.105042  0  1.031842  0
H  H35  1  0.07219425  0.55558006  0.76603553  1  0.083439  0  0.101567  0.105044  0  1.031804  0
H  H36  1  0.55557949  0.07219638  0.73396367  1  0.083709  0  0.101601  0.105062  0  1.031782  0
H  H37  1  0.94441911  0.42780574  0.73396485  1  0.083641  0  0.101547  0.105016  0  1.031875  0
H  H38  1  0.07219583  0.94442128  0.73396418  1  0.083606  0  0.101602  0.105075  0  1.03176  0
H  H39  1  0.42780521  0.55557924  0.73396451  1  0.083706  0  0.101594  0.105072  0  1.031842  0
H  H40  1  0.05557965  0.92780395  0.23396394  1  0.083713  0  0.101585  0.105047  0  1.031865  0
H  H41  1  0.44442010  0.57219535  0.23396387  1  0.083725  0  0.101568  0.105055  0  1.031855  0
H  H42  1  0.57219676  0.05557905  0.23396381  1  0.083705  0  0.101606  0.105082  0  1.031755  0
H  H43  1  0.92780611  0.44441948  0.23396460  1  0.083439  0  0.101551  0.105004  0  1.031923  0
H  H44  1  0.44441928  0.92780632  0.26603569  1  0.083437  0  0.101538  0.104982  0  1.031873  0
H  H45  1  0.05557966  0.57219459  0.26603568  1  0.083621  0  0.101555  0.10503  0  1.03181  0
H  H46  1  0.92780453  0.05557905  0.26603556  1  0.083538  0  0.101589  0.105056  0  1.031727  0
H  H47  1  0.57219436  0.44441951  0.26603524  1  0.083451  0  0.10154  0.105005  0  1.031849  0
H  H48  1  0.81790857  0.06817307  0.84113072  1  0.080896  0  0.100121  0.103513  0  1.013515  0
H  H49  1  0.68208917  0.43182677  0.84113116  1  0.080871  0  0.100121  0.103487  0  1.013555  0
H  H50  1  0.43182693  0.81790920  0.84113083  1  0.080892  0  0.100118  0.103525  0  1.013518  0
H  H51  1  0.06817325  0.68209141  0.84113045  1  0.080904  0  0.100135  0.10352  0  1.013555  0
H  H52  1  0.68209083  0.06817458  0.65886876  1  0.080881  0  0.100118  0.103523  0  1.013503  0
H  H53  1  0.81790861  0.43182669  0.65886996  1  0.080915  0  0.100149  0.10354  0  1.013539  0
H  H54  1  0.06817409  0.81790992  0.65886888  1  0.080872  0  0.100133  0.103503  0  1.013545  0
H  H55  1  0.43182620  0.68208974  0.65886923  1  0.080886  0  0.100134  0.103529  0  1.013532  0
H  H56  1  0.18209020  0.93182568  0.15886903  1  0.080877  0  0.100129  0.103508  0  1.01356  0
H  H57  1  0.31790960  0.56817435  0.15886898  1  0.080878  0  0.100124  0.103511  0  1.013548  0
H  H58  1  0.56817422  0.18209034  0.15886853  1  0.080871  0  0.100143  0.103541  0  1.013554  0
H  H59  1  0.93182711  0.31790971  0.15886930  1  0.080887  0  0.10014  0.103523  0  1.013527  0
H  H60  1  0.31790873  0.93182733  0.34113099  1  0.080895  0  0.100121  0.10352  0  1.013518  0
H  H61  1  0.18209095  0.56817364  0.34113057  1  0.080901  0  0.100122  0.103549  0  1.013484  0
H  H62  1  0.93182785  0.18209040  0.34113087  1  0.080892  0  0.100144  0.103531  0  1.013524  0
H  H63  1  0.56817257  0.31790822  0.34113013  1  0.080922  0  0.100141  0.103568  0  1.013495  0
H  H64  1  0.73326461  0.97676636  0.35076244  1  0.521329  0  0.302111  0.328185  0  0.982581  0
H  H65  1  0.76673577  0.52323379  0.35076279  1  0.521331  0  0.30213  0.328204  0  0.98254  0
H  H66  1  0.52323431  0.73326491  0.35076244  1  0.521332  0  0.302107  0.328175  0  0.982594  0
H  H67  1  0.97676607  0.76673524  0.35076241  1  0.521328  0  0.302116  0.328192  0  0.982581  0
H  H68  1  0.76673581  0.97676627  0.14923750  1  0.521327  0  0.302117  0.328193  0  0.982554  0
H  H69  1  0.73326469  0.52323371  0.14923746  1  0.521334  0  0.302127  0.328202  0  0.982561  0
H  H70  1  0.97676613  0.73326481  0.14923746  1  0.521334  0  0.302128  0.328203  0  0.982559  0
H  H71  1  0.52323358  0.76673517  0.14923750  1  0.521323  0  0.302104  0.328175  0  0.982611  0
H  H72  1  0.26673574  0.02323397  0.64923769  1  0.521325  0  0.302125  0.328205  0  0.982537  0
H  H73  1  0.23326380  0.47676574  0.64923774  1  0.521325  0  0.302114  0.328187  0  0.982567  0
H  H74  1  0.47676604  0.26673542  0.64923770  1  0.521328  0  0.302117  0.328193  0  0.982578  0
H  H75  1  0.02323429  0.23326509  0.64923773  1  0.521324  0  0.302111  0.32818  0  0.982593  0
H  H76  1  0.23326454  0.02323406  0.85076224  1  0.52133  0  0.302115  0.328193  0  0.982581  0
H  H77  1  0.26673567  0.47676583  0.85076307  1  0.521326  0  0.302122  0.328191  0  0.982565  0
H  H78  1  0.02323343  0.26673552  0.85076228  1  0.52133  0  0.302108  0.328198  0  0.982536  0
H  H79  1  0.47676598  0.23326436  0.85076225  1  0.52132  0  0.302128  0.328186  0  0.982569  0
H  H80  1  0.87261373  0.95155188  0.35099574  1  0.538589  0  0.302038  0.328737  0  0.985894  0
H  H81  1  0.62738665  0.54844748  0.35099571  1  0.53826  0  0.302054  0.328759  0  0.985871  0
H  H82  1  0.54844799  0.87261324  0.35099614  1  0.538595  0  0.302053  0.32875  0  0.985873  0
H  H83  1  0.95155239  0.62738691  0.35099609  1  0.538594  0  0.302045  0.328741  0  0.985888  0
H  H84  1  0.62738669  0.95155180  0.14900421  1  0.538596  0  0.302048  0.328752  0  0.985881  0
H  H85  1  0.87261302  0.54844818  0.14900415  1  0.538594  0  0.30205  0.328755  0  0.985867  0
H  H86  1  0.95155244  0.87261314  0.14900417  1  0.538593  0  0.302047  0.32875  0  0.985883  0
H  H87  1  0.54844806  0.62738605  0.14900457  1  0.538591  0  0.302055  0.328742  0  0.985862  0
H  H88  1  0.12738662  0.04844766  0.64900440  1  0.538588  0  0.302061  0.328751  0  0.985864  0
H  H89  1  0.37261371  0.45155126  0.64900442  1  0.538601  0  0.302039  0.328741  0  0.985887  0
H  H90  1  0.45155237  0.12738550  0.64900399  1  0.538588  0  0.30204  0.328744  0  0.985885  0
H  H91  1  0.04844797  0.37261342  0.64900444  1  0.538591  0  0.302045  0.328739  0  0.985893  0
H  H92  1  0.37261366  0.04844774  0.85099593  1  0.538592  0  0.302045  0.328746  0  0.985886  0
H  H93  1  0.12738655  0.45155215  0.85099599  1  0.538594  0  0.302046  0.328747  0  0.985888  0
H  H94  1  0.04844791  0.12738640  0.85099596  1  0.538591  0  0.302043  0.328743  0  0.98589  0
H  H95  1  0.45155230  0.37261349  0.85099557  1  0.538593  0  0.302046  0.328737  0  0.985892  0
C  C96  1  0.80881849  0.99691483  0.42065165  1  1.555359  0  0.331506  0.548321  0  4.109492  0
C  C97  1  0.69118106  0.50308538  0.42065161  1  1.555354  0  0.331463  0.548268  0  4.109531  0
C  C98  1  0.50308505  0.80881963  0.42065126  1  1.555354  0  0.331516  0.548267  0  4.109548  0
C  C99  1  0.99691449  0.69118058  0.42065122  1  1.555353  0  0.33154  0.548373  0  4.109421  0
C  C100  1  0.69118114  0.99691469  0.07934908  1  1.555372  0  0.331521  0.548339  0  4.109484  0
C  C101  1  0.80881861  0.50308602  0.07934902  1  1.555364  0  0.331521  0.548337  0  4.109492  0
C  C102  1  0.99691459  0.80881868  0.07934904  1  1.555347  0  0.331527  0.548358  0  4.109447  0
C  C103  1  0.50308516  0.69118124  0.07934906  1  1.555347  0  0.331501  0.548291  0  4.109551  0
C  C104  1  0.19118108  0.00308470  0.57934887  1  1.555349  0  0.331505  0.548314  0  4.109546  0
C  C105  1  0.30881851  0.49691416  0.57934892  1  1.555358  0  0.331558  0.548411  0  4.109372  0
C  C106  1  0.49691531  0.19118070  0.57934887  1  1.555361  0  0.331515  0.548304  0  4.109512  0
C  C107  1  0.00308507  0.30881896  0.57934853  1  1.55535  0  0.331506  0.548287  0  4.109533  0
C  C108  1  0.30881921  0.00308485  0.92065144  1  1.555357  0  0.331538  0.548412  0  4.109408  0
C  C109  1  0.19118175  0.49691431  0.92065150  1  1.555362  0  0.331535  0.548433  0  4.109335  0
C  C110  1  0.00308497  0.19118086  0.92065149  1  1.555364  0  0.331513  0.548362  0  4.109428  0
C  C111  1  0.49691441  0.30881909  0.92065146  1  1.555366  0  0.331535  0.548356  0  4.109478  0
C  C112  1  0.76526759  0.03807386  0.49929404  1  1.049745  0  0.144463  0.158588  0  4.016151  0
C  C113  1  0.73473353  0.46192569  0.49929408  1  1.050063  0  0.144421  0.158548  0  4.016022  0
C  C114  1  0.46192531  0.76526717  0.49929413  1  1.04966  0  0.144415  0.158521  0  4.016087  0
C  C115  1  0.03807428  0.73473314  0.49929416  1  1.049771  0  0.144432  0.158531  0  4.016124  0
C  C116  1  0.73473290  0.03807444  0.00070650  1  1.049744  0  0.144418  0.158559  0  4.016163  0
C  C117  1  0.76526773  0.46192548  0.00070615  1  1.049777  0  0.144438  0.158559  0  4.0161  0
C  C118  1  0.03807522  0.76526698  0.00070624  1  1.050066  0  0.144433  0.158563  0  4.016099  0
C  C119  1  0.46192546  0.73473291  0.00070620  1  1.049774  0  0.144442  0.158582  0  4.016063  0
C  C120  1  0.23473277  0.96192568  0.50070610  1  1.049786  0  0.144424  0.15853  0  4.016131  0
C  C121  1  0.26526683  0.53807384  0.50070605  1  1.049759  0  0.144435  0.158512  0  4.016135  0
C  C122  1  0.53807425  0.23473316  0.50070600  1  1.04971  0  0.144432  0.15851  0  4.016144  0
C  C123  1  0.96192607  0.26526719  0.50070637  1  1.049779  0  0.144424  0.158499  0  4.016144  0
C  C124  1  0.26526666  0.96192510  0.99929403  1  1.050047  0  0.144425  0.158565  0  4.016091  0
C  C125  1  0.23473263  0.53807406  0.99929398  1  1.049734  0  0.144424  0.158512  0  4.016166  0
C  C126  1  0.96192592  0.23473256  0.99929390  1  1.049744  0  0.144429  0.158527  0  4.01615  0
C  C127  1  0.53807489  0.26526742  0.99929393  1  1.049707  0  0.144433  0.158576  0  4.016121  0
C  C128  1  0.82084887  0.06960789  0.70803781  1  -0.093276  0  -0.014225  -0.028596  0  3.965956  0
C  C129  1  0.67914974  0.43039264  0.70803785  1  -0.093302  0  -0.01422  -0.028558  0  3.965948  0
C  C130  1  0.43039368  0.82084861  0.70803752  1  -0.09327  0  -0.014222  -0.028617  0  3.96595  0
C  C131  1  0.06960737  0.67915188  0.70803714  1  -0.093297  0  -0.014255  -0.028614  0  3.965883  0
C  C132  1  0.67915052  0.06960793  0.79196245  1  -0.093309  0  -0.014196  -0.028468  0  3.965865  0
C  C133  1  0.82084804  0.43039267  0.79196248  1  -0.093281  0  -0.014258  -0.028648  0  3.96594  0
C  C134  1  0.06960734  0.82085024  0.79196219  1  -0.09331  0  -0.014219  -0.028536  0  3.96598  0
C  C135  1  0.43039366  0.67915032  0.79196253  1  -0.093287  0  -0.014218  -0.028573  0  3.965913  0
C  C136  1  0.17915069  0.93039244  0.29196233  1  -0.093279  0  -0.014213  -0.028529  0  3.96596  0
C  C137  1  0.32084982  0.56960849  0.29196267  1  -0.09332  0  -0.014182  -0.028424  0  3.965796  0
C  C138  1  0.56960826  0.17915013  0.29196222  1  -0.093286  0  -0.014249  -0.028593  0  3.965966  0
C  C139  1  0.93039378  0.32085003  0.29196260  1  -0.0933  0  -0.01421  -0.028524  0  3.965866  0
C  C140  1  0.32084904  0.93039320  0.20803729  1  -0.093276  0  -0.014174  -0.028462  0  3.965769  0
C  C141  1  0.17915073  0.56960687  0.20803727  1  -0.093301  0  -0.014189  -0.028443  0  3.965805  0
C  C142  1  0.93039381  0.17915088  0.20803756  1  -0.093276  0  -0.014184  -0.028487  0  3.965798  0
C  C143  1  0.56960749  0.32084842  0.20803721  1  -0.093286  0  -0.014241  -0.028558  0  3.965884  0
C  C144  1  0.85918478  0.07096355  0.75940454  1  0.023949  0  -0.082456  -0.09327  0  3.963591  0
C  C145  1  0.64081381  0.42903543  0.75940459  1  0.025091  0  -0.082462  -0.093321  0  3.963682  0
C  C146  1  0.42903485  0.85918456  0.75940465  1  0.02398  0  -0.082403  -0.093148  0  3.963527  0
C  C147  1  0.07096379  0.64081598  0.75940388  1  0.025163  0  -0.082446  -0.093262  0  3.96351  0
C  C148  1  0.64081462  0.07096513  0.74059572  1  0.024985  0  -0.082471  -0.093328  0  3.9635  0
C  C149  1  0.85918398  0.42903542  0.74059613  1  0.023907  0  -0.082436  -0.093231  0  3.963649  0
C  C150  1  0.07096537  0.85918535  0.74059545  1  0.024968  0  -0.08248  -0.093333  0  3.963533  0
C  C151  1  0.42903487  0.64081438  0.74059540  1  0.024982  0  -0.082445  -0.093234  0  3.963527  0
C  C152  1  0.14081399  0.92903599  0.24059560  1  0.025009  0  -0.082435  -0.09325  0  3.963588  0
C  C153  1  0.35918496  0.57096411  0.24059554  1  0.024974  0  -0.082478  -0.093361  0  3.963622  0
C  C154  1  0.57096471  0.14081498  0.24059509  1  0.024981  0  -0.082487  -0.093328  0  3.963526  0
C  C155  1  0.92903736  0.35918514  0.24059548  1  0.025103  0  -0.082436  -0.093209  0  3.963655  0
C  C156  1  0.35918415  0.92903678  0.25940442  1  0.025137  0  -0.082431  -0.093229  0  3.963546  0
C  C157  1  0.14081559  0.57096491  0.25940401  1  0.025095  0  -0.082442  -0.093308  0  3.963543  0
C  C158  1  0.92903577  0.14081577  0.25940429  1  0.023874  0  -0.08244  -0.093236  0  3.963439  0
C  C159  1  0.57096311  0.35918437  0.25940395  1  0.025078  0  -0.082446  -0.093258  0  3.963548  0
C  C160  1  0.78879118  0.06911273  0.80112420  1  0.008522  0  -0.082559  -0.086297  0  3.958876  0
C  C161  1  0.71120658  0.43088628  0.80112424  1  0.00848  0  -0.082539  -0.086206  0  3.958901  0
C  C162  1  0.43088726  0.78879099  0.80112430  1  0.008527  0  -0.0826  -0.086378  0  3.958946  0
C  C163  1  0.06911373  0.71120958  0.80112431  1  0.007336  0  -0.082591  -0.08634  0  3.95898  0
C  C164  1  0.71120821  0.06911348  0.69887567  1  0.008491  0  -0.082582  -0.086306  0  3.958854  0
C  C165  1  0.78879120  0.43088624  0.69887610  1  0.008546  0  -0.082579  -0.08633  0  3.95895  0
C  C166  1  0.06911297  0.78879255  0.69887541  1  0.008508  0  -0.082527  -0.086204  0  3.958854  0
C  C167  1  0.43088651  0.71120794  0.69887576  1  0.008475  0  -0.082619  -0.086387  0  3.958962  0
C  C168  1  0.21120759  0.93088680  0.19887555  1  0.008531  0  -0.082607  -0.086376  0  3.95894  0
C  C169  1  0.28879219  0.56911484  0.19887551  1  0.008477  0  -0.082577  -0.08635  0  3.958937  0
C  C170  1  0.56911388  0.21120775  0.19887545  1  0.008462  0  -0.082535  -0.086279  0  3.958955  0
C  C171  1  0.93088821  0.28879233  0.19887582  1  0.00852  0  -0.082611  -0.086381  0  3.95891  0
C  C172  1  0.28879135  0.93088843  0.30112407  1  0.007355  0  -0.082596  -0.086345  0  3.958968  0
C  C173  1  0.21120915  0.56911251  0.30112404  1  0.007335  0  -0.082589  -0.086373  0  3.958888  0
C  C174  1  0.93088818  0.21120937  0.30112434  1  0.00854  0  -0.082635  -0.086406  0  3.958969  0
C  C175  1  0.56911306  0.28879080  0.30112360  1  0.007326  0  -0.082578  -0.086342  0  3.95892  0
C  C176  1  0.89710635  0.06962529  0.66354267  1  1.527475  0  0.212752  0.579231  0  4.183177  0
C  C177  1  0.60289308  0.43037519  0.66354312  1  1.527622  0  0.212735  0.5792  0  4.183178  0
C  C178  1  0.43037388  0.89710527  0.66354240  1  1.527458  0  0.212727  0.579209  0  4.183272  0
C  C179  1  0.06962482  0.60289519  0.66354239  1  1.527452  0  0.212718  0.579254  0  4.183175  0
C  C180  1  0.60289304  0.06962459  0.83645720  1  1.527554  0  0.212731  0.579131  0  4.183256  0
C  C181  1  0.89710470  0.43037446  0.83645761  1  1.527462  0  0.212701  0.579232  0  4.183083  0
C  C182  1  0.06962475  0.89710694  0.83645733  1  1.527489  0  0.21271  0.579171  0  4.183248  0
C  C183  1  0.43037384  0.60289446  0.83645727  1  1.527441  0  0.212706  0.579231  0  4.183126  0
C  C184  1  0.10289321  0.93037424  0.33645708  1  1.527468  0  0.212726  0.579174  0  4.183174  0
C  C185  1  0.39710648  0.56962514  0.33645702  1  1.527461  0  0.2127  0.579183  0  4.183187  0
C  C186  1  0.56962568  0.10289348  0.33645696  1  1.527538  0  0.21276  0.579241  0  4.183223  0
C  C187  1  0.93037633  0.39710514  0.33645735  1  1.527586  0  0.212725  0.579202  0  4.183236  0
C  C188  1  0.39710573  0.93037416  0.16354254  1  1.527456  0  0.212722  0.579242  0  4.183103  0
C  C189  1  0.10289328  0.56962587  0.16354253  1  1.527477  0  0.212686  0.579166  0  4.183208  0
C  C190  1  0.93037481  0.10289418  0.16354242  1  1.527467  0  0.212756  0.579217  0  4.183255  0
C  C191  1  0.56962493  0.39710587  0.16354248  1  1.527594  0  0.212707  0.579195  0  4.183248  0
N  N192  1  0.89894141  0.00005958  0.44927328  1  -0.819369  0  -0.293722  -0.345916  0  3.447934  0
N  N193  1  0.60105816  0.49994072  0.44927296  1  -0.819379  0  -0.293761  -0.346005  0  3.447974  0
N  N194  1  0.49994036  0.89894175  0.44927301  1  -0.819391  0  -0.293744  -0.345946  0  3.447937  0
N  N195  1  0.00005926  0.60105852  0.44927302  1  -0.819376  0  -0.293714  -0.345929  0  3.447941  0
N  N196  1  0.60105829  0.00005942  0.05072686  1  -0.819377  0  -0.293736  -0.345936  0  3.447943  0
N  N197  1  0.89894072  0.49993974  0.05072689  1  -0.819365  0  -0.293698  -0.34587  0  3.447894  0
N  N198  1  0.00006017  0.89894081  0.05072699  1  -0.819363  0  -0.2937  -0.345884  0  3.447908  0
N  N199  1  0.49994049  0.60105913  0.05072693  1  -0.819368  0  -0.293706  -0.345889  0  3.447927  0
N  N200  1  0.10105895  0.99994075  0.55072686  1  -0.819362  0  -0.293736  -0.345977  0  3.447992  0
N  N201  1  0.39894141  0.50005961  0.55072678  1  -0.819368  0  -0.293701  -0.345899  0  3.447894  0
N  N202  1  0.50005841  0.10105779  0.55072673  1  -0.819386  0  -0.293729  -0.345941  0  3.447938  0
N  N203  1  0.99994109  0.39894101  0.55072673  1  -0.819371  0  -0.293709  -0.345898  0  3.447956  0
N  N204  1  0.39894206  0.99994091  0.94927328  1  -0.819372  0  -0.293759  -0.346034  0  3.447952  0
N  N205  1  0.10105884  0.50005900  0.94927325  1  -0.819351  0  -0.293715  -0.345966  0  3.44791  0
N  N206  1  0.99994098  0.10105794  0.94927353  1  -0.819377  0  -0.293697  -0.345956  0  3.447945  0
N  N207  1  0.50005907  0.39894120  0.94927321  1  -0.819376  0  -0.293739  -0.345987  0  3.448004  0
N  N208  1  0.86896751  0.02511166  0.50004076  1  -0.861244  0  -0.277817  -0.214801  0  3.567978  0
N  N209  1  0.63103282  0.47489027  0.50004083  1  -0.861194  0  -0.27779  -0.214751  0  3.567878  0
N  N210  1  0.47488988  0.86896710  0.50004088  1  -0.861202  0  -0.277799  -0.214747  0  3.567888  0
N  N211  1  0.02511130  0.63103322  0.50004050  1  -0.861255  0  -0.277818  -0.214789  0  3.567976  0
N  N212  1  0.63103298  0.02511066  0.99995977  1  -0.861199  0  -0.277825  -0.214827  0  3.567966  0
N  N213  1  0.86896685  0.47488846  0.99995980  1  -0.861264  0  -0.277836  -0.214812  0  3.56793  0
N  N214  1  0.02511144  0.86896690  0.99995951  1  -0.861204  0  -0.277818  -0.214797  0  3.56795  0
N  N215  1  0.47488845  0.63103299  0.99995985  1  -0.861256  0  -0.277826  -0.214799  0  3.567903  0
N  N216  1  0.13103285  0.97488788  0.49995937  1  -0.861258  0  -0.277806  -0.214786  0  3.567976  0
N  N217  1  0.36896754  0.52511165  0.49995970  1  -0.861247  0  -0.277841  -0.214808  0  3.567976  0
N  N218  1  0.52511127  0.13103244  0.49995965  1  -0.861208  0  -0.277827  -0.214785  0  3.567955  0
N  N219  1  0.97488826  0.36896711  0.49995964  1  -0.861255  0  -0.27784  -0.214805  0  3.567974  0
N  N220  1  0.36896768  0.97488924  0.00004104  1  -0.861222  0  -0.277787  -0.214743  0  3.567883  0
N  N221  1  0.13103301  0.52511065  0.00004101  1  -0.861245  0  -0.277826  -0.214802  0  3.567982  0
N  N222  1  0.97488842  0.13103221  0.00004091  1  -0.861253  0  -0.277834  -0.214793  0  3.567981  0
N  N223  1  0.52511141  0.36896691  0.00004057  1  -0.861218  0  -0.277813  -0.214773  0  3.567949  0
N  N224  1  0.72347800  0.02204620  0.45127707  1  -1.272031  0  -0.373087  -0.427258  0  3.470107  0
N  N225  1  0.77652156  0.47795490  0.45127751  1  -1.272263  0  -0.373026  -0.42718  0  3.470021  0
N  N226  1  0.47795455  0.72347834  0.45127677  1  -1.271901  0  -0.373076  -0.427228  0  3.470081  0
N  N227  1  0.02204665  0.77652114  0.45127681  1  -1.271911  0  -0.373087  -0.427239  0  3.47008  0
N  N228  1  0.77652170  0.02204681  0.04872307  1  -1.271951  0  -0.37305  -0.427195  0  3.47012  0
N  N229  1  0.72347811  0.47795314  0.04872312  1  -1.271933  0  -0.373096  -0.427281  0  3.470103  0
N  N230  1  0.02204678  0.72347898  0.04872281  1  -1.272257  0  -0.373092  -0.427264  0  3.470089  0
N  N231  1  0.47795388  0.77652175  0.04872317  1  -1.272015  0  -0.373086  -0.427275  0  3.470117  0
N  N232  1  0.27652156  0.97795334  0.54872306  1  -1.271922  0  -0.373068  -0.427216  0  3.470104  0
N  N233  1  0.22347879  0.52204702  0.54872302  1  -1.271927  0  -0.373099  -0.427266  0  3.470108  0
N  N234  1  0.52204580  0.27652199  0.54872297  1  -1.271915  0  -0.373065  -0.427195  0  3.470096  0
N  N235  1  0.97795370  0.22347840  0.54872293  1  -1.271936  0  -0.373084  -0.427245  0  3.470131  0
N  N236  1  0.22347866  0.97795431  0.95127707  1  -1.27226  0  -0.373096  -0.427279  0  3.470118  0
N  N237  1  0.27652146  0.52204560  0.95127741  1  -1.271932  0  -0.373081  -0.427246  0  3.470095  0
N  N238  1  0.97795358  0.27652135  0.95127733  1  -1.27192  0  -0.373085  -0.427237  0  3.470115  0
N  N239  1  0.52204647  0.22347779  0.95127697  1  -1.272013  0  -0.373085  -0.42727  0  3.470087  0
N  N240  1  0.80418111  0.97205767  0.36997391  1  -1.358386  0  -0.578918  -0.66046  0  3.30451  0
N  N241  1  0.69581926  0.52794250  0.36997426  1  -1.35805  0  -0.578943  -0.660476  0  3.304462  0
N  N242  1  0.52794300  0.80418063  0.36997391  1  -1.358418  0  -0.578938  -0.660439  0  3.304524  0
N  N243  1  0.97205737  0.69581874  0.36997386  1  -1.358409  0  -0.578935  -0.660486  0  3.304533  0
N  N244  1  0.69581931  0.97205757  0.13002604  1  -1.358409  0  -0.578942  -0.660502  0  3.304532  0
N  N245  1  0.80418120  0.52794240  0.13002599  1  -1.358419  0  -0.578946  -0.6605  0  3.304542  0
N  N246  1  0.97205743  0.80418131  0.13002600  1  -1.358417  0  -0.578949  -0.660503  0  3.304519  0
N  N247  1  0.52794308  0.69581945  0.13002603  1  -1.358413  0  -0.578942  -0.660459  0  3.304575  0
N  N248  1  0.19581845  0.02794346  0.63002584  1  -1.358393  0  -0.578951  -0.660474  0  3.304501  0
N  N249  1  0.30418110  0.47205703  0.63002627  1  -1.358414  0  -0.578936  -0.660501  0  3.304497  0
N  N250  1  0.47205735  0.19581890  0.63002584  1  -1.358392  0  -0.578917  -0.660454  0  3.304556  0
N  N251  1  0.02794299  0.30418080  0.63002588  1  -1.358396  0  -0.578921  -0.660434  0  3.304544  0
N  N252  1  0.30418104  0.02794276  0.86997409  1  -1.358388  0  -0.578913  -0.660469  0  3.304504  0
N  N253  1  0.19581915  0.47205714  0.86997376  1  -1.358397  0  -0.578954  -0.660526  0  3.304438  0
N  N254  1  0.02794292  0.19581902  0.86997413  1  -1.358386  0  -0.578912  -0.660471  0  3.304482  0
N  N255  1  0.47205648  0.30418009  0.86997372  1  -1.358407  0  -0.57895  -0.660459  0  3.304517  0
O  O256  1  0.85897010  0.04623390  0.61812913  1  -1.155471  0  -0.333217  -0.536495  0  2.313577  0
O  O257  1  0.64102936  0.45376654  0.61812958  1  -1.155449  0  -0.333212  -0.53646  0  2.313565  0
O  O258  1  0.45376606  0.85896978  0.61812925  1  -1.155483  0  -0.333211  -0.536473  0  2.313653  0
O  O259  1  0.04623504  0.64102985  0.61812887  1  -1.15549  0  -0.333215  -0.536487  0  2.31366  0
O  O260  1  0.64102929  0.04623403  0.88187034  1  -1.155537  0  -0.333215  -0.536456  0  2.31362  0
O  O261  1  0.85896922  0.45376585  0.88187115  1  -1.155509  0  -0.333197  -0.536477  0  2.313519  0
O  O262  1  0.04623416  0.85896991  0.88187047  1  -1.155456  0  -0.333191  -0.536453  0  2.313593  0
O  O263  1  0.45376599  0.64102994  0.88187080  1  -1.155477  0  -0.333219  -0.536497  0  2.31354  0
O  O264  1  0.14102946  0.95376722  0.38187061  1  -1.15546  0  -0.333203  -0.536466  0  2.313554  0
O  O265  1  0.35897021  0.54623458  0.38187055  1  -1.155452  0  -0.333192  -0.536456  0  2.313582  0
O  O266  1  0.54623509  0.14102976  0.38187050  1  -1.15552  0  -0.333204  -0.536479  0  2.31365  0
O  O267  1  0.95376531  0.35896969  0.38187127  1  -1.155503  0  -0.333223  -0.536474  0  2.313629  0
O  O268  1  0.35897027  0.95376630  0.11812902  1  -1.155481  0  -0.333233  -0.536529  0  2.313574  0
O  O269  1  0.14102955  0.54623369  0.11812938  1  -1.155469  0  -0.333216  -0.536476  0  2.313571  0
O  O270  1  0.95376619  0.14103042  0.11812928  1  -1.15548  0  -0.333211  -0.536473  0  2.313655  0
O  O271  1  0.54623436  0.35897039  0.11812933  1  -1.155476  0  -0.333191  -0.536435  0  2.31365  0
O  O272  1  0.99348611  0.09314740  0.67095891  1  -1.207155  0  -0.318598  -0.574974  0  2.185373  0
O  O273  1  0.50651411  0.40685309  0.67095859  1  -1.207311  0  -0.318595  -0.574965  0  2.185408  0
O  O274  1  0.40685415  0.99348584  0.67095865  1  -1.20713  0  -0.318576  -0.57496  0  2.185401  0
O  O275  1  0.09314613  0.50651463  0.67095863  1  -1.207109  0  -0.318536  -0.574973  0  2.185358  0
O  O276  1  0.50651407  0.09314669  0.82904097  1  -1.207161  0  -0.318594  -0.574949  0  2.18542  0
O  O277  1  0.99348526  0.40685393  0.82904174  1  -1.207106  0  -0.318541  -0.574956  0  2.185357  0
O  O278  1  0.09314685  0.99348671  0.82904109  1  -1.207173  0  -0.31859  -0.57496  0  2.185405  0
O  O279  1  0.40685333  0.50651468  0.82904141  1  -1.207134  0  -0.318533  -0.574947  0  2.185349  0
O  O280  1  0.00651424  0.90685293  0.32904123  1  -1.207163  0  -0.318592  -0.574951  0  2.185401  0
O  O281  1  0.49348546  0.59314565  0.32904077  1  -1.207147  0  -0.318552  -0.57498  0  2.185383  0
O  O282  1  0.59314699  0.00651370  0.32904070  1  -1.207166  0  -0.318605  -0.574976  0  2.185369  0
O  O283  1  0.90685344  0.49348491  0.32904151  1  -1.207254  0  -0.318557  -0.574963  0  2.185426  0
O  O284  1  0.49348549  0.90685285  0.17095878  1  -1.207136  0  -0.318543  -0.57496  0  2.185344  0
O  O285  1  0.00651430  0.59314639  0.17095839  1  -1.207156  0  -0.318548  -0.574956  0  2.185407  0
O  O286  1  0.90685350  0.00651362  0.17095866  1  -1.20714  0  -0.318598  -0.57499  0  2.185388  0
O  O287  1  0.59314623  0.49348485  0.17095873  1  -1.207273  0  -0.318545  -0.574964  0  2.1854  0
