# generated using pymatgen
data_LiH2C2O3
_symmetry_space_group_name_H-M   'P 1'
_cell_length_a   4.98393830
_cell_length_b   9.26880315
_cell_length_c   12.72709711
_cell_angle_alpha   90.00962918
_cell_angle_beta   89.99852959
_cell_angle_gamma   89.99947233
_symmetry_Int_Tables_number   1
_chemical_formula_structural   LiH2C2O3
_chemical_formula_sum   'Li8 H16 C16 O24'
_cell_volume   587.93006191
_cell_formula_units_Z   8
loop_
 _symmetry_equiv_pos_site_id
 _symmetry_equiv_pos_as_xyz
  1  'x, y, z'
loop_
 _atom_site_type_symbol
 _atom_site_label
 _atom_site_symmetry_multiplicity
 _atom_site_fract_x
 _atom_site_fract_y
 _atom_site_fract_z
 _atom_site_occupancy
 _atom_site_hle17_bader_spin_density
 _atom_site_hle17_ddec_charge
 _atom_site_hle17_ddec_spin_density
 _atom_site_hle17_ddec_sum_bond_order
 _atom_site_hle17_magmom
 _atom_site_hse06_10hf_bader_spin_density
 _atom_site_hse06_10hf_ddec_charge
 _atom_site_hse06_10hf_ddec_spin_density
 _atom_site_hse06_10hf_ddec_sum_bond_order
 _atom_site_hse06_10hf_magmom
 _atom_site_hse06_bader_spin_density
 _atom_site_hse06_ddec_charge
 _atom_site_hse06_ddec_spin_density
 _atom_site_hse06_ddec_sum_bond_order
 _atom_site_hse06_magmom
 _atom_site_pbe_bader_spin_density
 _atom_site_pbe_cm5_charge
 _atom_site_pbe_ddec_charge
 _atom_site_pbe_ddec_spin_density
 _atom_site_pbe_ddec_sum_bond_order
 _atom_site_pbe_magmom
Li  Li0  1  0.32570215  0.75148629  0.43103817  1  0  0.848471  0  0.415178  0  0  0.809292  0  0.520631  0  0  0.8188  0  0.503703  0  0  0.531827  0.802409  0  0.532843  0
Li  Li1  1  0.82569969  0.74852930  0.56897001  1  0  0.848483  0  0.415163  0  0  0.809317  0  0.52059  0  0  0.818823  0  0.503669  0  0  0.531882  0.802437  0  0.532802  0
Li  Li2  1  0.67431865  0.24851107  0.56896059  1  0  0.84848  0  0.415119  0  0  0.809263  0  0.520627  0  0  0.818771  0  0.503703  0  0  0.531848  0.802377  0  0.53284  0
Li  Li3  1  0.17430706  0.25147563  0.43102723  1  0  0.848462  0  0.415201  0  0  0.809299  0  0.52063  0  0  0.818804  0  0.503709  0  0  0.531883  0.802419  0  0.532844  0
Li  Li4  1  0.32582252  0.24883880  0.06882610  1  0  0.848541  0  0.415068  0  0  0.809073  0  0.521026  0  0  0.818601  0  0.504087  0  0  0.531706  0.80218  0  0.533243  0
Li  Li5  1  0.82581460  0.25116766  0.93118042  1  0  0.848558  0  0.415028  0  0  0.809097  0  0.520965  0  0  0.818627  0  0.504022  0  0  0.531695  0.802203  0  0.533181  0
Li  Li6  1  0.67417220  0.75116283  0.93117662  1  0  0.848528  0  0.415095  0  0  0.809082  0  0.521012  0  0  0.818609  0  0.504074  0  0  0.531721  0.802191  0  0.533228  0
Li  Li7  1  0.17416005  0.74883291  0.06882073  1  0  0.84854  0  0.41506  0  0  0.809076  0  0.520995  0  0  0.818606  0  0.504054  0  0  0.531696  0.802184  0  0.533212  0
H  H8  1  0.32029225  0.49370803  0.34430029  1  0  0.392083  0  0.900264  0  0  0.365868  0  0.975268  0  0  0.376779  0  0.962373  0  0  0.315052  0.358137  0  0.98435  0
H  H9  1  0.82030540  0.00628600  0.65569920  1  0  0.39221  0  0.899724  0  0  0.365975  0  0.974805  0  0  0.376896  0  0.961903  0  0  0.315063  0.358237  0  0.983907  0
H  H10  1  0.67972654  0.50629151  0.65569613  1  0  0.392019  0  0.900375  0  0  0.365804  0  0.975365  0  0  0.376717  0  0.962468  0  0  0.314987  0.358074  0  0.984443  0
H  H11  1  0.17968732  0.99371563  0.34430352  1  0  0.392233  0  0.899786  0  0  0.365982  0  0.974906  0  0  0.376902  0  0.962002  0  0  0.315069  0.358238  0  0.984019  0
H  H12  1  0.32039359  0.50668862  0.15557162  1  0  0.392635  0  0.898704  0  0  0.366168  0  0.974363  0  0  0.377112  0  0.961432  0  0  0.315017  0.3584  0  0.983524  0
H  H13  1  0.82037209  0.99330490  0.84442549  1  0  0.392684  0  0.898775  0  0  0.366203  0  0.974453  0  0  0.377144  0  0.961522  0  0  0.315008  0.358436  0  0.983613  0
H  H14  1  0.67961918  0.49331201  0.84442480  1  0  0.392554  0  0.898846  0  0  0.366082  0  0.974516  0  0  0.377027  0  0.961583  0  0  0.314966  0.35831  0  0.983684  0
H  H15  1  0.17960458  0.00669344  0.15558114  1  0  0.392683  0  0.898833  0  0  0.366245  0  0.974429  0  0  0.377186  0  0.961495  0  0  0.315067  0.358481  0  0.983578  0
H  H16  1  0.78507376  0.61798160  0.18626921  1  0  0.077453  0  0.922102  0  0  0.085628  0  0.981939  0  0  0.087361  0  0.981229  0  0  0.134124  0.084226  0  0.982825  0
H  H17  1  0.28509312  0.88203145  0.81373260  1  0  0.077463  0  0.921991  0  0  0.085561  0  0.981777  0  0  0.087292  0  0.981066  0  0  0.134109  0.084137  0  0.982697  0
H  H18  1  0.21491895  0.38202110  0.81373430  1  0  0.077363  0  0.922081  0  0  0.08555  0  0.981947  0  0  0.087282  0  0.981236  0  0  0.134131  0.08412  0  0.982867  0
H  H19  1  0.71489959  0.11796816  0.18625832  1  0  0.077556  0  0.921881  0  0  0.085656  0  0.981715  0  0  0.087408  0  0.980979  0  0  0.134121  0.084209  0  0.982659  0
H  H20  1  0.78513411  0.38244570  0.31362873  1  0  0.077335  0  0.921998  0  0  0.085652  0  0.982116  0  0  0.087442  0  0.981345  0  0  0.134077  0.084197  0  0.983052  0
H  H21  1  0.28514364  0.11756242  0.68638010  1  0  0.07741  0  0.921997  0  0  0.085599  0  0.982133  0  0  0.087411  0  0.981332  0  0  0.134039  0.084146  0  0.983066  0
H  H22  1  0.21488268  0.61754833  0.68637708  1  0  0.077312  0  0.922001  0  0  0.08564  0  0.982103  0  0  0.0874  0  0.981369  0  0  0.134061  0.084185  0  0.983039  0
H  H23  1  0.71487715  0.88244357  0.31361950  1  0  0.077388  0  0.922042  0  0  0.085541  0  0.98219  0  0  0.087353  0  0.98139  0  0  0.134016  0.084088  0  0.983123  0
C  C24  1  0.82075817  0.59041250  0.38086659  1  0  0.69698  0  3.83605  0  0  0.647889  0  4.142383  0  0  0.680509  0  4.132025  0  0  0.245185  0.625618  0  4.149108  0
C  C25  1  0.32075391  0.90959071  0.61913596  1  0  0.697216  0  3.835831  0  0  0.647978  0  4.142279  0  0  0.680607  0  4.131907  0  0  0.24523  0.625712  0  4.148999  0
C  C26  1  0.17925862  0.40958482  0.61913531  1  0  0.696719  0  3.836589  0  0  0.647776  0  4.142646  0  0  0.680407  0  4.132265  0  0  0.245188  0.62551  0  4.149364  0
C  C27  1  0.67923680  0.09040987  0.38086439  1  0  0.69709  0  3.835806  0  0  0.647938  0  4.142084  0  0  0.680564  0  4.13172  0  0  0.245218  0.625672  0  4.148804  0
C  C28  1  0.92908154  0.52852909  0.19152040  1  0  0.063844  0  3.612343  0  0  0.042455  0  3.857824  0  0  0.043602  0  3.864874  0  0  0.015675  0.041503  0  3.853437  0
C  C29  1  0.42910457  0.97149132  0.80847091  1  0  0.063981  0  3.613232  0  0  0.042966  0  3.857868  0  0  0.044115  0  3.864925  0  0  0.015765  0.042008  0  3.853521  0
C  C30  1  0.07092521  0.47147153  0.80847602  1  0  0.064452  0  3.612123  0  0  0.042882  0  3.857755  0  0  0.044038  0  3.864793  0  0  0.015713  0.041939  0  3.853374  0
C  C31  1  0.57087409  0.02850611  0.19152157  1  0  0.063473  0  3.612879  0  0  0.042312  0  3.857896  0  0  0.043459  0  3.86495  0  0  0.015598  0.041376  0  3.853532  0
C  C32  1  0.82083304  0.40999937  0.11904855  1  0  0.697017  0  3.836058  0  0  0.648133  0  4.141247  0  0  0.680778  0  4.130862  0  0  0.245536  0.625853  0  4.147976  0
C  C33  1  0.32081799  0.09000657  0.88095242  1  0  0.69662  0  3.836636  0  0  0.647738  0  4.141669  0  0  0.680382  0  4.131289  0  0  0.245324  0.625463  0  4.148384  0
C  C34  1  0.17917772  0.58999588  0.88094627  1  0  0.696376  0  3.836355  0  0  0.647633  0  4.141393  0  0  0.680277  0  4.131008  0  0  0.24533  0.625358  0  4.148109  0
C  C35  1  0.67915666  0.90999081  0.11904398  1  0  0.697395  0  3.83591  0  0  0.64834  0  4.141271  0  0  0.680953  0  4.130923  0  0  0.245646  0.626068  0  4.147989  0
C  C36  1  0.92914355  0.47195309  0.30836342  1  0  0.065564  0  3.610125  0  0  0.042586  0  3.857829  0  0  0.043695  0  3.864867  0  0  0.015995  0.0417  0  3.853407  0
C  C37  1  0.42911533  0.02806657  0.69164673  1  0  0.065236  0  3.610708  0  0  0.042543  0  3.857858  0  0  0.043643  0  3.864893  0  0  0.015912  0.041653  0  3.853429  0
C  C38  1  0.07086321  0.52804530  0.69163928  1  0  0.065522  0  3.610489  0  0  0.042589  0  3.858025  0  0  0.043713  0  3.865059  0  0  0.016035  0.041698  0  3.853609  0
C  C39  1  0.57088742  0.97193289  0.30835676  1  0  0.065389  0  3.610662  0  0  0.042834  0  3.857641  0  0  0.043929  0  3.86468  0  0  0.016054  0.041949  0  3.853197  0
O  O40  1  0.18242980  0.41569708  0.33652993  1  0  -0.610755  0  2.131569  0  0  -0.570475  0  2.363999  0  0  -0.584117  0  2.350615  0  0  -0.44452  -0.560668  0  2.373246  0
O  O41  1  0.68242205  0.08432363  0.66349018  1  0  -0.61083  0  2.131072  0  0  -0.570676  0  2.363462  0  0  -0.584318  0  2.350065  0  0  -0.444583  -0.560864  0  2.372708  0
O  O42  1  0.81759100  0.58430021  0.66347433  1  0  -0.610666  0  2.131853  0  0  -0.57042  0  2.364291  0  0  -0.584073  0  2.350922  0  0  -0.444463  -0.560612  0  2.373536  0
O  O43  1  0.31757669  0.91568118  0.33651728  1  0  -0.610894  0  2.131154  0  0  -0.570728  0  2.363417  0  0  -0.584399  0  2.350082  0  0  -0.444593  -0.560913  0  2.372667  0
O  O44  1  0.56817212  0.60925690  0.37833429  1  0  -0.708317  0  2.001329  0  0  -0.663181  0  2.245644  0  0  -0.685781  0  2.232136  0  0  -0.367767  -0.647492  0  2.254946  0
O  O45  1  0.06816512  0.89073389  0.62166503  1  0  -0.708401  0  2.001165  0  0  -0.663248  0  2.245573  0  0  -0.685856  0  2.232063  0  0  -0.367765  -0.647559  0  2.254875  0
O  O46  1  0.43184666  0.39075023  0.62165982  1  0  -0.708153  0  2.001469  0  0  -0.663046  0  2.245676  0  0  -0.685648  0  2.232166  0  0  -0.367676  -0.647362  0  2.254967  0
O  O47  1  0.93183762  0.10927215  0.37832986  1  0  -0.708431  0  2.001111  0  0  -0.663285  0  2.245424  0  0  -0.685889  0  2.231917  0  0  -0.367808  -0.647594  0  2.254725  0
O  O48  1  0.18243604  0.58474084  0.16340435  1  0  -0.610746  0  2.130662  0  0  -0.570732  0  2.362538  0  0  -0.584372  0  2.349071  0  0  -0.444674  -0.560929  0  2.371894  0
O  O49  1  0.68242332  0.91525678  0.83660618  1  0  -0.61083  0  2.130964  0  0  -0.570953  0  2.362688  0  0  -0.584593  0  2.349221  0  0  -0.444694  -0.561143  0  2.372043  0
O  O50  1  0.81758275  0.41525330  0.83659281  1  0  -0.61086  0  2.130594  0  0  -0.570822  0  2.362522  0  0  -0.584462  0  2.349056  0  0  -0.444669  -0.561014  0  2.371869  0
O  O51  1  0.31754732  0.08473948  0.16339415  1  0  -0.610653  0  2.1311  0  0  -0.57071  0  2.362847  0  0  -0.584354  0  2.349392  0  0  -0.444597  -0.5609  0  2.372189  0
O  O52  1  0.97915646  0.33512819  0.06314926  1  0  -0.760586  0  1.964185  0  0  -0.717277  0  2.211742  0  0  -0.736991  0  2.195213  0  0  -0.429853  -0.703526  0  2.223076  0
O  O53  1  0.47914979  0.16487814  0.93684382  1  0  -0.760429  0  1.964349  0  0  -0.717163  0  2.21189  0  0  -0.736877  0  2.195362  0  0  -0.42982  -0.703412  0  2.223218  0
O  O54  1  0.02083424  0.66486706  0.93684556  1  0  -0.76036  0  1.964105  0  0  -0.717071  0  2.21155  0  0  -0.736783  0  2.195022  0  0  -0.429782  -0.703321  0  2.222887  0
O  O55  1  0.52082284  0.83512366  0.06314476  1  0  -0.760847  0  1.963879  0  0  -0.717514  0  2.211518  0  0  -0.737218  0  2.194998  0  0  -0.430027  -0.703762  0  2.222857  0
O  O56  1  0.56813386  0.39118493  0.12155198  1  0  -0.70866  0  2.000009  0  0  -0.663608  0  2.244434  0  0  -0.686244  0  2.230909  0  0  -0.367663  -0.647878  0  2.253745  0
O  O57  1  0.06810759  0.10880091  0.87845517  1  0  -0.708504  0  2.000042  0  0  -0.663457  0  2.244366  0  0  -0.686101  0  2.23086  0  0  -0.36745  -0.647724  0  2.253663  0
O  O58  1  0.43188493  0.60880916  0.87844990  1  0  -0.708455  0  2.000082  0  0  -0.663419  0  2.244379  0  0  -0.686058  0  2.230864  0  0  -0.367554  -0.647687  0  2.253683  0
O  O59  1  0.93183296  0.89118777  0.12154748  1  0  -0.708634  0  2.000141  0  0  -0.663574  0  2.244642  0  0  -0.686198  0  2.231135  0  0  -0.367641  -0.64785  0  2.253947  0
O  O60  1  0.97918234  0.66514874  0.43679638  1  0  -0.760825  0  1.96415  0  0  -0.717465  0  2.211761  0  0  -0.73715  0  2.195249  0  0  -0.429732  -0.703738  0  2.223098  0
O  O61  1  0.47920166  0.83486987  0.56320700  1  0  -0.760891  0  1.964369  0  0  -0.717495  0  2.212046  0  0  -0.737199  0  2.195547  0  0  -0.429723  -0.703734  0  2.223306  0
O  O62  1  0.02083445  0.33485290  0.56320555  1  0  -0.760812  0  1.964506  0  0  -0.717496  0  2.21203  0  0  -0.737206  0  2.195545  0  0  -0.429803  -0.703739  0  2.223293  0
O  O63  1  0.52081111  0.16513823  0.43679576  1  0  -0.76078  0  1.964363  0  0  -0.717431  0  2.211998  0  0  -0.737135  0  2.195513  0  0  -0.429708  -0.703678  0  2.223264  0
