# generated using pymatgen
data_CuH20C22(N2O3)2
_symmetry_space_group_name_H-M   'P 1'
_cell_length_a   5.01688270
_cell_length_b   10.34958183
_cell_length_c   11.35360208
_cell_angle_alpha   61.78977473
_cell_angle_beta   78.58601296
_cell_angle_gamma   85.69209965
_symmetry_Int_Tables_number   1
_chemical_formula_structural   CuH20C22(N2O3)2
_chemical_formula_sum   'Cu1 H20 C22 N4 O6'
_cell_volume   509.09669395
_cell_formula_units_Z   1
loop_
 _symmetry_equiv_pos_site_id
 _symmetry_equiv_pos_as_xyz
  1  'x, y, z'
loop_
 _atom_site_type_symbol
 _atom_site_label
 _atom_site_symmetry_multiplicity
 _atom_site_fract_x
 _atom_site_fract_y
 _atom_site_fract_z
 _atom_site_occupancy
 _atom_site_hle17_ddec_charge
 _atom_site_hle17_ddec_spin_density
 _atom_site_hle17_ddec_sum_bond_order
 _atom_site_hle17_magmom
 _atom_site_hse06_10hf_ddec_charge
 _atom_site_hse06_10hf_ddec_spin_density
 _atom_site_hse06_10hf_ddec_sum_bond_order
 _atom_site_hse06_10hf_magmom
 _atom_site_hse06_ddec_charge
 _atom_site_hse06_ddec_spin_density
 _atom_site_hse06_ddec_sum_bond_order
 _atom_site_hse06_magmom
 _atom_site_pbe_cm5_charge
 _atom_site_pbe_ddec_charge
 _atom_site_pbe_ddec_spin_density
 _atom_site_pbe_ddec_sum_bond_order
 _atom_site_pbe_magmom
Cu  Cu0  1  0.00000337  0.99999769  0.99999946  1  0.818656  0.671214  1.764428  0.489  0.782029  0.753852  2.150708  0.596  0.869434  0.818452  2.085331  0.676  0.735715  0.72827  0.711696  2.198666  0.547
H  H1  1  0.53113264  0.01498952  0.39660504  1  0.123581  3.2e-05  0.972787  0.0  0.137944  2e-05  1.04307  0.0  0.139654  4e-06  1.043133  0.0  0.094214  0.136601  3.2e-05  1.043356  0.0
H  H2  1  0.46883378  0.98503764  0.60338872  1  0.123602  3.2e-05  0.972688  0.0  0.137997  2e-05  1.042923  0.0  0.13971  4e-06  1.042989  0.0  0.094232  0.13665  3.2e-05  1.043211  0.0
H  H3  1  0.24278970  0.10193459  0.32531559  1  0.124953  -4.6e-05  0.949567  0.0  0.140159  -1.3e-05  1.016631  0.0  0.142514  -8e-06  1.015581  0.0  0.094246  0.138549  -1.1e-05  1.017371  0.0
H  H4  1  0.75718656  0.89808825  0.67467551  1  0.124874  -4.6e-05  0.949491  0.0  0.140065  -1.3e-05  1.016577  0.0  0.142427  -8e-06  1.015518  0.0  0.094183  0.138454  -1.1e-05  1.01732  0.0
H  H5  1  0.45528675  0.00078478  0.25550983  1  0.131113  0.000143  0.964021  0.0  0.146114  0.000105  1.028918  0.0  0.148027  3.1e-05  1.028773  0.0  0.093253  0.144778  0.000179  1.028961  0.0
H  H6  1  0.54467487  0.99923142  0.74448967  1  0.13106  0.000141  0.963979  0.0  0.146052  0.000105  1.028913  0.0  0.14796  3e-05  1.02878  0.0  0.093241  0.144716  0.000179  1.028953  0.0
H  H7  1  0.79099158  0.45355258  0.64631531  1  0.131729  -2.8e-05  0.948517  0.0  0.150148  -1.1e-05  1.01055  0.0  0.151716  -6e-06  1.011214  0.0  0.0985  0.149038  -8e-06  1.010249  0.0
H  H8  1  0.20899765  0.54644998  0.35369342  1  0.131732  -3.8e-05  0.948592  0.0  0.150128  -1.1e-05  1.010633  0.0  0.151694  -6e-06  1.011299  0.0  0.09849  0.149019  -8e-06  1.010337  0.0
H  H9  1  0.68916119  0.55613784  0.48361168  1  0.143344  -0.0  0.961141  0.0  0.163915  -5e-06  1.017197  0.0  0.166142  -6e-06  1.016399  0.0  0.103304  0.162215  -6e-06  1.017933  0.0
H  H10  1  0.31083188  0.44386293  0.51638686  1  0.143427  -3e-06  0.961172  0.0  0.16398  -6e-06  1.017214  0.0  0.166207  -6e-06  1.016415  0.0  0.10333  0.162289  -6e-06  1.017936  0.0
H  H11  1  0.51676465  0.57795963  0.62537910  1  0.135497  -0.000109  0.947655  0.0  0.14991  -4.5e-05  1.01587  0.0  0.152991  -4.5e-05  1.014005  0.0  0.10025  0.148045  -4.2e-05  1.01694  0.0
H  H12  1  0.48322920  0.42205189  0.37462032  1  0.135537  -0.000107  0.947661  0.0  0.149911  -4.5e-05  1.015898  0.0  0.152992  -4.5e-05  1.014031  0.0  0.100244  0.148049  -4.2e-05  1.01697  0.0
H  H13  1  0.01492662  0.16784004  0.14740036  1  0.093295  0.000511  0.963205  0.002  0.100348  0.000507  1.026715  0.001  0.102945  0.000339  1.024809  0.001  0.122045  0.09827  0.000673  1.028237  0.002
H  H14  1  0.98511492  0.83215609  0.85259222  1  0.093092  0.000526  0.963341  0.002  0.100176  0.000508  1.026844  0.001  0.102772  0.00034  1.024939  0.001  0.121968  0.098113  0.000673  1.028346  0.002
H  H15  1  0.82334002  0.39373858  0.14748966  1  0.113812  0.000403  0.969576  0.0  0.117655  0.000396  1.039399  0.0  0.121771  0.000292  1.036737  0.0  0.110767  0.114587  0.000551  1.041812  0.001
H  H16  1  0.17669923  0.60625446  0.85249997  1  0.113877  0.000403  0.969355  0.0  0.117595  0.000396  1.039328  0.0  0.121711  0.000292  1.036667  0.0  0.110701  0.114532  0.000551  1.041734  0.001
H  H17  1  0.32968238  0.41562280  0.86451393  1  0.11517  0.000492  0.951124  0.0  0.12618  0.000473  1.008128  0.0  0.129265  0.000347  1.007391  0.0  0.114191  0.123892  0.000607  1.008833  0.001
H  H18  1  0.67032608  0.58436458  0.13549131  1  0.115118  0.00049  0.951104  0.0  0.126102  0.000473  1.008166  0.0  0.129187  0.000347  1.007429  0.0  0.114155  0.123816  0.000608  1.008869  0.001
H  H19  1  0.54850218  0.19395682  0.87330301  1  0.097667  0.00033  0.962358  0.001  0.098571  0.000247  1.038363  0.001  0.101873  7e-05  1.03413  0.001  0.119759  0.095702  0.000409  1.04202  0.001
H  H20  1  0.45151510  0.80604178  0.12668897  1  0.09771  0.000325  0.962402  0.001  0.098611  0.000246  1.0384  0.001  0.101917  6.9e-05  1.034169  0.001  0.119794  0.095746  0.000408  1.042059  0.001
C  C21  1  0.95046393  0.83205010  0.27820081  1  0.669194  -0.0068  3.927169  -0.007  0.62604  -0.001904  4.225975  -0.003  0.66451  -0.002359  4.21849  -0.003  0.199596  0.600115  -0.001471  4.229822  -0.003
C  C22  1  0.04953482  0.16794393  0.72180259  1  0.669537  -0.006792  3.926969  -0.007  0.626341  -0.001908  4.225782  -0.003  0.664811  -0.00236  4.218288  -0.003  0.199718  0.600408  -0.001473  4.229624  -0.003
C  C23  1  0.01267349  0.79614615  0.41238441  1  -0.314861  0.007934  3.714701  0.009  -0.299112  0.004938  3.952118  0.006  -0.317627  0.003651  3.970572  0.004  -0.042665  -0.287126  0.005791  3.939881  0.006
C  C24  1  0.98730824  0.20386656  0.58761560  1  -0.314978  0.00793  3.714856  0.009  -0.299244  0.004939  3.95231  0.006  -0.31775  0.003651  3.97077  0.004  -0.042637  -0.287255  0.005792  3.940067  0.006
C  C25  1  0.19797843  0.86967968  0.44390746  1  0.297198  -0.001211  3.731997  -0.001  0.29192  -0.000331  3.995497  0.0  0.305918  -0.000305  4.009576  0.0  0.118535  0.282745  -0.000296  3.985998  0.0
C  C26  1  0.80199972  0.13034092  0.55608527  1  0.297108  -0.001216  3.732055  -0.001  0.291857  -0.000329  3.995554  0.0  0.305876  -0.000308  4.009599  0.0  0.118492  0.282682  -0.000296  3.986046  0.0
C  C27  1  0.90888204  0.67932912  0.53552395  1  0.355062  -0.001653  3.66468  0.0  0.33191  -0.000113  3.940367  0.001  0.351352  -0.000365  3.950426  0.0  0.10966  0.3192  7e-05  3.933144  0.001
C  C28  1  0.09112122  0.32067142  0.46447730  1  0.355101  -0.001654  3.664821  0.0  0.331943  -0.000113  3.940515  0.001  0.351337  -0.000367  3.950637  0.0  0.10963  0.319233  7e-05  3.933289  0.001
C  C29  1  0.36849235  0.00400453  0.35031743  1  -0.365105  0.000509  3.682714  0.0  -0.443308  0.000375  3.922584  0.0  -0.447447  0.00021  3.928082  0.0  -0.243173  -0.440249  0.000557  3.918603  0.0
C  C30  1  0.63147553  0.99601377  0.64968155  1  -0.364953  0.000514  3.682356  0.0  -0.443132  0.000375  3.922138  0.0  -0.447289  0.000211  3.927632  0.0  -0.243096  -0.440063  0.000557  3.918152  0.0
C  C31  1  0.71579250  0.55872074  0.57573021  1  -0.389108  -4.4e-05  3.703847  0.0  -0.468006  -8.2e-05  3.94156  0.0  -0.473346  -5.9e-05  3.946721  0.0  -0.24017  -0.464208  -7.5e-05  3.937833  0.0
C  C32  1  0.28420513  0.44128633  0.42427155  1  -0.389258  -2.3e-05  3.703995  0.0  -0.468063  -8.1e-05  3.941733  0.0  -0.473386  -5.9e-05  3.946909  0.0  -0.240193  -0.464274  -7.5e-05  3.938004  0.0
C  C33  1  0.86671148  0.22928857  0.08407475  1  0.130485  -0.009373  3.690085  -0.006  0.103675  -0.002228  3.942038  -0.001  0.11244  -0.003873  3.960562  -0.002  0.050133  0.098255  -0.001049  3.930189  0.0
C  C34  1  0.13330697  0.77069667  0.91592694  1  0.130706  -0.009385  3.690146  -0.006  0.103802  -0.002225  3.942122  -0.001  0.112568  -0.003875  3.960644  -0.002  0.050102  0.098376  -0.001048  3.930278  0.0
C  C35  1  0.75548252  0.35653772  0.08318300  1  -0.144659  0.007894  3.679664  0.009  -0.163084  0.003584  3.927582  0.004  -0.170569  0.003221  3.946761  0.004  -0.075185  -0.158876  0.003695  3.915611  0.004
C  C36  1  0.24454431  0.64345061  0.91682022  1  -0.144574  0.007885  3.67947  0.009  -0.162837  0.003582  3.927381  0.004  -0.170316  0.003221  3.94654  0.004  -0.074853  -0.15863  0.003695  3.915417  0.004
C  C37  1  0.55981314  0.43132467  0.00260105  1  0.096984  -0.009092  3.73316  -0.006  0.109014  -0.003876  3.959466  -0.002  0.113969  -0.004364  3.979303  -0.002  0.015937  0.105744  -0.003309  3.945929  -0.002
C  C38  1  0.44018250  0.56865273  0.99741465  1  0.096878  -0.009061  3.733262  -0.006  0.108784  -0.003876  3.959611  -0.002  0.11375  -0.004363  3.979434  -0.002  0.015731  0.10552  -0.003308  3.94608  -0.002
C  C39  1  0.48258455  0.36806281  0.92842357  1  -0.145897  0.007493  3.683824  0.008  -0.162824  0.003378  3.927192  0.004  -0.170619  0.003068  3.948321  0.004  -0.073439  -0.157281  0.003611  3.912595  0.004
C  C40  1  0.51739894  0.63191597  0.07158825  1  -0.145839  0.007465  3.683828  0.008  -0.16273  0.00338  3.927197  0.004  -0.17053  0.003066  3.948327  0.004  -0.073392  -0.157188  0.00361  3.912603  0.004
C  C41  1  0.60453652  0.24118865  0.93305274  1  0.131513  -0.009288  3.673016  -0.006  0.101439  -0.002373  3.930771  -0.001  0.109892  -0.003954  3.949169  -0.002  0.051068  0.095953  -0.001079  3.919096  0.0
C  C42  1  0.39547001  0.75879970  0.06695581  1  0.131539  -0.009236  3.672822  -0.006  0.101472  -0.002376  3.930524  -0.001  0.109919  -0.003954  3.948926  -0.002  0.051122  0.095987  -0.001078  3.918856  0.0
N  N43  1  0.20513076  0.80339551  0.57494864  1  -0.248064  0.000488  2.658207  0.001  -0.244328  6.2e-05  2.940064  0.0  -0.251147  7.8e-05  2.947983  0.0  -0.23207  -0.239948  5.4e-05  2.934976  0.0
N  N44  1  0.79486911  0.19661493  0.42504890  1  -0.247956  0.000484  2.658246  0.001  -0.244259  6e-05  2.94017  0.0  -0.251082  8e-05  2.948074  0.0  -0.232072  -0.239882  5.4e-05  2.93508  0.0
N  N45  1  0.79627194  0.17293694  0.00886192  1  -0.295023  0.075392  3.316605  0.096  -0.243599  0.055507  3.606498  0.075  -0.272446  0.046222  3.627048  0.068  -0.340305  -0.226867  0.060711  3.595132  0.079
N  N46  1  0.20372867  0.82705499  0.99113953  1  -0.295045  0.075375  3.316279  0.096  -0.243605  0.055511  3.606146  0.075  -0.272451  0.046226  3.626699  0.068  -0.340289  -0.226872  0.060713  3.594788  0.079
O  O47  1  0.09060891  0.94427629  0.17653188  1  -0.610785  0.100805  2.08773  0.136  -0.577486  0.06506  2.375794  0.096  -0.621593  0.050357  2.367988  0.08  -0.33139  -0.547604  0.07432  2.380844  0.105
O  O48  1  0.90939536  0.05571031  0.82346699  1  -0.610656  0.100834  2.087618  0.136  -0.57748  0.065061  2.37562  0.096  -0.62158  0.050358  2.367803  0.08  -0.331367  -0.547623  0.074326  2.380724  0.105
O  O49  1  0.78003403  0.75926175  0.26563460  1  -0.609755  -0.000892  1.879981  0.001  -0.573218  -0.000918  2.103185  0.001  -0.597682  -0.00193  2.094427  0.0  -0.324346  -0.555799  -0.000139  2.108578  0.002
O  O50  1  0.21998840  0.24072244  0.73436540  1  -0.609998  -0.000904  1.879971  0.001  -0.573395  -0.000919  2.103179  0.001  -0.59786  -0.001931  2.094415  0.0  -0.324426  -0.555964  -0.000139  2.108549  0.002
O  O51  1  0.01944412  0.68061773  0.63445895  1  -0.176804  0.000476  2.282677  0.001  -0.111029  0.00032  2.523465  0.001  -0.127263  0.00016  2.526885  0.0  -0.060622  -0.099911  0.000373  2.520727  0.001
O  O52  1  0.98057537  0.31938282  0.36553733  1  -0.176831  0.000483  2.282511  0.001  -0.111049  0.000321  2.523339  0.001  -0.12727  0.00016  2.526773  0.0  -0.060616  -0.099932  0.000373  2.520602  0.001
