# generated using pymatgen
data_CdH24C28S2N14(OF2)2
_symmetry_space_group_name_H-M   'P 1'
_cell_length_a   8.95792636
_cell_length_b   12.59803698
_cell_length_c   16.05730000
_cell_angle_alpha   90.00000000
_cell_angle_beta   96.48343630
_cell_angle_gamma   90.00000000
_symmetry_Int_Tables_number   1
_chemical_formula_structural   CdH24C28S2N14(OF2)2
_chemical_formula_sum   'Cd2 H48 C56 S4 N28 O4 F8'
_cell_volume   1800.51380608
_cell_formula_units_Z   2
loop_
 _symmetry_equiv_pos_site_id
 _symmetry_equiv_pos_as_xyz
  1  'x, y, z'
loop_
 _atom_site_type_symbol
 _atom_site_label
 _atom_site_symmetry_multiplicity
 _atom_site_fract_x
 _atom_site_fract_y
 _atom_site_fract_z
 _atom_site_occupancy
 _atom_site_hle17_bader_spin_density
 _atom_site_hle17_ddec_charge
 _atom_site_hle17_ddec_spin_density
 _atom_site_hle17_ddec_sum_bond_order
 _atom_site_hle17_magmom
 _atom_site_hse06_10hf_bader_spin_density
 _atom_site_hse06_10hf_ddec_charge
 _atom_site_hse06_10hf_ddec_spin_density
 _atom_site_hse06_10hf_ddec_sum_bond_order
 _atom_site_hse06_10hf_magmom
 _atom_site_hse06_bader_spin_density
 _atom_site_hse06_ddec_charge
 _atom_site_hse06_ddec_spin_density
 _atom_site_hse06_ddec_sum_bond_order
 _atom_site_hse06_magmom
 _atom_site_pbe_bader_charge
 _atom_site_pbe_bader_spin_density
 _atom_site_pbe_cm5_charge
 _atom_site_pbe_ddec_charge
 _atom_site_pbe_ddec_spin_density
 _atom_site_pbe_ddec_sum_bond_order
 _atom_site_pbe_magmom
Cd  Cd0  1  0.00000000  0.50000012  0.50000000  1  0  1.048227  0  1.985843  0  0  0.848693  0  2.470607  0  0  0.895674  0  2.427636  0  1.274911  0  0.80453  0.815616  0  2.499829  0
Cd  Cd1  1  0.50000021  0.00000000  0.99999980  1  0  1.048207  0  1.985876  0  0  0.848668  0  2.470651  0  0  0.895651  0  2.427679  0  1.274892  0  0.804523  0.81559  0  2.499875  0
H  H2  1  0.28692780  0.69257060  0.52517394  1  0  0.119845  0  0.900243  0  0  0.132942  0  0.954985  0  0  0.135105  0  0.951294  0  0.19055  0  0.152689  0.130977  0  0.957466  0
H  H3  1  0.21307128  0.19257127  0.97482579  1  0  0.119813  0  0.90028  0  0  0.132907  0  0.955029  0  0  0.13507  0  0.951337  0  0.190538  0  0.152672  0.130942  0  0.957509  0
H  H4  1  0.71307261  0.30742964  0.47482628  1  0  0.119842  0  0.900262  0  0  0.132891  0  0.955055  0  0  0.135067  0  0.951349  0  0.190546  0  0.152655  0.130925  0  0.957535  0
H  H5  1  0.78692688  0.80742976  0.02517428  1  0  0.119832  0  0.900258  0  0  0.132872  0  0.955062  0  0  0.135055  0  0.951346  0  0.190545  0  0.15265  0.130908  0  0.957542  0
H  H6  1  0.29841350  0.41676890  0.37881544  1  0  0.09007  0  0.942615  0  0  0.101713  0  1.00267  0  0  0.102257  0  1.002941  0  0.131441  0  0.131852  0.101128  0  1.002666  0
H  H7  1  0.20158559  0.91676902  0.12118428  1  0  0.090138  0  0.942581  0  0  0.101771  0  1.002648  0  0  0.102314  0  1.00292  0  0.131439  0  0.131873  0.101185  0  1.002647  0
H  H8  1  0.70158580  0.58323055  0.62118470  1  0  0.090129  0  0.942568  0  0  0.101759  0  1.002638  0  0  0.102297  0  1.002925  0  0.131444  0  0.131856  0.101172  0  1.002637  0
H  H9  1  0.79841370  0.08323043  0.87881523  1  0  0.090137  0  0.942565  0  0  0.101767  0  1.002634  0  0  0.102307  0  1.002915  0  0.131445  0  0.13186  0.10118  0  1.002634  0
H  H10  1  0.66531985  0.68960426  0.45620910  1  0  0.118603  0  0.928458  0  0  0.129903  0  0.993418  0  0  0.130741  0  0.992511  0  0.123759  0  0.120094  0.129141  0  0.993552  0
H  H11  1  0.83467965  0.18960414  0.04379084  1  0  0.118596  0  0.92846  0  0  0.129903  0  0.993417  0  0  0.13074  0  0.992509  0  0.123759  0  0.120095  0.129141  0  0.99355  0
H  H12  1  0.33468057  0.31039518  0.54379049  1  0  0.118572  0  0.928499  0  0  0.129868  0  0.993459  0  0  0.130704  0  0.992551  0  0.123772  0  0.120087  0.129105  0  0.993592  0
H  H13  1  0.16531964  0.81039610  0.95620930  1  0  0.118601  0  0.928475  0  0  0.129902  0  0.993422  0  0  0.130738  0  0.992515  0  0.123772  0  0.120097  0.12914  0  0.993555  0
H  H14  1  0.52624777  0.78084626  0.48450088  1  0  0.10952  0  0.9206  0  0  0.120471  0  0.98548  0  0  0.122327  0  0.982723  0  0.10162  0  0.120616  0.118885  0  0.987097  0
H  H15  1  0.97375173  0.28084455  0.01549968  1  0  0.109542  0  0.920571  0  0  0.120499  0  0.985451  0  0  0.122354  0  0.982693  0  0.101641  0  0.120643  0.118911  0  0.987071  0
H  H16  1  0.47375377  0.21915398  0.51550003  1  0  0.109583  0  0.920564  0  0  0.12051  0  0.985452  0  0  0.122366  0  0.982693  0  0.101616  0  0.12065  0.118921  0  0.987072  0
H  H17  1  0.02624756  0.71915490  0.98450046  1  0  0.1096  0  0.920528  0  0  0.12053  0  0.985418  0  0  0.122384  0  0.982659  0  0.101622  0  0.120656  0.118941  0  0.987039  0
H  H18  1  0.62307231  0.91582840  0.40194449  1  0  0.114715  0  0.926968  0  0  0.12104  0  0.997218  0  0  0.12355  0  0.994548  0  0.134676  0  0.119417  0.119171  0  0.999232  0
H  H19  1  0.87692719  0.41582828  0.09805607  1  0  0.114733  0  0.926957  0  0  0.121066  0  0.997186  0  0  0.123575  0  0.994516  0  0.134697  0  0.119431  0.119196  0  0.999201  0
H  H20  1  0.37692698  0.08417105  0.59805565  1  0  0.114722  0  0.926983  0  0  0.121047  0  0.997229  0  0  0.123556  0  0.994559  0  0.134681  0  0.119419  0.119176  0  0.999245  0
H  H21  1  0.12307210  0.58417196  0.90194470  1  0  0.114731  0  0.926914  0  0  0.121069  0  0.997133  0  0  0.123578  0  0.994462  0  0.134673  0  0.119431  0.1192  0  0.999147  0
H  H22  1  0.75801210  0.83522774  0.35927920  1  0  0.111228  0  0.913704  0  0  0.122234  0  0.977571  0  0  0.122965  0  0.977525  0  0.112607  0  0.117027  0.121649  0  0.977707  0
H  H23  1  0.74198740  0.33522683  0.14072136  1  0  0.111249  0  0.913669  0  0  0.122254  0  0.977537  0  0  0.122985  0  0.97749  0  0.112601  0  0.117033  0.121669  0  0.977673  0
H  H24  1  0.24198832  0.16477250  0.64072101  1  0  0.11125  0  0.913692  0  0  0.122258  0  0.977554  0  0  0.122988  0  0.97751  0  0.112613  0  0.117033  0.121672  0  0.977693  0
H  H25  1  0.25801189  0.66477341  0.85927878  1  0  0.111233  0  0.913683  0  0  0.122232  0  0.977559  0  0  0.122962  0  0.977513  0  0.112605  0  0.117024  0.121648  0  0.977694  0
H  H26  1  0.57508810  0.14539884  0.18021882  1  0  0.093854  0  0.938416  0  0  0.100634  0  1.00378  0  0  0.102472  0  1.001699  0  0.136446  0  0.128501  0.099198  0  1.005441  0
H  H27  1  0.92491253  0.64539896  0.31978119  1  0  0.093841  0  0.938469  0  0  0.100625  0  1.003825  0  0  0.102462  0  1.001745  0  0.13644  0  0.128489  0.099188  0  1.005486  0
H  H28  1  0.42491119  0.85460140  0.81978070  1  0  0.093865  0  0.938429  0  0  0.100643  0  1.003796  0  0  0.102481  0  1.001716  0  0.136442  0  0.128504  0.099207  0  1.005456  0
H  H29  1  0.07508901  0.35460128  0.68021909  1  0  0.093874  0  0.938423  0  0  0.100655  0  1.003785  0  0  0.102492  0  1.001705  0  0.136441  0  0.128509  0.099219  0  1.005445  0
H  H30  1  0.59718202  0.81222892  0.17365407  1  0  0.117824  0  0.922996  0  0  0.127888  0  0.98456  0  0  0.130377  0  0.981285  0  0.170736  0  0.144221  0.12604  0  0.986853  0
H  H31  1  0.90281748  0.31222880  0.32634649  1  0  0.117797  0  0.923011  0  0  0.127862  0  0.984575  0  0  0.13035  0  0.981302  0  0.170732  0  0.144214  0.126014  0  0.98687  0
H  H32  1  0.40281727  0.18777132  0.82634545  1  0  0.117826  0  0.922967  0  0  0.127873  0  0.984555  0  0  0.130363  0  0.981278  0  0.170736  0  0.144208  0.126025  0  0.986851  0
H  H33  1  0.09718182  0.68777064  0.67365489  1  0  0.117879  0  0.922997  0  0  0.127926  0  0.984575  0  0  0.130416  0  0.981296  0  0.170734  0  0.144228  0.126079  0  0.986869  0
H  H34  1  0.07666755  0.94494087  0.36067263  1  0  0.165575  0  0.939932  0  0  0.172956  0  1.001541  0  0  0.177369  0  0.998624  0  0.162586  0  0.111233  0.169807  0  1.003762  0
H  H35  1  0.42333153  0.44493995  0.13932771  1  0  0.165604  0  0.939899  0  0  0.172978  0  1.001513  0  0  0.177393  0  0.998589  0  0.162616  0  0.111252  0.169828  0  1.003734  0
H  H36  1  0.92333286  0.05506017  0.63932758  1  0  0.16559  0  0.939938  0  0  0.172975  0  1.001533  0  0  0.177387  0  0.998617  0  0.162601  0  0.111253  0.169825  0  1.003754  0
H  H37  1  0.57666664  0.55506029  0.86067236  1  0  0.1656  0  0.939928  0  0  0.172984  0  1.001522  0  0  0.177397  0  0.998606  0  0.162628  0  0.111257  0.169835  0  1.003743  0
H  H38  1  0.09581225  0.71069088  0.16500305  1  0  0.129936  0  0.934352  0  0  0.135684  0  0.998891  0  0  0.140073  0  0.996031  0  0.104624  0  0.107779  0.132543  0  1.001064  0
H  H39  1  0.40418796  0.21069076  0.33499799  1  0  0.129936  0  0.934329  0  0  0.135694  0  0.998859  0  0  0.140082  0  0.995999  0  0.104618  0  0.107785  0.132553  0  1.001032  0
H  H40  1  0.90418816  0.28930777  0.83499717  1  0  0.129954  0  0.934394  0  0  0.1357  0  0.99894  0  0  0.140089  0  0.99608  0  0.104631  0  0.107793  0.132558  0  1.001112  0
H  H41  1  0.59581134  0.78930868  0.66500277  1  0  0.129962  0  0.934358  0  0  0.135715  0  0.998897  0  0  0.140104  0  0.996037  0  0.10461  0  0.10781  0.132574  0  1.00107  0
H  H42  1  0.36420655  0.67869621  0.21412270  1  0  0.098189  0  0.987597  0  0  0.100097  0  1.060985  0  0  0.103463  0  1.058861  0  0.106628  0  0.095581  0.097644  0  1.06261  0
H  H43  1  0.13579366  0.17869530  0.28587772  1  0  0.098148  0  0.987599  0  0  0.10012  0  1.060917  0  0  0.103488  0  1.058789  0  0.106611  0  0.095592  0.097663  0  1.062539  0
H  H44  1  0.63579387  0.32130323  0.78587814  1  0  0.098178  0  0.987619  0  0  0.100085  0  1.061007  0  0  0.103451  0  1.058881  0  0.106625  0  0.095567  0.097631  0  1.062632  0
H  H45  1  0.86420675  0.82130415  0.71412249  1  0  0.0982  0  0.987577  0  0  0.100108  0  1.060962  0  0  0.103475  0  1.058836  0  0.106612  0  0.095586  0.097655  0  1.062588  0
H  H46  1  0.55993637  0.61832887  0.30918907  1  0  0.36702  0  0.881956  0  0  0.341663  0  0.959136  0  0  0.351981  0  0.946623  0  0.613472  0  0.304995  0.334346  0  0.968093  0
H  H47  1  0.94006200  0.11832796  0.19081079  1  0  0.367012  0  0.881966  0  0  0.341652  0  0.959152  0  0  0.351971  0  0.946639  0  0.613467  0  0.304983  0.334336  0  0.968109  0
H  H48  1  0.44006292  0.38167137  0.69081045  1  0  0.367025  0  0.881965  0  0  0.341664  0  0.959148  0  0  0.351983  0  0.946633  0  0.613469  0  0.304985  0.33435  0  0.968099  0
H  H49  1  0.05993729  0.88167149  0.80918935  1  0  0.367012  0  0.881978  0  0  0.341651  0  0.959155  0  0  0.351969  0  0.946642  0  0.613469  0  0.304995  0.334337  0  0.968107  0
C  C50  1  0.31960075  0.63085781  0.48372478  1  0  0.18404  0  3.630486  0  0  0.100864  0  3.904117  0  0  0.125818  0  3.919021  0  1.001703  0  0.168933  0.091417  0  3.896356  0
C  C51  1  0.18040059  0.13085848  0.01627509  1  0  0.184072  0  3.630507  0  0  0.100893  0  3.904137  0  0  0.125852  0  3.919043  0  1.001691  0  0.168956  0.091445  0  3.896377  0
C  C52  1  0.68040079  0.36914164  0.51627550  1  0  0.184083  0  3.63054  0  0  0.100935  0  3.904155  0  0  0.125862  0  3.919054  0  1.001689  0  0.168965  0.091488  0  3.896393  0
C  C53  1  0.81959983  0.86914255  0.98372513  1  0  0.184129  0  3.630503  0  0  0.100996  0  3.904128  0  0  0.125936  0  3.919029  0  1.001696  0  0.169001  0.091548  0  3.896367  0
C  C54  1  0.32843495  0.49228860  0.40871253  1  0  0.214534  0  3.701261  0  0  0.157835  0  3.994086  0  0  0.170717  0  4.004082  0  0.964851  0  0.146944  0.149915  0  3.984919  0
C  C55  1  0.17156526  0.99228713  0.09128727  1  0  0.214461  0  3.701217  0  0  0.157768  0  3.994036  0  0  0.17065  0  4.004027  0  0.96473  0  0.146906  0.149847  0  3.984869  0
C  C56  1  0.67156547  0.50771243  0.59128706  1  0  0.214492  0  3.701264  0  0  0.157797  0  3.994082  0  0  0.170676  0  4.004077  0  0.964738  0  0.146918  0.149877  0  3.984913  0
C  C57  1  0.82843515  0.00771231  0.90871294  1  0  0.214454  0  3.701275  0  0  0.15776  0  3.994093  0  0  0.170642  0  4.004084  0  0.964768  0  0.146907  0.14984  0  3.984925  0
C  C58  1  0.55082466  0.71979627  0.43944843  1  0  -0.126799  0  3.598457  0  0  -0.207966  0  3.850237  0  0  -0.195784  0  3.863102  0  0.294219  0  -0.049085  -0.209378  0  3.843827  0
C  C59  1  0.94917596  0.21979615  0.06055220  1  0  -0.126826  0  3.598479  0  0  -0.208015  0  3.85028  0  0  -0.195825  0  3.863144  0  0.294214  0  -0.049115  -0.209426  0  3.843869  0
C  C60  1  0.44917687  0.28020318  0.56055123  1  0  -0.126835  0  3.598585  0  0  -0.207953  0  3.850303  0  0  -0.19578  0  3.863159  0  0.294228  0  -0.049101  -0.209362  0  3.843889  0
C  C61  1  0.05082333  0.78020330  0.93944857  1  0  -0.126869  0  3.598552  0  0  -0.207988  0  3.850278  0  0  -0.195794  0  3.863134  0  0.294216  0  -0.04912  -0.209398  0  3.843866  0
C  C62  1  0.53828960  0.76433098  0.34879937  1  0  0.303234  0  3.58142  0  0  0.300117  0  3.83957  0  0  0.30669  0  3.849455  0  0.518861  0  0.083768  0.295712  0  3.831601  0
C  C63  1  0.96170989  0.26433086  0.15120119  1  0  0.30327  0  3.581355  0  0  0.300132  0  3.839578  0  0  0.306704  0  3.849463  0  0.518864  0  0.083778  0.295727  0  3.831611  0
C  C64  1  0.46170969  0.23566846  0.65120077  1  0  0.303309  0  3.581393  0  0  0.300167  0  3.839564  0  0  0.30674  0  3.84945  0  0.518869  0  0.083814  0.295761  0  3.831598  0
C  C65  1  0.03829052  0.73566938  0.84879903  1  0  0.303225  0  3.581496  0  0  0.300043  0  3.83981  0  0  0.306607  0  3.849699  0  0.51885  0  0.083792  0.295638  0  3.831841  0
C  C66  1  0.64092721  0.86246453  0.35028824  1  0  -0.106645  0  3.587902  0  0  -0.184267  0  3.834954  0  0  -0.182431  0  3.845184  0  0.281972  0  -0.04705  -0.185139  0  3.82804  0
C  C67  1  0.85907229  0.36246441  0.14971232  1  0  -0.106683  0  3.587868  0  0  -0.18433  0  3.834945  0  0  -0.182493  0  3.845173  0  0.281974  0  -0.047076  -0.185204  0  3.828033  0
C  C68  1  0.35907320  0.13753492  0.64971197  1  0  -0.106682  0  3.587974  0  0  -0.184315  0  3.835048  0  0  -0.182481  0  3.845279  0  0.28197  0  -0.047056  -0.185193  0  3.828141  0
C  C69  1  0.14092700  0.63753583  0.85028782  1  0  -0.106656  0  3.587829  0  0  -0.184282  0  3.834957  0  0  -0.182443  0  3.845186  0  0.281975  0  -0.047055  -0.185156  0  3.828044  0
C  C70  1  0.58539073  0.06328684  0.20005659  1  0  0.206566  0  3.724432  0  0  0.15449  0  4.016459  0  0  0.166031  0  4.029337  0  0.990631  0  0.137957  0.147044  0  4.00734  0
C  C71  1  0.91461101  0.56328696  0.29994412  1  0  0.206569  0  3.724456  0  0  0.154488  0  4.01648  0  0  0.166029  0  4.029358  0  0.990399  0  0.137952  0.147041  0  4.007365  0
C  C72  1  0.41460968  0.93671260  0.79994363  1  0  0.206555  0  3.724457  0  0  0.154474  0  4.016488  0  0  0.166015  0  4.029366  0  0.990543  0  0.137944  0.147025  0  4.007376  0
C  C73  1  0.08538940  0.43671248  0.70005672  1  0  0.206557  0  3.724467  0  0  0.154475  0  4.016492  0  0  0.166017  0  4.029369  0  0.990619  0  0.137956  0.147029  0  4.007374  0
C  C74  1  0.59693260  0.89450047  0.19351903  1  0  0.181953  0  3.623619  0  0  0.100586  0  3.892106  0  0  0.115168  0  3.903677  0  0.980492  0  0.158735  0.091483  0  3.883795  0
C  C75  1  0.90306802  0.39450035  0.30648098  1  0  0.182006  0  3.623599  0  0  0.100633  0  3.892075  0  0  0.115215  0  3.903646  0  0.980492  0  0.15874  0.091527  0  3.883767  0
C  C76  1  0.40306781  0.10549977  0.80648056  1  0  0.182002  0  3.623586  0  0  0.100653  0  3.892053  0  0  0.115235  0  3.903626  0  0.980491  0  0.158744  0.091545  0  3.883747  0
C  C77  1  0.09693127  0.60550068  0.69351917  1  0  0.181821  0  3.623632  0  0  0.100494  0  3.892101  0  0  0.115076  0  3.903672  0  0.980477  0  0.15867  0.09139  0  3.88379  0
C  C78  1  0.37422718  0.78943648  0.31687632  1  0  -0.147811  0  3.749514  0  0  -0.153206  0  4.009457  0  0  -0.157967  0  4.032804  0  0.032215  0  -0.03915  -0.149792  0  3.993109  0
C  C79  1  0.12577303  0.28943636  0.18312410  1  0  -0.147765  0  3.749439  0  0  -0.153155  0  4.00938  0  0  -0.157914  0  4.032724  0  0.032068  0  -0.039137  -0.149742  0  3.993032  0
C  C80  1  0.62577324  0.21056296  0.68312327  1  0  -0.147785  0  3.74944  0  0  -0.15318  0  4.009381  0  0  -0.157939  0  4.032727  0  0.032231  0  -0.039143  -0.149768  0  3.993038  0
C  C81  1  0.87422738  0.71056308  0.81687612  1  0  -0.147849  0  3.749515  0  0  -0.15324  0  4.009455  0  0  -0.157995  0  4.032796  0  0.032239  0  -0.03917  -0.149826  0  3.99311  0
C  C82  1  0.28864678  0.86363852  0.35563041  1  0  0.30679  0  3.748088  0  0  0.289111  0  4.032299  0  0  0.300962  0  4.04319  0  0.364689  0  0.097941  0.280606  0  4.025519  0
C  C83  1  0.21135343  0.36363840  0.14437001  1  0  0.306755  0  3.748128  0  0  0.289075  0  4.032334  0  0  0.300928  0  4.043222  0  0.364672  0  0.097912  0.280566  0  4.025554  0
C  C84  1  0.71135364  0.13636172  0.64437042  1  0  0.306816  0  3.748024  0  0  0.289138  0  4.032233  0  0  0.300991  0  4.043121  0  0.364656  0  0.097934  0.28063  0  4.025456  0
C  C85  1  0.78864586  0.63636184  0.85563014  1  0  0.30685  0  3.747998  0  0  0.289175  0  4.032199  0  0  0.301028  0  4.043085  0  0.364676  0  0.097937  0.280668  0  4.025419  0
C  C86  1  0.13913275  0.88636746  0.32864378  1  0  -0.292026  0  3.712338  0  0  -0.328242  0  3.969074  0  0  -0.335402  0  3.984632  0  0.115231  0  -0.109437  -0.323504  0  3.959015  0
C  C87  1  0.36086633  0.38636575  0.17135657  1  0  -0.292046  0  3.712337  0  0  -0.328256  0  3.969053  0  0  -0.335416  0  3.984611  0  0.115226  0  -0.109441  -0.323528  0  3.959021  0
C  C88  1  0.86086654  0.11363358  0.67135636  1  0  -0.292015  0  3.712333  0  0  -0.328237  0  3.969051  0  0  -0.335397  0  3.984609  0  0.115233  0  -0.109437  -0.323506  0  3.959008  0
C  C89  1  0.63913296  0.61363449  0.82864358  1  0  -0.292014  0  3.712336  0  0  -0.328234  0  3.969054  0  0  -0.335393  0  3.984609  0  0.11506  0  -0.109436  -0.323503  0  3.959013  0
C  C90  1  0.07390483  0.83015156  0.25944488  1  0  0.334219  0  3.799573  0  0  0.321102  0  4.085403  0  0  0.333382  0  4.09536  0  0.328751  0  0.097357  0.312618  0  4.078778  0
C  C91  1  0.42609426  0.33015064  0.24055609  1  0  0.3342  0  3.799542  0  0  0.321115  0  4.08533  0  0  0.333394  0  4.095288  0  0.328535  0  0.097362  0.312627  0  4.078706  0
C  C92  1  0.92609559  0.16984789  0.74055596  1  0  0.334183  0  3.799613  0  0  0.321097  0  4.085406  0  0  0.333376  0  4.095365  0  0.328755  0  0.097383  0.312615  0  4.078776  0
C  C93  1  0.57390391  0.66984880  0.75944460  1  0  0.334152  0  3.79961  0  0  0.321062  0  4.085409  0  0  0.333343  0  4.095364  0  0.328944  0  0.097372  0.312576  0  4.078784  0
C  C94  1  0.15125997  0.75482950  0.21806894  1  0  -0.208563  0  3.775327  0  0  -0.238852  0  4.041674  0  0  -0.244743  0  4.060214  0  0.057352  0  -0.109201  -0.234935  0  4.029293  0
C  C95  1  0.34873799  0.25482938  0.28193134  1  0  -0.208542  0  3.775353  0  0  -0.238853  0  4.041722  0  0  -0.244744  0  4.060264  0  0.057578  0  -0.109216  -0.234934  0  4.02934  0
C  C96  1  0.84873932  0.24517074  0.78193120  1  0  -0.208569  0  3.775437  0  0  -0.238875  0  4.041782  0  0  -0.244766  0  4.060322  0  0.05734  0  -0.109236  -0.234956  0  4.029397  0
C  C97  1  0.65126130  0.74517165  0.71806818  1  0  -0.208515  0  3.775341  0  0  -0.238816  0  4.041681  0  0  -0.244705  0  4.060218  0  0.057335  0  -0.109233  -0.234897  0  4.029297  0
C  C98  1  0.30146384  0.73584162  0.24739393  1  0  -0.04566  0  3.75865  0  0  -0.067445  0  4.019337  0  0  -0.066737  0  4.039987  0  -0.049364  0  -0.088736  -0.067705  0  4.005259  0
C  C99  1  0.19853637  0.23584071  0.25260711  1  0  -0.045673  0  3.758633  0  0  -0.067505  0  4.019293  0  0  -0.066799  0  4.039945  0  -0.049216  0  -0.08876  -0.067757  0  4.005209  0
C  C100  1  0.69853657  0.26415941  0.75260628  1  0  -0.045669  0  3.75866  0  0  -0.06745  0  4.019347  0  0  -0.066743  0  4.039999  0  -0.049367  0  -0.088723  -0.06771  0  4.005269  0
C  C101  1  0.80146405  0.76415953  0.74739310  1  0  -0.045694  0  3.758667  0  0  -0.06748  0  4.019354  0  0  -0.066773  0  4.040004  0  -0.04938  0  -0.088752  -0.067739  0  4.005273  0
C  C102  1  0.92400135  0.76462151  0.51521307  1  0  0.278316  0  4.124183  0  0  0.265248  0  4.421709  0  0  0.287587  0  4.436791  0  0.497977  0  0.120267  0.250174  0  4.411013  0
C  C103  1  0.57599814  0.26461900  0.98478562  1  0  0.278369  0  4.124251  0  0  0.265303  0  4.42178  0  0  0.287642  0  4.436861  0  0.498013  0  0.120264  0.250233  0  4.411076  0
C  C104  1  0.07599794  0.23538032  0.48478582  1  0  0.278338  0  4.12432  0  0  0.26527  0  4.421847  0  0  0.287609  0  4.436929  0  0.497967  0  0.120285  0.250197  0  4.411146  0
C  C105  1  0.42399890  0.73537647  0.01521376  1  0  0.278212  0  4.124309  0  0  0.265143  0  4.421842  0  0  0.287484  0  4.436926  0  0.49776  0  0.120201  0.250071  0  4.411138  0
S  S106  1  0.87990900  0.88141113  0.54565038  1  0  -0.378494  0  2.038004  0  0  -0.368115  0  2.319002  0  0  -0.382401  0  2.312993  0  0.065132  0  -0.192508  -0.358089  0  2.322951  0
S  S107  1  0.62009162  0.38141180  0.95434963  1  0  -0.378601  0  2.037849  0  0  -0.368217  0  2.318831  0  0  -0.382505  0  2.31282  0  0.065079  0  -0.192567  -0.358188  0  2.322776  0
S  S108  1  0.12009141  0.11858911  0.45434984  1  0  -0.378526  0  2.037928  0  0  -0.368148  0  2.318933  0  0  -0.382436  0  2.312922  0  0.065137  0  -0.19253  -0.358121  0  2.322877  0
S  S109  1  0.37990655  0.61859002  0.04565169  1  0  -0.378382  0  2.038239  0  0  -0.367999  0  2.319232  0  0  -0.382286  0  2.313223  0  0.06529  0  -0.192441  -0.357973  0  2.323176  0
N  N110  1  0.24502406  0.54128909  0.46314512  1  0  -0.39257  0  3.179438  0  0  -0.327421  0  3.479732  0  0  -0.347847  0  3.489389  0  -1.205633  0  -0.340736  -0.313484  0  3.470329  0
N  N111  1  0.25497615  0.04128897  0.03685405  1  0  -0.392574  0  3.179468  0  0  -0.327413  0  3.479736  0  0  -0.347842  0  3.489398  0  -1.205558  0  -0.340729  -0.313476  0  3.470334  0
N  N112  1  0.75497636  0.45871115  0.53685447  1  0  -0.392615  0  3.179517  0  0  -0.327449  0  3.479766  0  0  -0.347876  0  3.489439  0  -1.205574  0  -0.340741  -0.313512  0  3.470364  0
N  N113  1  0.74502426  0.95871047  0.96314554  1  0  -0.392603  0  3.179532  0  0  -0.327442  0  3.479783  0  0  -0.347871  0  3.489452  0  -1.205577  0  -0.340735  -0.313505  0  3.470382  0
N  N114  1  0.45132391  0.54600411  0.39512938  1  0  -0.288534  0  2.881398  0  0  -0.281933  0  3.148794  0  0  -0.281527  0  3.166754  0  -0.689866  0  -0.221945  -0.275922  0  3.140543  0
N  N115  1  0.04867630  0.04600399  0.10487104  1  0  -0.28854  0  2.881405  0  0  -0.281943  0  3.148793  0  0  -0.28153  0  3.166755  0  -0.689818  0  -0.221938  -0.275932  0  3.140542  0
N  N116  1  0.54867538  0.45399533  0.60487076  1  0  -0.288602  0  2.881495  0  0  -0.282013  0  3.148885  0  0  -0.281621  0  3.166839  0  -0.689812  0  -0.221963  -0.276003  0  3.140633  0
N  N117  1  0.95132412  0.95399625  0.89512980  1  0  -0.288564  0  2.881456  0  0  -0.281967  0  3.148849  0  0  -0.281558  0  3.16681  0  -0.68986  0  -0.221963  -0.275956  0  3.140596  0
N  N118  1  0.44412555  0.63403608  0.44419547  1  0  0.043956  0  3.590103  0  0  0.163095  0  3.779581  0  0  0.121948  0  3.843186  0  -0.847278  0  -0.139869  0.170733  0  3.761374  0
N  N119  1  0.05587353  0.13403596  0.05580488  1  0  0.044008  0  3.590039  0  0  0.163165  0  3.779492  0  0  0.121999  0  3.843121  0  -0.847253  0  -0.139843  0.170804  0  3.761284  0
N  N120  1  0.55587374  0.36596336  0.55580467  1  0  0.044008  0  3.590137  0  0  0.163174  0  3.779537  0  0  0.122067  0  3.843112  0  -0.84729  0  -0.139829  0.170812  0  3.761329  0
N  N121  1  0.94412576  0.86596428  0.94419589  1  0  0.043964  0  3.590071  0  0  0.163115  0  3.779501  0  0  0.121956  0  3.843135  0  -0.847267  0  -0.139853  0.170754  0  3.761294  0
N  N122  1  0.61535938  0.92556245  0.27429030  1  0  0.058538  0  3.554124  0  0  0.178975  0  3.740605  0  0  0.168325  0  3.76523  0  -0.801999  0  -0.134428  0.184461  0  3.726578  0
N  N123  1  0.88464012  0.42556313  0.22570963  1  0  0.058473  0  3.554154  0  0  0.178933  0  3.740612  0  0  0.168283  0  3.765236  0  -0.801998  0  -0.13446  0.184431  0  3.726562  0
N  N124  1  0.38464104  0.07443699  0.72570991  1  0  0.058427  0  3.554205  0  0  0.178851  0  3.740699  0  0  0.168201  0  3.765325  0  -0.802003  0  -0.134501  0.184368  0  3.726615  0
N  N125  1  0.11535917  0.57443711  0.77429051  1  0  0.058562  0  3.55403  0  0  0.178927  0  3.740569  0  0  0.168276  0  3.765194  0  -0.801987  0  -0.134454  0.184417  0  3.726535  0
N  N126  1  0.60775767  0.03352110  0.27973088  1  0  -0.275457  0  2.813311  0  0  -0.281673  0  3.074016  0  0  -0.28842  0  3.08511  0  -0.67515  0  -0.233382  -0.276861  0  3.066676  0
N  N127  1  0.89224295  0.53352122  0.22026913  1  0  -0.275441  0  2.813244  0  0  -0.28166  0  3.073945  0  0  -0.288407  0  3.085039  0  -0.675138  0  -0.23336  -0.276853  0  3.066606  0
N  N128  1  0.39224274  0.96647835  0.72026933  1  0  -0.275423  0  2.813277  0  0  -0.281626  0  3.073975  0  0  -0.288373  0  3.085069  0  -0.675265  0  -0.233336  -0.276822  0  3.066635  0
N  N129  1  0.10775746  0.46647823  0.77973108  1  0  -0.275446  0  2.813262  0  0  -0.281627  0  3.073978  0  0  -0.288374  0  3.08507  0  -0.675169  0  -0.233344  -0.276816  0  3.066637  0
N  N130  1  0.57726098  0.98047259  0.14482419  1  0  -0.418109  0  3.19448  0  0  -0.346961  0  3.488744  0  0  -0.36863  0  3.502899  0  -1.221288  0  -0.351547  -0.33216  0  3.478392  0
N  N131  1  0.92273965  0.48047247  0.35517582  1  0  -0.418097  0  3.194475  0  0  -0.346944  0  3.488732  0  0  -0.368614  0  3.502888  0  -1.221081  0  -0.351527  -0.332144  0  3.478383  0
N  N132  1  0.42273944  0.01952765  0.85517602  1  0  -0.418078  0  3.194432  0  0  -0.346927  0  3.488682  0  0  -0.368597  0  3.502839  0  -1.221098  0  -0.351511  -0.332129  0  3.478335  0
N  N133  1  0.07725964  0.51952697  0.64482432  1  0  -0.418068  0  3.194449  0  0  -0.346914  0  3.488692  0  0  -0.368584  0  3.502848  0  -1.221261  0  -0.351523  -0.332114  0  3.47834  0
N  N134  1  0.95294086  0.67883116  0.48995429  1  0  -0.606416  0  2.885546  0  0  -0.546748  0  3.163607  0  0  -0.56846  0  3.168514  0  -1.338701  0  -0.430572  -0.531801  0  3.160039  0
N  N135  1  0.54705976  0.17883342  0.01004385  1  0  -0.60636  0  2.885786  0  0  -0.546687  0  3.163833  0  0  -0.568398  0  3.168742  0  -1.338697  0  -0.430501  -0.531741  0  3.160257  0
N  N136  1  0.04705956  0.32116829  0.51004530  1  0  -0.606382  0  2.885758  0  0  -0.546713  0  3.163811  0  0  -0.568425  0  3.16872  0  -1.338701  0  -0.430556  -0.531764  0  3.160239  0
N  N137  1  0.45294065  0.82117000  0.98995387  1  0  -0.606399  0  2.885424  0  0  -0.546727  0  3.163483  0  0  -0.568442  0  3.168394  0  -1.33862  0  -0.43056  -0.531778  0  3.159908  0
O  O138  1  0.59904706  0.68871285  0.29568931  1  0  -0.56058  0  2.008373  0  0  -0.521755  0  2.227614  0  0  -0.536787  0  2.216309  0  -1.115622  0  -0.388395  -0.510951  0  2.235181  0
O  O139  1  0.90095244  0.18871273  0.20431063  1  0  -0.560598  0  2.008392  0  0  -0.521763  0  2.227637  0  0  -0.536796  0  2.216334  0  -1.115631  0  -0.388397  -0.510965  0  2.235216  0
O  O140  1  0.40095223  0.31128739  0.70431021  1  0  -0.560664  0  2.008433  0  0  -0.521825  0  2.227679  0  0  -0.536858  0  2.216373  0  -1.115617  0  -0.388441  -0.511027  0  2.235252  0
O  O141  1  0.09904685  0.81128751  0.79568951  1  0  -0.560599  0  2.008478  0  0  -0.521741  0  2.227734  0  0  -0.536772  0  2.21643  0  -1.115617  0  -0.388423  -0.510944  0  2.235313  0
F  F142  1  0.35393986  0.91710161  0.42462853  1  0  -0.205447  0  1.194956  0  0  -0.145912  0  1.350154  0  0  -0.156841  0  1.34123  0  -0.634907  0  -0.092423  -0.137978  0  1.356373  0
F  F143  1  0.14606034  0.41710070  0.07537189  1  0  -0.205433  0  1.194964  0  0  -0.145892  0  1.350156  0  0  -0.156827  0  1.341233  0  -0.634888  0  -0.0924  -0.137952  0  1.356371  0
F  F144  1  0.64606167  0.08289863  0.57537175  1  0  -0.205481  0  1.194928  0  0  -0.145945  0  1.350124  0  0  -0.156879  0  1.341204  0  -0.634889  0  -0.092441  -0.138006  0  1.356341  0
F  F145  1  0.85393895  0.58289875  0.92462825  1  0  -0.205489  0  1.194921  0  0  -0.145949  0  1.350112  0  0  -0.156884  0  1.341188  0  -0.634891  0  -0.092432  -0.13801  0  1.356327  0
F  F146  1  0.92689441  0.85036582  0.23116135  1  0  -0.219533  0  1.191059  0  0  -0.162514  0  1.345014  0  0  -0.173177  0  1.336373  0  -0.640863  0  -0.099712  -0.154814  0  1.35088  0
F  F147  1  0.57310509  0.35036490  0.26883921  1  0  -0.219529  0  1.191027  0  0  -0.162533  0  1.344985  0  0  -0.173196  0  1.336344  0  -0.640863  0  -0.099712  -0.154826  0  1.350846  0
F  F148  1  0.07310489  0.14963363  0.76883941  1  0  -0.219523  0  1.191064  0  0  -0.162511  0  1.34501  0  0  -0.173169  0  1.336365  0  -0.640868  0  -0.099721  -0.154813  0  1.350875  0
F  F149  1  0.42689420  0.64963534  0.73116094  1  0  -0.219538  0  1.191083  0  0  -0.162522  0  1.345026  0  0  -0.173187  0  1.336387  0  -0.640881  0  -0.099715  -0.154818  0  1.350889  0
