# generated using pymatgen
data_ZnH10C21N2(O3F2)2
_symmetry_space_group_name_H-M   'P 1'
_cell_length_a   16.43399724
_cell_length_b   17.38158549
_cell_length_c   17.68117879
_cell_angle_alpha   89.74277395
_cell_angle_beta   84.58834615
_cell_angle_gamma   89.15732471
_symmetry_Int_Tables_number   1
_chemical_formula_structural   ZnH10C21N2(O3F2)2
_chemical_formula_sum   'Zn2 H20 C42 N4 O12 F8'
_cell_volume   5027.52998008
_cell_formula_units_Z   2
loop_
 _symmetry_equiv_pos_site_id
 _symmetry_equiv_pos_as_xyz
  1  'x, y, z'
loop_
 _atom_site_type_symbol
 _atom_site_label
 _atom_site_symmetry_multiplicity
 _atom_site_fract_x
 _atom_site_fract_y
 _atom_site_fract_z
 _atom_site_occupancy
 _atom_site_pbe_bader_charge
 _atom_site_pbe_bader_spin_density
 _atom_site_pbe_cm5_charge
 _atom_site_pbe_ddec_charge
 _atom_site_pbe_ddec_spin_density
 _atom_site_pbe_ddec_sum_bond_order
 _atom_site_pbe_magmom
Zn  Zn0  1  0.41388610  0.49963125  0.50252099  1  1.304619  0  0.675717  0.862386  0  2.382727  0
Zn  Zn1  1  0.58556176  0.50652794  0.49768169  1  1.290795  0  0.672444  0.841074  0  2.385821  0
H  H2  1  0.71758249  0.42576895  0.57438735  1  0.148378  0  0.136154  0.116159  0  0.962014  0
H  H3  1  0.86910096  0.42513519  0.57229483  1  0.09595  0  0.120017  0.129743  0  0.983143  0
H  H4  1  0.12862921  0.39675135  0.60087299  1  0.128268  0  0.128304  0.162591  0  0.964459  0
H  H5  1  0.12746530  0.57498890  0.42634455  1  0.120019  0  0.12712  0.161925  0  0.972026  0
H  H6  1  0.99928082  0.56248569  0.43821139  1  0.095313  0  0.113036  0.113576  0  0.997503  0
H  H7  1  0.99925969  0.43618229  0.56145547  1  0.057511  0  0.112966  0.10937  0  0.987429  0
H  H8  1  0.61553785  0.50450091  0.73674352  1  0.112272  0  0.106635  0.114862  0  0.998018  0
H  H9  1  0.61000166  0.50430042  0.87713065  1  0.05631  0  0.105252  0.108188  0  1.001128  0
H  H10  1  0.65354283  0.50596614  0.11261287  1  0.095185  0  0.111327  0.136335  0  0.986326  0
H  H11  1  0.38883789  0.49597552  0.12298506  1  0.066464  0  0.112796  0.139965  0  0.988361  0
H  H12  1  0.40619215  0.49637706  0.00331147  1  0.095361  0  0.103584  0.105639  0  1.00939  0
H  H13  1  0.59394447  0.50381437  0.99678343  1  0.07119  0  0.103315  0.100297  0  1.00164  0
H  H14  1  0.61593807  0.75094761  0.49675899  1  0.096736  0  0.0998  0.109807  0  1.003134  0
H  H15  1  0.61168004  0.89623873  0.49600473  1  0.100114  0  0.10233  0.109257  0  1.02034  0
H  H16  1  0.65130737  0.11155847  0.49492366  1  0.07828  0  0.109656  0.136249  0  0.992453  0
H  H17  1  0.38752501  0.10596259  0.50354120  1  0.093679  0  0.104069  0.128377  0  1.018312  0
H  H18  1  0.35335566  0.68532757  0.50468415  1  0.658587  0  0.296281  0.34484  0  0.990456  0
H  H19  1  0.34769559  0.95220736  0.50538646  1  0.611232  0  0.31765  0.32976  0  0.946907  0
H  H20  1  0.64500214  0.31671923  0.49457766  1  0.635006  0  0.296205  0.342322  0  0.998226  0
H  H21  1  0.37747005  0.30984862  0.50403040  1  0.631461  0  0.294952  0.343486  0  0.996976  0
C  C22  1  0.49421529  0.49971760  0.64710240  1  1.534845  0  0.218301  0.617783  0  4.153226  0
C  C23  1  0.50998934  0.34682564  0.49995594  1  1.426963  0  0.21255  0.619231  0  4.128948  0
C  C24  1  0.50728245  0.50013250  0.35368455  1  1.634138  0  0.217235  0.635801  0  4.15627  0
C  C25  1  0.49008223  0.65516799  0.50226032  1  1.523071  0  0.216016  0.612317  0  4.13532  0
C  C26  1  0.75488544  0.46360934  0.53651875  1  0.427865  0  0.057605  0.106269  0  3.928525  0
C  C27  1  0.83908121  0.46403362  0.53491635  1  0.053867  0  -0.075531  -0.169745  0  3.949034  0
C  C28  1  0.88535964  0.51433473  0.48534222  1  0.02774  0  0.004913  0.060869  0  4.057128  0
C  C29  1  0.84060037  0.56156480  0.43953473  1  0.572533  0  0.110924  0.091017  0  4.0257  0
C  C30  1  0.75541943  0.55764961  0.44451325  1  1.17757  0  0.247135  0.342473  0  4.091333  0
C  C31  1  0.97388611  0.52021588  0.47934496  1  0.015885  0  -0.069479  -0.090436  0  3.941443  0
C  C32  1  0.02440280  0.47852915  0.52013798  1  -0.061971  0  -0.065861  -0.101936  0  3.915108  0
C  C33  1  0.15778296  0.43796391  0.56092504  1  0.020656  0  -0.086948  -0.319129  0  3.909027  0
C  C34  1  0.11306546  0.48493891  0.51434261  1  0.016258  0  0.019465  0.207847  0  4.043847  0
C  C35  1  0.15655525  0.53623127  0.46436195  1  0.13196  0  -0.087485  -0.315908  0  3.907102  0
C  C36  1  0.24062462  0.53729905  0.46411567  1  1.027636  0  0.25104  0.476576  0  4.054839  0
C  C37  1  0.24200440  0.44497809  0.55513069  1  1.107011  0  0.252027  0.481324  0  4.054609  0
C  C38  1  0.48626010  0.49927529  0.73217832  1  0.090749  0  -0.022128  -0.124386  0  3.962842  0
C  C39  1  0.55707571  0.50204536  0.77115676  1  0.017265  0  -0.08628  -0.085548  0  4.020816  0
C  C40  1  0.55348452  0.50200311  0.84963158  1  -0.045078  0  -0.092674  -0.132217  0  4.001498  0
C  C41  1  0.47798847  0.49911551  0.89486835  1  0.006518  0  -0.014131  0.028414  0  4.079008  0
C  C42  1  0.40775573  0.49634669  0.85566804  1  0.473733  0  0.092155  0.122091  0  4.030599  0
C  C43  1  0.41098305  0.49639189  0.77649139  1  0.521759  0  0.1025  0.175329  0  4.04945  0
C  C44  1  0.46902055  0.49884204  0.97737432  1  -0.066213  0  -0.084495  -0.104124  0  3.978245  0
C  C45  1  0.53092077  0.50135637  0.02256139  1  0.053044  0  -0.082602  -0.119  0  3.957474  0
C  C46  1  0.59313933  0.50355793  0.14369811  1  -0.012214  0  -0.106541  -0.291258  0  3.974229  0
C  C47  1  0.52226865  0.50097088  0.10519748  1  0.00313  0  -0.001031  0.175098  0  4.073537  0
C  C48  1  0.44630375  0.49805462  0.14885928  1  0.077731  0  -0.106684  -0.287715  0  3.964159  0
C  C49  1  0.44298445  0.49767751  0.22728807  1  0.433017  0  0.112034  0.314516  0  4.042193  0
C  C50  1  0.51265413  0.50014774  0.26863123  1  0.045169  0  -0.029301  -0.256371  0  3.900915  0
C  C51  1  0.58741224  0.50310985  0.22243478  1  0.438936  0  0.111795  0.316823  0  4.040262  0
C  C52  1  0.48537042  0.74024041  0.50156713  1  -0.048041  0  -0.039149  -0.174134  0  3.997772  0
C  C53  1  0.55836188  0.78307112  0.49875881  1  -0.065265  0  -0.099685  -0.091338  0  4.055063  0
C  C54  1  0.55642680  0.86220541  0.49832739  1  0.01938  0  -0.105907  -0.166332  0  4.04269  0
C  C55  1  0.48002870  0.90109620  0.50090188  1  0.361351  0  0.072205  0.057189  0  4.095533  0
C  C56  1  0.40646237  0.85985170  0.50358740  1  0.612926  0  0.089703  0.163145  0  4.002836  0
C  C57  1  0.40860599  0.77830854  0.50371765  1  0.581761  0  0.085589  0.215919  0  4.040416  0
C  C58  1  0.59298612  0.14231254  0.49694401  1  0.029192  0  -0.110848  -0.302768  0  3.931858  0
C  C59  1  0.52025886  0.10090354  0.49929485  1  0.35148  0  0.087055  0.216207  0  4.112299  0
C  C60  1  0.44381304  0.13827623  0.50167698  1  0.073869  0  -0.125908  -0.325516  0  3.957344  0
C  C61  1  0.44026631  0.21831273  0.50178492  1  0.44938  0  0.090561  0.357539  0  4.069449  0
C  C62  1  0.51350131  0.26249410  0.49955226  1  0.060086  0  -0.056608  -0.332902  0  3.942699  0
C  C63  1  0.59010250  0.22255080  0.49705752  1  0.519086  0  0.08896  0.350956  0  4.075949  0
N  N64  1  0.71328626  0.51024962  0.49150712  1  -1.240558  0  -0.312036  -0.271229  0  3.502834  0
N  N65  1  0.28449492  0.49318329  0.50808601  1  -1.23825  0  -0.314728  -0.395578  0  3.420264  0
N  N66  1  0.46788856  0.98067874  0.50112841  1  -0.585146  0  -0.156772  -0.138193  0  3.38386  0
N  N67  1  0.53239700  0.02038247  0.49896037  1  -0.452514  0  -0.151627  -0.1289  0  3.256937  0
O  O68  1  0.42853588  0.50073154  0.61449138  1  -1.144881  0  -0.31676  -0.548282  0  2.384049  0
O  O69  1  0.56662703  0.49919367  0.61392183  1  -1.163355  0  -0.318766  -0.550137  0  2.311617  0
O  O70  1  0.57721453  0.38449444  0.49878023  1  -1.173016  0  -0.312191  -0.552009  0  2.339318  0
O  O71  1  0.43966082  0.38071350  0.50156510  1  -1.170781  0  -0.310304  -0.551921  0  2.371728  0
O  O72  1  0.57395259  0.50203011  0.38471062  1  -1.145721  0  -0.31902  -0.549967  0  2.372485  0
O  O73  1  0.43611228  0.49838994  0.38879702  1  -1.144132  0  -0.319767  -0.549744  0  2.383251  0
O  O74  1  0.42180221  0.61871299  0.50285049  1  -1.159203  0  -0.31588  -0.564283  0  2.376629  0
O  O75  1  0.55948094  0.62209333  0.50221107  1  -1.161408  0  -0.316134  -0.541729  0  2.336558  0
O  O76  1  0.33692511  0.74151262  0.50592030  1  -1.161917  0  -0.35862  -0.427153  0  2.27108  0
O  O77  1  0.33345260  0.89705615  0.50600677  1  -1.111643  0  -0.343848  -0.39394  0  2.278708  0
O  O78  1  0.66140724  0.26069226  0.49468449  1  -1.159314  0  -0.371119  -0.460608  0  2.239451  0
O  O79  1  0.36605394  0.25317025  0.50426750  1  -1.143848  0  -0.370216  -0.459079  0  2.246436  0
F  F80  1  0.71460523  0.60372124  0.40056423  1  -0.5941  0  -0.05137  -0.089412  0  1.38681  0
F  F81  1  0.87834197  0.61181081  0.39002779  1  -0.615218  0  -0.078554  -0.09718  0  1.363403  0
F  F82  1  0.28329773  0.58577064  0.41745734  1  -0.611173  0  -0.052834  -0.10707  0  1.361276  0
F  F83  1  0.28581443  0.40082812  0.59873477  1  -0.615072  0  -0.052778  -0.109633  0  1.360657  0
F  F84  1  0.33873982  0.49335579  0.74623949  1  -0.610293  0  -0.094803  -0.113044  0  1.391347  0
F  F85  1  0.33277701  0.49342202  0.89521113  1  -0.620307  0  -0.099989  -0.127119  0  1.351559  0
F  F86  1  0.36710136  0.49467630  0.26447592  1  -0.62133  0  -0.100639  -0.136762  0  1.361217  0
F  F87  1  0.65921314  0.50580771  0.25419045  1  -0.618335  0  -0.101347  -0.137206  0  1.357225  0
