# generated using pymatgen
data_HgH11C11Br2N3
_symmetry_space_group_name_H-M   'P 1'
_cell_length_a   8.32779179
_cell_length_b   12.79102344
_cell_length_c   12.87230000
_cell_angle_alpha   90.00000000
_cell_angle_beta   98.47784425
_cell_angle_gamma   90.00000000
_symmetry_Int_Tables_number   1
_chemical_formula_structural   HgH11C11Br2N3
_chemical_formula_sum   'Hg4 H44 C44 Br8 N12'
_cell_volume   1356.18716146
_cell_formula_units_Z   4
loop_
 _symmetry_equiv_pos_site_id
 _symmetry_equiv_pos_as_xyz
  1  'x, y, z'
loop_
 _atom_site_type_symbol
 _atom_site_label
 _atom_site_symmetry_multiplicity
 _atom_site_fract_x
 _atom_site_fract_y
 _atom_site_fract_z
 _atom_site_occupancy
 _atom_site_hle17_bader_spin_density
 _atom_site_hle17_ddec_charge
 _atom_site_hle17_ddec_spin_density
 _atom_site_hle17_ddec_sum_bond_order
 _atom_site_hle17_magmom
 _atom_site_hse06_10hf_bader_spin_density
 _atom_site_hse06_10hf_ddec_charge
 _atom_site_hse06_10hf_ddec_spin_density
 _atom_site_hse06_10hf_ddec_sum_bond_order
 _atom_site_hse06_10hf_magmom
 _atom_site_hse06_bader_spin_density
 _atom_site_hse06_ddec_charge
 _atom_site_hse06_ddec_spin_density
 _atom_site_hse06_ddec_sum_bond_order
 _atom_site_hse06_magmom
 _atom_site_pbe_bader_charge
 _atom_site_pbe_bader_spin_density
 _atom_site_pbe_cm5_charge
 _atom_site_pbe_ddec_charge
 _atom_site_pbe_ddec_spin_density
 _atom_site_pbe_ddec_sum_bond_order
 _atom_site_pbe_magmom
Hg  Hg0  1  0.26081994  0.67392340  0.74874260  1  0  0.664369  0  2.08631  0  0  0.504989  0  2.576868  0  0  0.555074  0  2.546325  0  0.723626  0  0.474001  0.471278  0  2.596764  0
Hg  Hg1  1  0.23917924  0.17392666  0.75125581  1  0  0.664348  0  2.086339  0  0  0.504986  0  2.576887  0  0  0.555071  0  2.546339  0  0.723698  0  0.47402  0.471277  0  2.596785  0
Hg  Hg2  1  0.73917963  0.32607555  0.25125589  1  0  0.66443  0  2.086328  0  0  0.505049  0  2.576868  0  0  0.555133  0  2.546319  0  0.723589  0  0.474034  0.471338  0  2.596765  0
Hg  Hg3  1  0.76081790  0.82607463  0.24874400  1  0  0.66437  0  2.086373  0  0  0.505012  0  2.576899  0  0  0.555095  0  2.546352  0  0.723657  0  0.474017  0.471304  0  2.596795  0
H  H4  1  0.30402486  0.78534842  0.96719419  1  0  0.263519  0  0.918823  0  0  0.253283  0  0.978924  0  0  0.25891  0  0.975147  0  0.465051  0  0.287781  0.249221  0  0.98175  0
H  H5  1  0.19597917  0.28534855  0.53280623  1  0  0.263544  0  0.918823  0  0  0.253304  0  0.978926  0  0  0.25893  0  0.975154  0  0.465088  0  0.287824  0.249239  0  0.981751  0
H  H6  1  0.69597350  0.21465053  0.03280573  1  0  0.263586  0  0.918746  0  0  0.253321  0  0.978888  0  0  0.258944  0  0.975119  0  0.465019  0  0.287841  0.249259  0  0.981714  0
H  H7  1  0.80402282  0.71464884  0.46719404  1  0  0.263466  0  0.918884  0  0  0.253232  0  0.979  0  0  0.25886  0  0.975229  0  0.465097  0  0.287761  0.249169  0  0.981824  0
H  H8  1  0.15426391  0.55021008  0.14332296  1  0  0.112653  0  0.96229  0  0  0.120458  0  1.026813  0  0  0.12365  0  1.026204  0  0.086827  0  0.097826  0.118164  0  1.027441  0
H  H9  1  0.34573526  0.05021099  0.35667933  1  0  0.112673  0  0.962293  0  0  0.120461  0  1.026825  0  0  0.123655  0  1.026213  0  0.086859  0  0.097812  0.118168  0  1.027454  0
H  H10  1  0.84573201  0.44978809  0.85667828  1  0  0.112657  0  0.962298  0  0  0.120454  0  1.026828  0  0  0.123646  0  1.026221  0  0.086835  0  0.097817  0.118161  0  1.027455  0
H  H11  1  0.65426795  0.94978952  0.64332261  1  0  0.112686  0  0.962264  0  0  0.120488  0  1.026783  0  0  0.123682  0  1.026171  0  0.086864  0  0.097844  0.118195  0  1.02741  0
H  H12  1  0.28518865  0.37252140  0.14273034  1  0  0.085207  0  0.975256  0  0  0.090982  0  1.048591  0  0  0.093708  0  1.045853  0  0.133482  0  0.094653  0.088943  0  1.050661  0
H  H13  1  0.21480932  0.87252361  0.35727028  1  0  0.085243  0  0.975149  0  0  0.091016  0  1.04848  0  0  0.093742  0  1.045742  0  0.133561  0  0.094669  0.088975  0  1.050552  0
H  H14  1  0.71481092  0.62747755  0.85726736  1  0  0.085195  0  0.975182  0  0  0.090979  0  1.048507  0  0  0.093704  0  1.045774  0  0.133812  0  0.094661  0.08894  0  1.050577  0
H  H15  1  0.78519147  0.12747846  0.64273065  1  0  0.085227  0  0.975121  0  0  0.091007  0  1.048451  0  0  0.093731  0  1.045713  0  0.133514  0  0.09466  0.088967  0  1.050522  0
H  H16  1  0.40079795  0.31661970  0.98147775  1  0  0.09417  0  0.984184  0  0  0.097323  0  1.058805  0  0  0.100811  0  1.057298  0  0.082701  0  0.089372  0.094794  0  1.060083  0
H  H17  1  0.09920122  0.81662191  0.51852454  1  0  0.09414  0  0.984218  0  0  0.097318  0  1.058805  0  0  0.100808  0  1.057297  0  0.082714  0  0.08938  0.094791  0  1.060081  0
H  H18  1  0.59920040  0.68338003  0.01851984  1  0  0.09421  0  0.984215  0  0  0.097349  0  1.058845  0  0  0.100839  0  1.057338  0  0.082621  0  0.089379  0.094821  0  1.060122  0
H  H19  1  0.90080077  0.18338017  0.48147573  1  0  0.09413  0  0.984181  0  0  0.0973  0  1.058786  0  0  0.100791  0  1.057279  0  0.082598  0  0.089363  0.094772  0  1.060063  0
H  H20  1  0.38662375  0.44053707  0.83148574  1  0  0.071054  0  0.964818  0  0  0.077431  0  1.033869  0  0  0.078627  0  1.034035  0  0.129275  0  0.106729  0.076521  0  1.03384  0
H  H21  1  0.11338028  0.94053928  0.66851702  1  0  0.071057  0  0.96481  0  0  0.077444  0  1.033885  0  0  0.07864  0  1.034049  0  0.129276  0  0.106728  0.076534  0  1.033856  0
H  H22  1  0.61337825  0.55946422  0.16851376  1  0  0.071067  0  0.96483  0  0  0.077451  0  1.03388  0  0  0.078647  0  1.034046  0  0.129293  0  0.106755  0.076542  0  1.033851  0
H  H23  1  0.88662050  0.05946279  0.33148236  1  0  0.071026  0  0.964828  0  0  0.077418  0  1.033894  0  0  0.078613  0  1.03406  0  0.129266  0  0.106727  0.076508  0  1.033864  0
H  H24  1  0.98920046  0.67387336  0.93438173  1  0  0.074053  0  0.954928  0  0  0.09179  0  1.019125  0  0  0.091254  0  1.020476  0  0.086853  0  0.106926  0.092147  0  1.018212  0
H  H25  1  0.51080314  0.17387506  0.56561873  1  0  0.07408  0  0.954967  0  0  0.091827  0  1.019143  0  0  0.09129  0  1.020493  0  0.086788  0  0.106949  0.092185  0  1.018231  0
H  H26  1  0.01079668  0.32612480  0.06561730  1  0  0.074123  0  0.95493  0  0  0.091854  0  1.019126  0  0  0.09132  0  1.020474  0  0.086898  0  0.106945  0.09221  0  1.018214  0
H  H27  1  0.48920007  0.82612545  0.43438321  1  0  0.074062  0  0.954966  0  0  0.091813  0  1.01916  0  0  0.091276  0  1.020513  0  0.086863  0  0.106926  0.09217  0  1.018246  0
H  H28  1  0.08279435  0.70712637  0.06288387  1  0  0.070806  0  0.947387  0  0  0.083963  0  1.017644  0  0  0.08475  0  1.016785  0  0.075947  0  0.092461  0.083379  0  1.01831  0
H  H29  1  0.41720968  0.20712494  0.43711578  1  0  0.070848  0  0.947339  0  0  0.083974  0  1.017646  0  0  0.08476  0  1.016786  0  0.076029  0  0.092467  0.083392  0  1.018312  0
H  H30  1  0.91720279  0.29287336  0.93711516  1  0  0.070828  0  0.947375  0  0  0.083977  0  1.017644  0  0  0.084765  0  1.016784  0  0.075966  0  0.092462  0.083393  0  1.018311  0
H  H31  1  0.58279596  0.79287401  0.56288561  1  0  0.070821  0  0.947365  0  0  0.083973  0  1.01766  0  0  0.084759  0  1.016803  0  0.07594  0  0.092457  0.08339  0  1.018325  0
H  H32  1  0.31390006  0.94917346  0.87507267  1  0  0.085207  0  0.965297  0  0  0.088972  0  1.039501  0  0  0.092434  0  1.036152  0  0.104344  0  0.100708  0.086433  0  1.04198  0
H  H33  1  0.18610397  0.44917438  0.62492154  1  0  0.085152  0  0.965427  0  0  0.088946  0  1.03959  0  0  0.092413  0  1.036235  0  0.104345  0  0.100683  0.086407  0  1.042067  0
H  H34  1  0.68609829  0.05082471  0.12492026  1  0  0.085211  0  0.965289  0  0  0.088996  0  1.039467  0  0  0.09246  0  1.03611  0  0.104279  0  0.100707  0.086457  0  1.041946  0
H  H35  1  0.81389195  0.55082379  0.37507738  1  0  0.085209  0  0.965463  0  0  0.088994  0  1.039633  0  0  0.092458  0  1.036284  0  0.104424  0  0.100731  0.086455  0  1.04211  0
H  H36  1  0.85904909  0.80843961  0.92766792  1  0  0.104215  0  0.952444  0  0  0.116961  0  1.011284  0  0  0.119832  0  1.009525  0  0.095149  0  0.104249  0.11491  0  1.012552  0
H  H37  1  0.64095815  0.30843974  0.57233522  1  0  0.104217  0  0.952442  0  0  0.11696  0  1.011282  0  0  0.119848  0  1.009505  0  0.095205  0  0.104251  0.114909  0  1.01255  0
H  H38  1  0.14095048  0.19156012  0.07233600  1  0  0.104202  0  0.95245  0  0  0.116957  0  1.011286  0  0  0.119823  0  1.009535  0  0.095148  0  0.104259  0.114907  0  1.012554  0
H  H39  1  0.35904384  0.69155999  0.42766427  1  0  0.1042  0  0.952484  0  0  0.116966  0  1.011302  0  0  0.119856  0  1.009523  0  0.095189  0  0.104249  0.114915  0  1.012569  0
H  H40  1  0.72375615  0.97522689  0.86915975  1  0  0.099637  0  0.968276  0  0  0.10766  0  1.032188  0  0  0.111004  0  1.030236  0  0.089251  0  0.091609  0.105244  0  1.033728  0
H  H41  1  0.77624866  0.47522859  0.63084315  1  0  0.099721  0  0.968266  0  0  0.107712  0  1.032193  0  0  0.111044  0  1.030245  0  0.08919  0  0.091633  0.105295  0  1.033732  0
H  H42  1  0.27624342  0.02477362  0.13084417  1  0  0.099681  0  0.96824  0  0  0.107691  0  1.032154  0  0  0.111032  0  1.030206  0  0.089287  0  0.091625  0.105274  0  1.033694  0
H  H43  1  0.22375090  0.52477271  0.36915611  1  0  0.099757  0  0.968333  0  0  0.107741  0  1.032251  0  0  0.111073  0  1.030311  0  0.08918  0  0.091655  0.105325  0  1.033789  0
H  H44  1  0.88994461  0.12334275  0.81390672  1  0  0.067568  0  0.996342  0  0  0.071605  0  1.074237  0  0  0.074655  0  1.071277  0  0.092339  0  0.089093  0.0694  0  1.076426  0
H  H45  1  0.61005535  0.62334183  0.68609650  1  0  0.067631  0  0.996323  0  0  0.07162  0  1.074252  0  0  0.074671  0  1.071295  0  0.092761  0  0.089101  0.069415  0  1.076443  0
H  H46  1  0.11005132  0.87665855  0.18609763  1  0  0.067643  0  0.996325  0  0  0.071642  0  1.074253  0  0  0.074693  0  1.071294  0  0.092308  0  0.089122  0.069441  0  1.076437  0
H  H47  1  0.38994179  0.37665790  0.31390408  1  0  0.067613  0  0.996296  0  0  0.071601  0  1.074247  0  0  0.074651  0  1.071287  0  0.092739  0  0.089093  0.069397  0  1.076433  0
C  C48  1  0.19953274  0.58641203  0.98692188  1  0  0.237775  0  3.7027  0  0  0.240419  0  3.944739  0  0  0.248841  0  3.965394  0  0.509648  0  0.120674  0.234858  0  3.930678  0
C  C49  1  0.30047008  0.08641451  0.51308076  1  0  0.237591  0  3.702767  0  0  0.240273  0  3.944755  0  0  0.248692  0  3.965414  0  0.50964  0  0.120593  0.234716  0  3.930693  0
C  C50  1  0.80046318  0.41358458  0.01307936  1  0  0.237727  0  3.702695  0  0  0.240384  0  3.94472  0  0  0.248802  0  3.965383  0  0.50986  0  0.120669  0.234822  0  3.93066  0
C  C51  1  0.69953556  0.91358679  0.48692141  1  0  0.23769  0  3.702682  0  0  0.24037  0  3.944687  0  0  0.248788  0  3.965351  0  0.509845  0  0.120667  0.23481  0  3.930624  0
C  C52  1  0.20615911  0.52230692  0.07540766  1  0  -0.156012  0  3.687261  0  0  -0.170796  0  3.926832  0  0  -0.179155  0  3.948961  0  0.015281  0  -0.083308  -0.165402  0  3.911977  0
C  C53  1  0.29383886  0.02230549  0.42459219  1  0  -0.155995  0  3.687409  0  0  -0.170762  0  3.926944  0  0  -0.179121  0  3.949073  0  0.015301  0  -0.083318  -0.165368  0  3.912086  0
C  C54  1  0.79383561  0.47769516  0.92458881  1  0  -0.155996  0  3.68738  0  0  -0.17077  0  3.926942  0  0  -0.179127  0  3.949071  0  0.015295  0  -0.083314  -0.165377  0  3.912087  0
C  C55  1  0.70616678  0.97769503  0.57540921  1  0  -0.156033  0  3.687388  0  0  -0.17082  0  3.926959  0  0  -0.179178  0  3.949083  0  0.015328  0  -0.083349  -0.165425  0  3.912102  0
C  C56  1  0.27833282  0.42408491  0.07474271  1  0  -0.003733  0  3.742966  0  0  -0.019639  0  3.988134  0  0  -0.016049  0  4.007574  0  -0.094756  0  -0.072258  -0.021633  0  3.974725  0
C  C57  1  0.22166514  0.92408946  0.42526102  1  0  -0.00375  0  3.743156  0  0  -0.019673  0  3.98831  0  0  -0.016085  0  4.007754  0  -0.094828  0  -0.072234  -0.021663  0  3.974898  0
C  C58  1  0.72166310  0.57591013  0.92525698  1  0  -0.00373  0  3.743284  0  0  -0.019665  0  3.988473  0  0  -0.01607  0  4.007898  0  -0.095111  0  -0.07227  -0.021658  0  3.975058  0
C  C59  1  0.77833686  0.07591261  0.57473925  1  0  -0.003717  0  3.743154  0  0  -0.01963  0  3.988301  0  0  -0.01605  0  4.007767  0  -0.094833  0  -0.072236  -0.021623  0  3.974888  0
C  C60  1  0.34301455  0.39258626  0.98592194  1  0  -0.127085  0  3.750821  0  0  -0.139117  0  4.000233  0  0  -0.147623  0  4.023514  0  -0.027753  0  -0.092358  -0.133647  0  3.984628  0
C  C61  1  0.15698706  0.89258612  0.51408058  1  0  -0.126954  0  3.750717  0  0  -0.139005  0  4.000157  0  0  -0.147509  0  4.023436  0  -0.027704  0  -0.092312  -0.133536  0  3.98455  0
C  C62  1  0.65698502  0.60741582  0.01407499  1  0  -0.127092  0  3.750778  0  0  -0.139115  0  4.000203  0  0  -0.147621  0  4.023487  0  -0.027759  0  -0.092339  -0.133646  0  3.984596  0
C  C63  1  0.84301615  0.10741439  0.48592058  1  0  -0.127016  0  3.750692  0  0  -0.139053  0  4.000105  0  0  -0.14756  0  4.023382  0  -0.027644  0  -0.092321  -0.133584  0  3.9845  0
C  C64  1  0.33487667  0.46147441  0.90163233  1  0  0.128449  0  3.729289  0  0  0.098029  0  3.983242  0  0  0.105396  0  4.003472  0  0.428733  0  0.039754  0.093288  0  3.969467  0
C  C65  1  0.16512736  0.96147740  0.59837276  1  0  0.128336  0  3.729371  0  0  0.097881  0  3.983348  0  0  0.105248  0  4.003578  0  0.428602  0  0.03963  0.093139  0  3.96957  0
C  C66  1  0.66512411  0.53852454  0.09837015  1  0  0.128465  0  3.729268  0  0  0.098038  0  3.983225  0  0  0.105405  0  4.003456  0  0.42885  0  0.039733  0.093295  0  3.969452  0
C  C67  1  0.83487585  0.03852311  0.40162840  1  0  0.128446  0  3.729338  0  0  0.097993  0  3.98329  0  0  0.105361  0  4.003519  0  0.42867  0  0.039699  0.09325  0  3.969516  0
C  C68  1  0.10738159  0.68808568  0.98306882  1  0  -0.030591  0  3.702306  0  0  -0.093869  0  3.953732  0  0  -0.09008  0  3.965034  0  0.301142  0  -0.060681  -0.096308  0  3.945611  0
C  C69  1  0.39262366  0.18808659  0.51693172  1  0  -0.030641  0  3.702377  0  0  -0.093891  0  3.953762  0  0  -0.090107  0  3.965083  0  0.301056  0  -0.06068  -0.096322  0  3.945606  0
C  C70  1  0.89261555  0.31191327  0.01693021  1  0  -0.030615  0  3.702444  0  0  -0.093852  0  3.953834  0  0  -0.090063  0  3.965134  0  0.300957  0  -0.060597  -0.096282  0  3.945692  0
C  C71  1  0.60738077  0.81191314  0.48306956  1  0  -0.030548  0  3.702289  0  0  -0.093858  0  3.953765  0  0  -0.090068  0  3.965076  0  0.300978  0  -0.060636  -0.096298  0  3.945643  0
C  C72  1  0.18284057  0.95187145  0.87508766  1  0  0.005497  0  3.689704  0  0  -0.030245  0  3.945738  0  0  -0.026983  0  3.963485  0  0.536288  0  0.027068  -0.032311  0  3.933751  0
C  C73  1  0.31716104  0.45187315  0.62491020  1  0  0.005627  0  3.689737  0  0  -0.03013  0  3.945753  0  0  -0.026872  0  3.963502  0  0.536071  0  0.027079  -0.032196  0  3.933764  0
C  C74  1  0.81715657  0.04812437  0.12491448  1  0  0.005552  0  3.689632  0  0  -0.030209  0  3.945631  0  0  -0.026942  0  3.963374  0  0.536361  0  0.027095  -0.032275  0  3.933644  0
C  C75  1  0.68283853  0.54812893  0.37508750  1  0  0.005586  0  3.689709  0  0  -0.030204  0  3.945731  0  0  -0.026946  0  3.963481  0  0.535556  0  0.027086  -0.032269  0  3.933744  0
C  C76  1  0.09974391  0.86400670  0.90658854  1  0  0.196435  0  3.823752  0  0  0.196468  0  4.069088  0  0  0.201818  0  4.091937  0  0.372635  0  0.09598  0.192447  0  4.053712  0
C  C77  1  0.40026498  0.36400684  0.59341079  1  0  0.196327  0  3.823654  0  0  0.19633  0  4.069025  0  0  0.201683  0  4.09188  0  0.373026  0  0.095948  0.192307  0  4.053644  0
C  C78  1  0.90025566  0.13599303  0.09341227  1  0  0.196388  0  3.823605  0  0  0.196465  0  4.068917  0  0  0.201816  0  4.091765  0  0.372671  0  0.096018  0.192445  0  4.053542  0
C  C79  1  0.59973702  0.63599055  0.40658715  1  0  0.196367  0  3.823776  0  0  0.196388  0  4.069162  0  0  0.20174  0  4.092022  0  0.372618  0  0.095948  0.192367  0  4.053784  0
C  C80  1  0.93077117  0.87274486  0.90359733  1  0  -0.113685  0  3.689692  0  0  -0.138898  0  3.938899  0  0  -0.139662  0  3.957189  0  0.012184  0  -0.084623  -0.138156  0  3.926572  0
C  C81  1  0.56923486  0.37274734  0.59640414  1  0  -0.113573  0  3.689844  0  0  -0.138758  0  3.938983  0  0  -0.139538  0  3.957265  0  0.012213  0  -0.084576  -0.138014  0  3.926654  0
C  C82  1  0.06922718  0.12725721  0.09640259  1  0  -0.113703  0  3.689727  0  0  -0.138945  0  3.938936  0  0  -0.139708  0  3.95723  0  0.012037  0  -0.08466  -0.138204  0  3.926607  0
C  C83  1  0.43076714  0.62725473  0.40359691  1  0  -0.113579  0  3.689704  0  0  -0.138805  0  3.938879  0  0  -0.139586  0  3.957159  0  0.012384  0  -0.084612  -0.138063  0  3.926551  0
C  C84  1  0.85410178  0.96604232  0.87074616  1  0  -0.085273  0  3.768614  0  0  -0.095035  0  4.017195  0  0  -0.098788  0  4.0382  0  -0.084054  0  -0.088899  -0.09261  0  4.003015  0
C  C85  1  0.64590183  0.46604089  0.62925741  1  0  -0.085459  0  3.768743  0  0  -0.095194  0  4.017277  0  0  -0.098936  0  4.038304  0  -0.084194  0  -0.088935  -0.092768  0  4.003092  0
C  C86  1  0.14589658  0.03396132  0.12926075  1  0  -0.085247  0  3.768425  0  0  -0.09498  0  4.016986  0  0  -0.098725  0  4.037981  0  -0.083869  0  -0.088827  -0.092561  0  4.002821  0
C  C87  1  0.35409531  0.53396040  0.37073851  1  0  -0.085492  0  3.768625  0  0  -0.095206  0  4.01718  0  0  -0.098953  0  4.038202  0  -0.084129  0  -0.088903  -0.092779  0  4.002997  0
C  C88  1  0.94474020  0.04866225  0.84000189  1  0  0.071542  0  3.745916  0  0  0.034037  0  4.007836  0  0  0.039026  0  4.027241  0  0.463285  0  0.011922  0.030808  0  3.994552  0
C  C89  1  0.55526219  0.54866446  0.66000079  1  0  0.07148  0  3.74572  0  0  0.034045  0  4.007574  0  0  0.039032  0  4.026975  0  0.462826  0  0.011834  0.030816  0  3.994293  0
C  C90  1  0.05526058  0.95133592  0.16000060  1  0  0.071407  0  3.745684  0  0  0.03393  0  4.007594  0  0  0.038916  0  4.027001  0  0.463272  0  0.011784  0.030701  0  3.994312  0
C  C91  1  0.44473495  0.45133605  0.34000057  1  0  0.07166  0  3.74597  0  0  0.034168  0  4.00783  0  0  0.039159  0  4.027229  0  0.463287  0  0.011945  0.030937  0  3.994549  0
Br  Br92  1  0.96047084  0.67805833  0.66348201  1  0  -0.448758  0  0.933604  0  0  -0.391575  0  1.215238  0  0  -0.408123  0  1.196259  0  -0.488133  0  -0.249555  -0.380417  0  1.228216  0
Br  Br93  1  0.53953155  0.17806394  0.83652300  1  0  -0.448754  0  0.933596  0  0  -0.391593  0  1.215218  0  0  -0.408138  0  1.196244  0  -0.488164  0  -0.249554  -0.380433  0  1.228188  0
Br  Br94  1  0.03952873  0.32194140  0.33651725  1  0  -0.448764  0  0.933616  0  0  -0.391582  0  1.215245  0  0  -0.408128  0  1.196268  0  -0.48814  0  -0.249548  -0.380423  0  1.228221  0
Br  Br95  1  0.46046923  0.82194205  0.16348104  1  0  -0.448763  0  0.933635  0  0  -0.39159  0  1.215264  0  0  -0.408138  0  1.196289  0  -0.488174  0  -0.249556  -0.380432  0  1.22824  0
Br  Br96  1  0.50401166  0.80360497  0.77468563  1  0  -0.457794  0  0.989006  0  0  -0.405358  0  1.288334  0  0  -0.422776  0  1.268437  0  -0.492605  0  -0.230637  -0.393427  0  1.301903  0
Br  Br97  1  0.99600408  0.30361527  0.72530201  1  0  -0.457792  0  0.989021  0  0  -0.405368  0  1.288375  0  0  -0.422785  0  1.268475  0  -0.492622  0  -0.230658  -0.393435  0  1.301944  0
Br  Br98  1  0.49599155  0.19639320  0.22531631  1  0  -0.457818  0  0.988998  0  0  -0.405392  0  1.288348  0  0  -0.422809  0  1.268445  0  -0.492574  0  -0.230652  -0.393461  0  1.301919  0
Br  Br99  1  0.00400884  0.69639385  0.27468454  1  0  -0.457801  0  0.989002  0  0  -0.405366  0  1.288329  0  0  -0.422785  0  1.268432  0  -0.492594  0  -0.230644  -0.393434  0  1.301897  0
N  N100  1  0.26453134  0.55602588  0.90191621  1  0  -0.330002  0  3.207408  0  0  -0.257482  0  3.463065  0  0  -0.278319  0  3.483913  0  -1.208271  0  -0.307268  -0.243416  0  3.448621  0
N  N101  1  0.23547270  0.05602914  0.59808655  1  0  -0.329873  0  3.207534  0  0  -0.257387  0  3.463215  0  0  -0.278224  0  3.484063  0  -1.208206  0  -0.307151  -0.243321  0  3.448768  0
N  N102  1  0.73546580  0.44397229  0.09808360  1  0  -0.33004  0  3.207564  0  0  -0.257556  0  3.463257  0  0  -0.278395  0  3.484107  0  -1.20833  0  -0.3073  -0.24349  0  3.448814  0
N  N103  1  0.76453173  0.94397216  0.40191473  1  0  -0.329994  0  3.207614  0  0  -0.257482  0  3.463274  0  0  -0.278321  0  3.484123  0  -1.208261  0  -0.307245  -0.243415  0  3.448829  0
N  N104  1  0.18579439  0.77307418  0.93520330  1  0  -0.400253  0  3.370065  0  0  -0.337114  0  3.606467  0  0  -0.357852  0  3.621383  0  -1.19069  0  -0.443962  -0.322389  0  3.595577  0
N  N105  1  0.31420843  0.27307666  0.56479624  1  0  -0.40019  0  3.370001  0  0  -0.337091  0  3.606511  0  0  -0.357815  0  3.621385  0  -1.190792  0  -0.443999  -0.322388  0  3.595683  0
N  N106  1  0.81420154  0.22692398  0.06479717  1  0  -0.400331  0  3.370036  0  0  -0.337217  0  3.606499  0  0  -0.357949  0  3.621402  0  -1.190705  0  -0.444141  -0.322494  0  3.595612  0
N  N107  1  0.68579235  0.72692307  0.43520236  1  0  -0.400159  0  3.369991  0  0  -0.337077  0  3.606524  0  0  -0.357793  0  3.621373  0  -1.190653  0  -0.443965  -0.322363  0  3.595659  0
N  N108  1  0.10608133  0.04023681  0.84192805  1  0  -0.278999  0  3.339986  0  0  -0.195221  0  3.598353  0  0  -0.21437  0  3.622153  0  -1.217762  0  -0.317254  -0.182099  0  3.581705  0
N  N109  1  0.39391785  0.54023590  0.65807114  1  0  -0.279023  0  3.340022  0  0  -0.195274  0  3.598391  0  0  -0.214423  0  3.622192  0  -1.217775  0  -0.317196  -0.182152  0  3.581742  0
N  N110  1  0.89391581  0.95976448  0.15807254  1  0  -0.279005  0  3.339999  0  0  -0.195244  0  3.598377  0  0  -0.214391  0  3.62217  0  -1.217842  0  -0.31725  -0.182123  0  3.581729  0
N  N111  1  0.60607322  0.45975993  0.34192498  1  0  -0.279224  0  3.340159  0  0  -0.19537  0  3.598446  0  0  -0.214517  0  3.622239  0  -1.21772  0  -0.31736  -0.182248  0  3.581798  0
