# generated using pymatgen
data_CaH8C14SO6
_symmetry_space_group_name_H-M   'P 1'
_cell_length_a   5.30148971
_cell_length_b   12.20945254
_cell_length_c   22.96975160
_cell_angle_alpha   108.30188823
_cell_angle_beta   90.00092456
_cell_angle_gamma   89.99925329
_symmetry_Int_Tables_number   1
_chemical_formula_structural   CaH8C14SO6
_chemical_formula_sum   'Ca4 H32 C56 S4 O24'
_cell_volume   1411.58345702
_cell_formula_units_Z   4
loop_
 _symmetry_equiv_pos_site_id
 _symmetry_equiv_pos_as_xyz
  1  'x, y, z'
loop_
 _atom_site_type_symbol
 _atom_site_label
 _atom_site_symmetry_multiplicity
 _atom_site_fract_x
 _atom_site_fract_y
 _atom_site_fract_z
 _atom_site_occupancy
 _atom_site_pbe_bader_charge
 _atom_site_pbe_bader_spin_density
 _atom_site_pbe_cm5_charge
 _atom_site_pbe_ddec_charge
 _atom_site_pbe_ddec_spin_density
 _atom_site_pbe_ddec_sum_bond_order
 _atom_site_pbe_magmom
Ca  Ca0  1  0.80500425  0.61771516  0.72154894  1  1.655392  0  0.918777  1.434121  0  1.464302  0
Ca  Ca1  1  0.30498054  0.88228666  0.77844934  1  1.655466  0  0.918723  1.434045  0  1.46441  0
Ca  Ca2  1  0.19500246  0.38228338  0.27844272  1  1.655524  0  0.918735  1.434213  0  1.464219  0
Ca  Ca3  1  0.69503183  0.11770827  0.22155276  1  1.655431  0  0.918721  1.434139  0  1.464307  0
H  H4  1  0.30467970  0.13071585  0.59219487  1  0.104958  0  0.108801  0.114854  0  0.994451  0
H  H5  1  0.13239628  0.20812181  0.37780373  1  0.113318  0  0.117595  0.116705  0  1.017939  0
H  H6  1  0.66594389  0.44359032  0.56282991  1  0.131337  0  0.114765  0.11782  0  1.042208  0
H  H7  1  0.66125113  0.33717643  0.67698041  1  0.136646  0  0.115855  0.117243  0  1.040811  0
H  H8  1  0.53465302  0.18553103  0.72235927  1  0.094255  0  0.103393  0.105594  0  1.030727  0
H  H9  1  0.19190192  0.98602254  0.64388255  1  0.093415  0  0.110748  0.112239  0  1.013918  0
H  H10  1  0.28443842  0.21791621  0.48224074  1  0.113558  0  0.110517  0.117189  0  0.988668  0
H  H11  1  0.50293137  0.42387605  0.45733547  1  0.09034  0  0.107086  0.104004  0  1.053515  0
H  H12  1  0.80474909  0.36927683  0.90780789  1  0.104668  0  0.108829  0.114879  0  0.994356  0
H  H13  1  0.63244490  0.29187956  0.12220504  1  0.1132  0  0.117615  0.116656  0  1.018004  0
H  H14  1  0.16602138  0.05639871  0.93717278  1  0.131276  0  0.114833  0.118017  0  1.04195  0
H  H15  1  0.16127717  0.16283769  0.82302642  1  0.136948  0  0.115874  0.117343  0  1.040617  0
H  H16  1  0.03469172  0.31448504  0.77764565  1  0.09414  0  0.103355  0.105534  0  1.030694  0
H  H17  1  0.69196341  0.51397376  0.85612117  1  0.093178  0  0.110707  0.112102  0  1.013958  0
H  H18  1  0.78446446  0.28210394  0.01776793  1  0.113279  0  0.110587  0.117233  0  0.988479  0
H  H19  1  0.00301088  0.07610183  0.04266456  1  0.090017  0  0.106999  0.10391  0  1.05332  0
H  H20  1  0.69531758  0.86928283  0.40780990  1  0.1041  0  0.108769  0.114812  0  0.994495  0
H  H21  1  0.86761043  0.79188216  0.62219649  1  0.112941  0  0.117607  0.116762  0  1.017913  0
H  H22  1  0.33402886  0.55639692  0.43716551  1  0.130924  0  0.114735  0.117845  0  1.042131  0
H  H23  1  0.33873106  0.66281684  0.32302191  1  0.136613  0  0.115828  0.117212  0  1.040844  0
H  H24  1  0.46534991  0.81446808  0.27764862  1  0.09419  0  0.103391  0.105579  0  1.030664  0
H  H25  1  0.80811045  0.01398187  0.35612690  1  0.093339  0  0.110782  0.112216  0  1.014032  0
H  H26  1  0.71555885  0.78208327  0.51775759  1  0.113557  0  0.110537  0.11724  0  0.988685  0
H  H27  1  0.49707723  0.57612035  0.54265897  1  0.090338  0  0.107065  0.103945  0  1.053379  0
H  H28  1  0.19525007  0.63073395  0.09218667  1  0.104844  0  0.108818  0.114885  0  0.994415  0
H  H29  1  0.36756747  0.70810861  0.87779705  1  0.113159  0  0.117623  0.116696  0  1.017973  0
H  H30  1  0.83397967  0.94360255  0.06282622  1  0.131232  0  0.114833  0.118012  0  1.041977  0
H  H31  1  0.83872010  0.83716842  0.17697103  1  0.137136  0  0.11588  0.117269  0  1.040698  0
H  H32  1  0.96530744  0.68551560  0.22234890  1  0.094447  0  0.103329  0.105403  0  1.030645  0
H  H33  1  0.30803387  0.48602448  0.14386826  1  0.093112  0  0.110755  0.112178  0  1.013936  0
H  H34  1  0.21552527  0.71790451  0.98223419  1  0.113279  0  0.110623  0.117295  0  0.98849  0
H  H35  1  0.99699205  0.92388830  0.95733342  1  0.089965  0  0.106974  0.103898  0  1.053219  0
C  C36  1  0.79129655  0.99283337  0.72010671  1  1.637116  0  0.232997  0.624994  0  4.219459  0
C  C37  1  0.70414616  0.30917863  0.34967502  1  1.585272  0  0.244582  0.623473  0  4.191553  0
C  C38  1  0.98060118  0.33124883  0.52803814  1  -0.244239  0  -0.018581  -0.082919  0  3.977484  0
C  C39  1  0.98687259  0.24103600  0.63096130  1  -0.30366  0  -0.024832  -0.100742  0  3.995294  0
C  C40  1  0.13443974  0.14131582  0.62000421  1  0.003105  0  -0.082158  -0.089773  0  3.997098  0
C  C41  1  0.02723414  0.25693350  0.41833851  1  0.01342  0  -0.06728  -0.076033  0  3.925419  0
C  C42  1  0.80714961  0.31577251  0.41169744  1  0.003854  0  -0.00107  -0.028949  0  3.934083  0
C  C43  1  0.76368930  0.39139493  0.52201391  1  0.010246  0  -0.079852  -0.083244  0  3.980488  0
C  C44  1  0.77150215  0.25848770  0.66786544  1  -0.028466  0  -0.075214  -0.077845  0  3.96936  0
C  C45  1  0.70243139  0.17378648  0.69369598  1  0.052474  0  -0.080156  -0.09525  0  3.9395  0
C  C46  1  0.06954899  0.05995786  0.64841400  1  0.026412  0  -0.078884  -0.098379  0  3.959072  0
C  C47  1  0.11303475  0.26284753  0.47668904  1  -0.042163  0  -0.078228  -0.089165  0  3.971957  0
C  C48  1  0.85293181  0.07574612  0.68529029  1  -0.104421  0  0.0005  -0.009617  0  3.920792  0
C  C49  1  0.67571578  0.38135347  0.46367091  1  -0.066047  0  -0.079273  -0.086607  0  3.957444  0
C  C50  1  0.29135629  0.50718363  0.77990310  1  1.63768  0  0.232912  0.6247  0  4.219342  0
C  C51  1  0.20421694  0.19081736  0.15033372  1  1.584977  0  0.244446  0.623008  0  4.192121  0
C  C52  1  0.48063250  0.16875825  0.97197014  1  -0.243638  0  -0.018501  -0.082829  0  3.977738  0
C  C53  1  0.48691605  0.25897431  0.86904612  1  -0.303756  0  -0.024873  -0.100695  0  3.995357  0
C  C54  1  0.63448664  0.35868138  0.88000163  1  0.002646  0  -0.082236  -0.089919  0  3.997072  0
C  C55  1  0.52727559  0.24306758  0.08166507  1  0.010472  0  -0.067295  -0.07602  0  3.925094  0
C  C56  1  0.30720276  0.18422174  0.08830793  1  0.006326  0  -0.001207  -0.029091  0  3.933766  0
C  C57  1  0.26375876  0.10860147  0.97799007  1  0.010916  0  -0.080144  -0.083803  0  3.981109  0
C  C58  1  0.27153964  0.24152465  0.83214414  1  -0.028377  0  -0.075233  -0.077992  0  3.969309  0
C  C59  1  0.20246432  0.32622312  0.80630996  1  0.051457  0  -0.080264  -0.09536  0  3.939214  0
C  C60  1  0.56960444  0.44004640  0.85159211  1  0.027601  0  -0.078894  -0.098253  0  3.958678  0
C  C61  1  0.61305883  0.23716288  0.02331735  1  -0.04242  0  -0.078222  -0.089064  0  3.971825  0
C  C62  1  0.35297552  0.42426297  0.81471652  1  -0.103996  0  0.000769  -0.009243  0  3.920235  0
C  C63  1  0.17578972  0.11863316  0.03633040  1  -0.066093  0  -0.079051  -0.086255  0  3.957252  0
C  C64  1  0.20870638  0.00717516  0.27990807  1  1.638198  0  0.232953  0.624928  0  4.21921  0
C  C65  1  0.29585866  0.69081943  0.65032530  1  1.585492  0  0.244619  0.623381  0  4.191781  0
C  C66  1  0.01939043  0.66873903  0.47196172  1  -0.244361  0  -0.018608  -0.082859  0  3.977768  0
C  C67  1  0.01311714  0.75896452  0.36904459  1  -0.304084  0  -0.024834  -0.1006  0  3.995423  0
C  C68  1  0.86556131  0.85868053  0.38000200  1  0.003882  0  -0.082221  -0.089953  0  3.997297  0
C  C69  1  0.97277068  0.74306124  0.58165614  1  0.013665  0  -0.067311  -0.076187  0  3.925551  0
C  C70  1  0.19284578  0.68422241  0.58829855  1  0.004237  0  -0.001171  -0.028928  0  3.934078  0
C  C71  1  0.23629289  0.60859231  0.47798151  1  0.011017  0  -0.079861  -0.083294  0  3.980856  0
C  C72  1  0.22848947  0.74151018  0.33213966  1  -0.028466  0  -0.075196  -0.077824  0  3.969252  0
C  C73  1  0.29757154  0.82621454  0.30631346  1  0.052091  0  -0.080188  -0.095339  0  3.93924  0
C  C74  1  0.93045395  0.94005078  0.35159556  1  0.026859  0  -0.078889  -0.09835  0  3.958888  0
C  C75  1  0.88696630  0.73714395  0.52330650  1  -0.042217  0  -0.078207  -0.089239  0  3.972177  0
C  C76  1  0.14707490  0.92425840  0.31472004  1  -0.104015  0  0.000628  -0.009283  0  3.920396  0
C  C77  1  0.32427018  0.61864035  0.53632318  1  -0.066525  0  -0.079211  -0.086508  0  3.957436  0
C  C78  1  0.70863721  0.49281946  0.22009090  1  1.637302  0  0.233031  0.624814  0  4.219196  0
C  C79  1  0.79580863  0.80917677  0.84966871  1  1.585895  0  0.24441  0.623019  0  4.191863  0
C  C80  1  0.51935346  0.83124842  0.02803131  1  -0.244258  0  -0.01856  -0.082862  0  3.97764  0
C  C81  1  0.51307934  0.74103992  0.13095501  1  -0.303736  0  -0.024769  -0.100417  0  3.995342  0
C  C82  1  0.36550686  0.64132866  0.11999372  1  0.002432  0  -0.082213  -0.090038  0  3.99694  0
C  C83  1  0.47272546  0.75692722  0.91833614  1  0.010936  0  -0.067328  -0.076121  0  3.925417  0
C  C84  1  0.69280018  0.81576908  0.91169494  1  0.006202  0  -0.001075  -0.028933  0  3.933775  0
C  C85  1  0.73624417  0.89140163  0.02201004  1  0.011389  0  -0.080089  -0.083688  0  3.980817  0
C  C86  1  0.72845009  0.75848410  0.16785409  1  -0.029016  0  -0.075223  -0.07791  0  3.969281  0
C  C87  1  0.79752918  0.67377943  0.19368615  1  0.051681  0  -0.080326  -0.095354  0  3.938887  0
C  C88  1  0.43038718  0.55995485  0.14840078  1  0.027356  0  -0.078963  -0.098313  0  3.958293  0
C  C89  1  0.38692713  0.76283955  0.97668398  1  -0.042503  0  -0.078243  -0.089085  0  3.971921  0
C  C90  1  0.64701987  0.57573773  0.18527848  1  -0.103186  0  0.000782  -0.009249  0  3.919998  0
C  C91  1  0.82421133  0.88136140  0.96366903  1  -0.06574  0  -0.079086  -0.086361  0  3.95728  0
S  S92  1  0.09531099  0.35304789  0.60353082  1  2.414919  0  0.502266  1.004911  0  5.668362  0
S  S93  1  0.59533363  0.14694829  0.89647257  1  2.414345  0  0.502484  1.005041  0  5.667926  0
S  S94  1  0.90467120  0.64694476  0.39646705  1  2.414664  0  0.502276  1.004786  0  5.66805  0
S  S95  1  0.40465799  0.85306145  0.10352666  1  2.414457  0  0.50242  1.004925  0  5.668279  0
O  O96  1  0.97712516  0.45956047  0.64157213  1  -1.347133  0  -0.340688  -0.578038  0  2.29621  0
O  O97  1  0.85449518  0.27425694  0.30341902  1  -1.238728  0  -0.403056  -0.700637  0  2.26392  0
O  O98  1  0.36768159  0.34556566  0.60004406  1  -1.254442  0  -0.290734  -0.512476  0  2.24593  0
O  O99  1  0.56893311  0.95269151  0.71593895  1  -1.213696  0  -0.367999  -0.638815  0  2.175961  0
O  O100  1  0.96891984  0.97260782  0.75218210  1  -1.228086  0  -0.377513  -0.638928  0  2.23011  0
O  O101  1  0.47616631  0.33546140  0.34612370  1  -1.208948  0  -0.342307  -0.605731  0  2.215875  0
O  O102  1  0.47710672  0.04044723  0.85843448  1  -1.346957  0  -0.340728  -0.577957  0  2.29604  0
O  O103  1  0.35456454  0.22574672  0.19658249  1  -1.237848  0  -0.403068  -0.700489  0  2.264225  0
O  O104  1  0.86770991  0.15441400  0.89995808  1  -1.254286  0  -0.290818  -0.512636  0  2.246053  0
O  O105  1  0.06899191  0.54732147  0.78406567  1  -1.213545  0  -0.367983  -0.638811  0  2.175833  0
O  O106  1  0.46899164  0.52741436  0.74783378  1  -1.228444  0  -0.377562  -0.63879  0  2.230069  0
O  O107  1  0.97625708  0.16453326  0.15388359  1  -1.209167  0  -0.342094  -0.605351  0  2.216193  0
O  O108  1  0.02287967  0.54043439  0.35842341  1  -1.347223  0  -0.340676  -0.578037  0  2.295812  0
O  O109  1  0.14552662  0.72574806  0.69657653  1  -1.239075  0  -0.403021  -0.700562  0  2.264315  0
O  O110  1  0.63230815  0.65441537  0.39994924  1  -1.254182  0  -0.290698  -0.512413  0  2.246215  0
O  O111  1  0.43106606  0.04732635  0.28407619  1  -1.213857  0  -0.36804  -0.638918  0  2.175708  0
O  O112  1  0.03107933  0.02739819  0.24783279  1  -1.228843  0  -0.377481  -0.638909  0  2.230135  0
O  O113  1  0.52381965  0.66452990  0.65387050  1  -1.208795  0  -0.34234  -0.60565  0  2.216048  0
O  O114  1  0.52290565  0.95956214  0.14156820  1  -1.347195  0  -0.340784  -0.57806  0  2.29589  0
O  O115  1  0.64547046  0.77425356  0.80341550  1  -1.239097  0  -0.403023  -0.700463  0  2.26408  0
O  O116  1  0.13229491  0.84560588  0.10004728  1  -1.254385  0  -0.290772  -0.51259  0  2.246309  0
O  O117  1  0.93099782  0.45266693  0.21591986  1  -1.213527  0  -0.368107  -0.63893  0  2.175617  0
O  O118  1  0.53102072  0.47260165  0.25216802  1  -1.228537  0  -0.377491  -0.638757  0  2.230123  0
O  O119  1  0.02377226  0.83546137  0.84612240  1  -1.209134  0  -0.342135  -0.605376  0  2.216066  0
