# generated using pymatgen
data_NaH9C4N8O3
_symmetry_space_group_name_H-M   'P 1'
_cell_length_a   6.30177097
_cell_length_b   6.61705166
_cell_length_c   12.49663600
_cell_angle_alpha   80.32624451
_cell_angle_beta   83.83972339
_cell_angle_gamma   69.88421006
_symmetry_Int_Tables_number   1
_chemical_formula_structural   NaH9C4N8O3
_chemical_formula_sum   'Na2 H18 C8 N16 O6'
_cell_volume   481.66327159
_cell_formula_units_Z   2
loop_
 _symmetry_equiv_pos_site_id
 _symmetry_equiv_pos_as_xyz
  1  'x, y, z'
loop_
 _atom_site_type_symbol
 _atom_site_label
 _atom_site_symmetry_multiplicity
 _atom_site_fract_x
 _atom_site_fract_y
 _atom_site_fract_z
 _atom_site_occupancy
 _atom_site_hle17_bader_spin_density
 _atom_site_hle17_ddec_charge
 _atom_site_hle17_ddec_spin_density
 _atom_site_hle17_ddec_sum_bond_order
 _atom_site_hle17_magmom
 _atom_site_hse06_10hf_bader_spin_density
 _atom_site_hse06_10hf_ddec_charge
 _atom_site_hse06_10hf_ddec_spin_density
 _atom_site_hse06_10hf_ddec_sum_bond_order
 _atom_site_hse06_10hf_magmom
 _atom_site_hse06_bader_spin_density
 _atom_site_hse06_ddec_charge
 _atom_site_hse06_ddec_spin_density
 _atom_site_hse06_ddec_sum_bond_order
 _atom_site_hse06_magmom
 _atom_site_pbe_bader_spin_density
 _atom_site_pbe_cm5_charge
 _atom_site_pbe_ddec_charge
 _atom_site_pbe_ddec_spin_density
 _atom_site_pbe_ddec_sum_bond_order
 _atom_site_pbe_magmom
Na  Na0  1  0.27505541  0.45005830  0.94344750  1  0  0.879089  0  0.402958  0  0  0.82236  0  0.573702  0  0  0.832985  0  0.550685  0  0  0.654678  0.814696  0  0.589929  0
Na  Na1  1  0.72495145  0.54993939  0.05655284  1  0  0.879075  0  0.402975  0  0  0.822328  0  0.573738  0  0  0.832956  0  0.550723  0  0  0.654662  0.814667  0  0.589963  0
H  H2  1  0.19548783  0.37457931  0.17226210  1  0  0.39841  0  0.911808  0  0  0.358383  0  0.99148  0  0  0.369334  0  0.975578  0  0  0.286543  0.350726  0  1.002568  0
H  H3  1  0.80452323  0.62542005  0.82773945  1  0  0.398387  0  0.911846  0  0  0.358345  0  0.99154  0  0  0.369295  0  0.975636  0  0  0.286495  0.350688  0  1.002625  0
H  H4  1  0.11395300  0.19963886  0.13836427  1  0  0.396084  0  0.906198  0  0  0.360991  0  0.980468  0  0  0.370395  0  0.966586  0  0  0.295153  0.354346  0  0.990284  0
H  H5  1  0.88604977  0.80037020  0.86163369  1  0  0.396026  0  0.906264  0  0  0.36093  0  0.980553  0  0  0.370335  0  0.966665  0  0  0.295117  0.354285  0  0.990369  0
H  H6  1  0.25518895  0.79971527  0.08407357  1  0  0.391994  0  0.917077  0  0  0.356805  0  0.988622  0  0  0.366524  0  0.974358  0  0  0.291384  0.349977  0  0.998638  0
H  H7  1  0.74481255  0.20028399  0.91592694  1  0  0.392006  0  0.91706  0  0  0.356818  0  0.988602  0  0  0.366537  0  0.974338  0  0  0.29141  0.349988  0  0.99862  0
H  H8  1  0.33332289  0.87498508  0.96524000  1  0  0.424845  0  0.877741  0  0  0.397997  0  0.934557  0  0  0.408558  0  0.919001  0  0  0.286374  0.390533  0  0.945536  0
H  H9  1  0.66668237  0.12501259  0.03476043  1  0  0.424826  0  0.877767  0  0  0.39798  0  0.93458  0  0  0.408542  0  0.919024  0  0  0.286366  0.390516  0  0.945559  0
H  H10  1  0.48429728  0.07887942  0.83519230  1  0  0.399608  0  0.890433  0  0  0.36361  0  0.977623  0  0  0.372672  0  0.964038  0  0  0.302883  0.357217  0  0.9872  0
H  H11  1  0.51570042  0.92112143  0.16480508  1  0  0.399584  0  0.890407  0  0  0.363587  0  0.977642  0  0  0.372647  0  0.964058  0  0  0.302814  0.357192  0  0.987221  0
H  H12  1  0.22901575  0.11514211  0.82360955  1  0  0.384048  0  0.941812  0  0  0.3405  0  1.025579  0  0  0.351868  0  1.009416  0  0  0.283652  0.332577  0  1.036795  0
H  H13  1  0.77098259  0.88485710  0.17639275  1  0  0.383977  0  0.941917  0  0  0.340423  0  1.025694  0  0  0.351791  0  1.009531  0  0  0.283617  0.3325  0  1.03691  0
H  H14  1  0.31731707  0.74088404  0.51309935  1  0  0.278084  0  0.969544  0  0  0.242781  0  1.051958  0  0  0.253271  0  1.044369  0  0  0.307965  0.235484  0  1.057173  0
H  H15  1  0.68267494  0.25911511  0.48690492  1  0  0.278158  0  0.96947  0  0  0.242832  0  1.051891  0  0  0.253315  0  1.044325  0  0  0.307968  0.235534  0  1.057109  0
H  H16  1  0.93207101  0.70983321  0.59548845  1  0  0.120959  0  0.965787  0  0  0.121718  0  1.040685  0  0  0.125987  0  1.037425  0  0  0.112029  0.118692  0  1.043024  0
H  H17  1  0.06792507  0.29016762  0.40450663  1  0  0.120941  0  0.96577  0  0  0.121687  0  1.040692  0  0  0.125958  0  1.03743  0  0  0.112011  0.118662  0  1.043031  0
H  H18  1  0.64002173  0.78892710  0.39721654  1  0  0.112663  0  0.961895  0  0  0.115521  0  1.035685  0  0  0.119372  0  1.032439  0  0  0.110068  0.112794  0  1.037962  0
H  H19  1  0.35997044  0.21108022  0.60277818  1  0  0.112509  0  0.961922  0  0  0.115364  0  1.035749  0  0  0.119214  0  1.032503  0  0  0.109979  0.112634  0  1.038034  0
C  C20  1  0.97023718  0.81597102  0.37300154  1  0  0.299704  0  3.803174  0  0  0.275053  0  4.079663  0  0  0.283676  0  4.096984  0  0  0.209975  0.269339  0  4.067837  0
C  C21  1  0.02975432  0.18402486  0.62699744  1  0  0.299343  0  3.8035  0  0  0.274835  0  4.079783  0  0  0.283458  0  4.097105  0  0  0.209896  0.269121  0  4.067953  0
C  C22  1  0.78606445  0.72571105  0.55100896  1  0  -0.14222  0  3.722006  0  0  -0.163988  0  3.99074  0  0  -0.167896  0  4.007254  0  0  -0.084234  -0.161417  0  3.979576  0
C  C23  1  0.21392434  0.27428806  0.44899309  1  0  -0.142156  0  3.721916  0  0  -0.163954  0  3.990618  0  0  -0.167865  0  4.007137  0  0  -0.084192  -0.161386  0  3.979453  0
C  C24  1  0.78582709  0.77488279  0.44165724  1  0  -0.107819  0  3.693931  0  0  -0.134745  0  3.96134  0  0  -0.1346  0  3.976734  0  0  -0.07656  -0.134751  0  3.95081  0
C  C25  1  0.21416010  0.22511631  0.55834410  1  0  -0.107523  0  3.693885  0  0  -0.134463  0  3.961161  0  0  -0.134319  0  3.976564  0  0  -0.076463  -0.134464  0  3.950626  0
C  C26  1  0.60153186  0.68530251  0.61914968  1  0  0.334383  0  3.777104  0  0  0.300628  0  4.04992  0  0  0.314157  0  4.064579  0  0  0.229756  0.291705  0  4.039922  0
C  C27  1  0.39845994  0.31470154  0.38084936  1  0  0.33426  0  3.777316  0  0  0.30057  0  4.050033  0  0  0.314101  0  4.064687  0  0  0.22975  0.291649  0  4.040034  0
N  N28  1  0.60509493  0.62734438  0.72750203  1  0  -0.294344  0  2.964991  0  0  -0.254599  0  3.238462  0  0  -0.267879  0  3.251456  0  0  -0.190879  -0.24577  0  3.229747  0
N  N29  1  0.39490542  0.37265813  0.27249826  1  0  -0.294334  0  2.964987  0  0  -0.25464  0  3.238459  0  0  -0.26792  0  3.251454  0  0  -0.190912  -0.245811  0  3.229746  0
N  N30  1  0.39894180  0.69177077  0.58922590  1  0  -0.239343  0  3.393794  0  0  -0.175249  0  3.64165  0  0  -0.191367  0  3.656851  0  0  -0.244777  -0.164622  0  3.631455  0
N  N31  1  0.60105061  0.30823165  0.41077565  1  0  -0.239448  0  3.393745  0  0  -0.175328  0  3.641576  0  0  -0.191446  0  3.656764  0  0  -0.244809  -0.1647  0  3.631384  0
N  N32  1  0.95940424  0.87031117  0.26433130  1  0  -0.282622  0  3.043749  0  0  -0.239799  0  3.298694  0  0  -0.251865  0  3.31335  0  0  -0.194663  -0.23161  0  3.288722  0
N  N33  1  0.04059663  0.12968972  0.73566510  1  0  -0.282587  0  3.043742  0  0  -0.239831  0  3.298667  0  0  -0.251894  0  3.31332  0  0  -0.194699  -0.231642  0  3.288694  0
N  N34  1  0.17176212  0.81415300  0.40292208  1  0  -0.300359  0  3.058796  0  0  -0.25637  0  3.33173  0  0  -0.26911  0  3.347979  0  0  -0.206159  -0.24767  0  3.32053  0
N  N35  1  0.82822882  0.18584451  0.59707760  1  0  -0.300163  0  3.058785  0  0  -0.256198  0  3.331651  0  0  -0.268943  0  3.347902  0  0  -0.206077  -0.2475  0  3.320453  0
N  N36  1  0.28257092  0.86844953  0.31153821  1  0  -0.102845  0  3.000929  0  0  -0.098813  0  3.298449  0  0  -0.099378  0  3.311803  0  0  -0.098663  -0.098058  0  3.289149  0
N  N37  1  0.71742744  0.13154968  0.68846488  1  0  -0.102931  0  3.000814  0  0  -0.09892  0  3.298378  0  0  -0.099483  0  3.31173  0  0  -0.09876  -0.098163  0  3.289076  0
N  N38  1  0.40451240  0.59961475  0.76053767  1  0  -0.115723  0  3.020968  0  0  -0.105744  0  3.335432  0  0  -0.105352  0  3.344867  0  0  -0.130022  -0.105861  0  3.329162  0
N  N39  1  0.59549388  0.40038456  0.23946256  1  0  -0.115663  0  3.020846  0  0  -0.10567  0  3.335309  0  0  -0.105277  0  3.344745  0  0  -0.129947  -0.105785  0  3.329039  0
N  N40  1  0.15420621  0.90252151  0.22825416  1  0  -0.144938  0  3.100607  0  0  -0.100493  0  3.370152  0  0  -0.10575  0  3.383305  0  0  -0.087465  -0.09669  0  3.361201  0
N  N41  1  0.84579890  0.09748105  0.77174505  1  0  -0.144825  0  3.100495  0  0  -0.100372  0  3.370046  0  0  -0.105628  0  3.383198  0  0  -0.087368  -0.096569  0  3.361094  0
N  N42  1  0.27865478  0.63829396  0.67803206  1  0  -0.049569  0  2.9221  0  0  -0.051786  0  3.218586  0  0  -0.050053  0  3.229359  0  0  -0.075466  -0.052724  0  3.211243  0
N  N43  1  0.72134790  0.36170204  0.32197027  1  0  -0.049536  0  2.92203  0  0  -0.051776  0  3.21852  0  0  -0.050041  0  3.229293  0  0  -0.075486  -0.052715  0  3.211179  0
O  O44  1  0.11121308  0.34984604  0.11554597  1  0  -0.887446  0  1.816558  0  0  -0.834284  0  1.999521  0  0  -0.850241  0  1.966399  0  0  -0.681613  -0.823009  0  2.02254  0
O  O45  1  0.88879939  0.65015824  0.88445266  1  0  -0.887395  0  1.816621  0  0  -0.834237  0  1.999635  0  0  -0.850194  0  1.96653  0  0  -0.681539  -0.822961  0  2.022655  0
O  O46  1  0.32204302  0.74429022  0.01563913  1  0  -0.901988  0  1.780299  0  0  -0.849796  0  1.949986  0  0  -0.866554  0  1.917901  0  0  -0.684057  -0.837993  0  1.972395  0
O  O47  1  0.67795848  0.25570904  0.98436138  1  0  -0.901987  0  1.780326  0  0  -0.849792  0  1.950005  0  0  -0.86655  0  1.917921  0  0  -0.684066  -0.837988  0  1.972417  0
O  O48  1  0.34135574  0.10357454  0.87833747  1  0  -0.850637  0  1.869243  0  0  -0.79064  0  2.05578  0  0  -0.80871  0  2.023837  0  0  -0.615872  -0.777872  0  2.077972  0
O  O49  1  0.65864591  0.89641982  0.12166347  1  0  -0.850559  0  1.869251  0  0  -0.790563  0  2.055818  0  0  -0.808632  0  2.023877  0  0  -0.615796  -0.777792  0  2.078009  0
