# generated using pymatgen
data_Zr3H14C26O21F
_symmetry_space_group_name_H-M   'P 1'
_cell_length_a   14.78533253
_cell_length_b   14.77243140
_cell_length_c   14.77894025
_cell_angle_alpha   60.09511643
_cell_angle_beta   60.05049535
_cell_angle_gamma   60.11824272
_symmetry_Int_Tables_number   1
_chemical_formula_structural   Zr3H14C26O21F
_chemical_formula_sum   'Zr6 H28 C52 O42 F2'
_cell_volume   2287.05040509
_cell_formula_units_Z   2
loop_
 _symmetry_equiv_pos_site_id
 _symmetry_equiv_pos_as_xyz
  1  'x, y, z'
loop_
 _atom_site_type_symbol
 _atom_site_label
 _atom_site_symmetry_multiplicity
 _atom_site_fract_x
 _atom_site_fract_y
 _atom_site_fract_z
 _atom_site_occupancy
 _atom_site_pbe_bader_charge
 _atom_site_pbe_bader_spin_density
 _atom_site_pbe_cm5_charge
 _atom_site_pbe_ddec_charge
 _atom_site_pbe_ddec_spin_density
 _atom_site_pbe_ddec_sum_bond_order
 _atom_site_pbe_magmom
Zr  Zr0  1  0.87965417  0.88336271  0.61971613  1  2.633631  0  1.634736  2.366352  0  2.772901  0
Zr  Zr1  1  0.12044259  0.11833748  0.38463269  1  2.632191  0  1.632492  2.36848  0  2.762659  0
Zr  Zr2  1  0.11864639  0.87936500  0.62385193  1  2.634008  0  1.635616  2.373942  0  2.746644  0
Zr  Zr3  1  0.88123490  0.12166910  0.38170233  1  2.637571  0  1.63821  2.371771  0  2.754571  0
Zr  Zr4  1  0.11937976  0.88153777  0.38331589  1  2.633956  0  1.633828  2.368124  0  2.768412  0
Zr  Zr5  1  0.88111785  0.11990345  0.62159894  1  2.636364  0  1.633205  2.368825  0  2.759386  0
H  H6  1  0.09370663  0.71810075  0.59460532  1  0.590407  0  0.331692  0.423883  0  0.856542  0
H  H7  1  0.09769341  0.09279728  0.22016418  1  0.626524  0  0.332186  0.423932  0  0.858599  0
H  H8  1  0.09434466  0.09372753  0.59821294  1  0.5988  0  0.333869  0.428331  0  0.848812  0
H  H9  1  0.71825032  0.09613175  0.59498185  1  0.612575  0  0.335242  0.429408  0  0.847294  0
H  H10  1  0.14453127  0.58677814  0.35792099  1  0.147177  0  0.11916  0.144495  0  0.974786  0
H  H11  1  0.83102826  0.44175175  0.61673188  1  0.095383  0  0.117947  0.143485  0  0.978615  0
H  H12  1  0.59070819  0.14053501  0.92129832  1  0.109171  0  0.117912  0.143187  0  0.978311  0
H  H13  1  0.41953266  0.85070039  0.09302358  1  0.117872  0  0.117887  0.142979  0  0.978336  0
H  H14  1  0.83818560  0.12547131  0.10725561  1  0.120083  0  0.119229  0.143083  0  0.976402  0
H  H15  1  0.13826218  0.84970432  0.92232308  1  0.107589  0  0.1208  0.146709  0  0.971285  0
H  H16  1  0.59185319  0.41912479  0.35324591  1  0.089506  0  0.119692  0.14557  0  0.972952  0
H  H17  1  0.41941227  0.59292773  0.64108091  1  0.115225  0  0.118947  0.144465  0  0.974867  0
H  H18  1  0.97398034  0.57821247  0.74512415  1  0.061968  0  0.095682  0.096816  0  1.059094  0
H  H19  1  0.96040917  0.41656775  0.75061238  1  0.080943  0  0.099695  0.097858  0  1.018194  0
H  H20  1  0.97739086  0.24126608  0.07978532  1  0.085776  0  0.096246  0.098907  0  1.05977  0
H  H21  1  0.96173935  0.24723069  0.91948171  1  0.092601  0  0.098348  0.096192  0  1.028592  0
H  H22  1  0.59412873  0.85036508  0.63915001  1  0.123547  0  0.117982  0.143208  0  0.978532  0
H  H23  1  0.42039741  0.13609405  0.35124143  1  0.127727  0  0.118328  0.143774  0  0.977121  0
H  H24  1  0.15569663  0.34879820  0.34692389  1  0.642653  0  0.311248  0.354377  0  0.965106  0
H  H25  1  0.82090931  0.67930957  0.62831817  1  0.63432  0  0.311589  0.353433  0  0.963435  0
H  H26  1  0.35366842  0.15013194  0.15969947  1  0.625972  0  0.310288  0.35334  0  0.96877  0
H  H27  1  0.65571076  0.84196178  0.85371017  1  0.62418  0  0.309841  0.353558  0  0.967451  0
H  H28  1  0.82865467  0.13650635  0.86818878  1  0.640179  0  0.310232  0.353463  0  0.967179  0
H  H29  1  0.15014908  0.84070105  0.15915118  1  0.62861  0  0.310361  0.353859  0  0.967278  0
H  H30  1  0.35284933  0.65585550  0.34331969  1  0.641329  0  0.309346  0.35229  0  0.969567  0
H  H31  1  0.65745251  0.35512842  0.65173136  1  0.645584  0  0.309757  0.352307  0  0.96925  0
H  H32  1  0.35625385  0.83715003  0.65224809  1  0.638464  0  0.310946  0.3535  0  0.965272  0
H  H33  1  0.65720161  0.15042963  0.33941763  1  0.634973  0  0.310603  0.353855  0  0.965425  0
C  C34  1  0.99291070  0.70361198  0.49301935  1  1.504102  0  0.237654  0.654166  0  4.071181  0
C  C35  1  0.31020400  0.99531185  0.20159102  1  1.487907  0  0.237771  0.655356  0  4.06993  0
C  C36  1  0.99428562  0.31192558  0.49618424  1  1.508143  0  0.239228  0.658774  0  4.065189  0
C  C37  1  0.69725087  0.99882582  0.81001150  1  1.503284  0  0.237604  0.65533  0  4.067827  0
C  C38  1  0.99386118  0.70085772  0.80832369  1  1.562487  0  0.245557  0.679872  0  4.071616  0
C  C39  1  0.69891699  0.99778773  0.49646499  1  1.503919  0  0.237918  0.656429  0  4.069223  0
C  C40  1  0.99961802  0.30591050  0.20157902  1  1.575702  0  0.244679  0.67826  0  4.074408  0
C  C41  1  0.31002198  0.99432146  0.49943552  1  1.503629  0  0.238158  0.656777  0  4.066314  0
C  C42  1  0.30849370  0.69807672  0.49951894  1  1.464286  0  0.238279  0.656727  0  4.066926  0
C  C43  1  0.99325249  0.99250467  0.81517695  1  1.511554  0  0.239262  0.656843  0  4.064939  0
C  C44  1  0.69916089  0.31047996  0.49814649  1  1.487398  0  0.237769  0.654003  0  4.068525  0
C  C45  1  0.99451689  0.99496437  0.20259340  1  1.514509  0  0.237355  0.654197  0  4.070627  0
C  C46  1  0.99055187  0.41743387  0.48802798  1  -0.038587  0  -0.029054  -0.165112  0  3.989989  0
C  C47  1  0.98707691  0.60873412  0.48917926  1  -0.027305  0  -0.029746  -0.16489  0  3.998039  0
C  C48  1  0.07925463  0.46044541  0.41156641  1  0.591099  0  0.088539  0.297621  0  4.067397  0
C  C49  1  0.89574897  0.56892835  0.56189943  1  0.546982  0  0.085083  0.287276  0  4.07615  0
C  C50  1  0.07575030  0.55515348  0.41435161  1  0.012179  0  -0.089556  -0.183125  0  3.931129  0
C  C51  1  0.89969408  0.47358124  0.56006163  1  0.017051  0  -0.092021  -0.191041  0  3.943199  0
C  C52  1  0.41060813  0.99625040  0.10256468  1  -0.077782  0  -0.030297  -0.165798  0  3.995451  0
C  C53  1  0.59929282  0.99535257  0.91143970  1  -0.030516  0  -0.030312  -0.164948  0  3.995635  0
C  C54  1  0.45961208  0.07947629  0.05368972  1  0.589077  0  0.085864  0.293661  0  4.070651  0
C  C55  1  0.55060175  0.91183610  0.96058225  1  0.531234  0  0.085297  0.292234  0  4.071585  0
C  C56  1  0.55322377  0.07703792  0.95899078  1  0.017122  0  -0.090885  -0.185648  0  3.938992  0
C  C57  1  0.45708044  0.91415013  0.05537892  1  0.070342  0  -0.091103  -0.185823  0  3.937638  0
C  C58  1  0.98767652  0.98945592  0.91924148  1  0.005664  0  -0.028221  -0.161911  0  3.990211  0
C  C59  1  0.99098552  0.98788405  0.10836460  1  -0.033183  0  -0.029591  -0.168258  0  3.994059  0
C  C60  1  0.90020006  0.06741646  0.97316596  1  0.49464  0  0.083999  0.285153  0  4.07858  0
C  C61  1  0.07600919  0.90710183  0.05706783  1  0.524037  0  0.087683  0.296131  0  4.066248  0
C  C62  1  0.90382111  0.06503855  0.06675677  1  0.09379  0  -0.09164  -0.189017  0  3.949197  0
C  C63  1  0.07261102  0.90993508  0.96304444  1  0.021597  0  -0.088226  -0.18119  0  3.929792  0
C  C64  1  0.41011613  0.60037557  0.49623451  1  0.023047  0  -0.030646  -0.166443  0  3.995484  0
C  C65  1  0.60063181  0.41140225  0.49841765  1  0.030138  0  -0.029676  -0.16366  0  3.993817  0
C  C66  1  0.45956327  0.55117953  0.41310455  1  0.533856  0  0.085178  0.292381  0  4.073716  0
C  C67  1  0.55178569  0.46111728  0.58099741  1  0.479426  0  0.085732  0.292413  0  4.069961  0
C  C68  1  0.55400085  0.45747073  0.41608978  1  0.032712  0  -0.090561  -0.18626  0  3.936691  0
C  C69  1  0.45733498  0.55481432  0.57803955  1  0.057505  0  -0.090315  -0.185033  0  3.934077  0
C  C70  1  0.99519589  0.59755158  0.90695314  1  0.076034  0  -0.015967  -0.174831  0  3.946311  0
C  C71  1  0.98578603  0.50427003  0.90944826  1  -0.018795  0  0.001333  0.073366  0  3.957105  0
C  C72  1  0.00763730  0.59134392  0.99665949  1  0.504866  0  0.103643  0.169008  0  4.075255  0
C  C73  1  0.97697163  0.50433399  0.81800879  1  -0.001781  0  -0.096374  -0.135701  0  3.978168  0
C  C74  1  0.96879472  0.41373513  0.82130742  1  -0.021689  0  -0.087392  -0.065492  0  4.012016  0
C  C75  1  0.99965132  0.40423230  0.09796702  1  0.029682  0  -0.01588  -0.176069  0  3.943607  0
C  C76  1  0.01005955  0.49536194  0.09130197  1  0.552385  0  0.103964  0.170262  0  4.075999  0
C  C77  1  0.98747609  0.40659028  0.00625625  1  0.007418  0  0.001134  0.073379  0  3.953023  0
C  C78  1  0.97916488  0.31474606  0.00641164  1  -0.032972  0  -0.095505  -0.134855  0  3.971413  0
C  C79  1  0.96965829  0.31832903  0.91638447  1  -0.070529  0  -0.087882  -0.066632  0  4.008246  0
C  C80  1  0.41221805  0.99113417  0.49765694  1  -0.026769  0  -0.029631  -0.166731  0  3.995444  0
C  C81  1  0.60172067  0.99598507  0.49333978  1  -0.04165  0  -0.030513  -0.167882  0  3.998884  0
C  C82  1  0.46228207  0.90830287  0.57989308  1  0.562934  0  0.086376  0.294008  0  4.07151  0
C  C83  1  0.55282237  0.07766281  0.40997285  1  0.538065  0  0.086216  0.294533  0  4.071585  0
C  C84  1  0.55616991  0.91273247  0.57597980  1  0.014548  0  -0.090687  -0.183743  0  3.936906  0
C  C85  1  0.45875527  0.07342430  0.41406182  1  0.041554  0  -0.09076  -0.184607  0  3.934861  0
O  O86  1  0.91667694  0.74294120  0.57223789  1  -1.189457  0  -0.35437  -0.63843  0  2.322929  0
O  O87  1  0.26833149  0.07334498  0.24243354  1  -1.180076  0  -0.354304  -0.63276  0  2.323078  0
O  O88  1  0.07549355  0.26656145  0.42296526  1  -1.193187  0  -0.354946  -0.634821  0  2.324375  0
O  O89  1  0.73692682  0.92302197  0.76701672  1  -1.187127  0  -0.354623  -0.631676  0  2.322449  0
O  O90  1  0.07188583  0.73835457  0.76934194  1  -1.164659  0  -0.350381  -0.611856  0  2.268893  0
O  O91  1  0.73863127  0.07672481  0.42044090  1  -1.178449  0  -0.352331  -0.632656  0  2.314684  0
O  O92  1  0.92143637  0.26743905  0.24343671  1  -1.172022  0  -0.35362  -0.612002  0  2.289993  0
O  O93  1  0.26738323  0.91832749  0.57851587  1  -1.191559  0  -0.352224  -0.632144  0  2.309701  0
O  O94  1  0.26612012  0.73789093  0.42315060  1  -1.17546  0  -0.355559  -0.63622  0  2.317187  0
O  O95  1  0.91775488  0.07215092  0.77222868  1  -1.186108  0  -0.354814  -0.63568  0  2.313436  0
O  O96  1  0.73928657  0.26833123  0.57674988  1  -1.182855  0  -0.354916  -0.634515  0  2.323372  0
O  O97  1  0.07484058  0.92074643  0.24069561  1  -1.194852  0  -0.353649  -0.632959  0  2.326983  0
O  O98  1  0.07180809  0.91982493  0.77121455  1  -1.181405  0  -0.350292  -0.607539  0  2.281263  0
O  O99  1  0.73926546  0.26838055  0.42331091  1  -1.186986  0  -0.351158  -0.60774  0  2.276018  0
O  O100  1  0.92152009  0.07383078  0.24051494  1  -1.196928  0  -0.352015  -0.614772  0  2.284066  0
O  O101  1  0.26591626  0.73800972  0.57661505  1  -1.179958  0  -0.351605  -0.610618  0  2.276331  0
O  O102  1  0.91652566  0.74244139  0.76898172  1  -1.170103  0  -0.350835  -0.615103  0  2.273965  0
O  O103  1  0.26721934  0.07174960  0.42530511  1  -1.191444  0  -0.356704  -0.616068  0  2.282155  0
O  O104  1  0.07722917  0.26671620  0.23954350  1  -1.162655  0  -0.347967  -0.614216  0  2.251444  0
O  O105  1  0.73847419  0.92364253  0.57384612  1  -1.18932  0  -0.357961  -0.617637  0  2.288884  0
O  O106  1  0.73765222  0.07548631  0.76828290  1  -1.188795  0  -0.354422  -0.615777  0  2.276789  0
O  O107  1  0.07256859  0.74061863  0.42156479  1  -1.188651  0  -0.35336  -0.611898  0  2.279988  0
O  O108  1  0.26789441  0.92045217  0.24175167  1  -1.182454  0  -0.355197  -0.616085  0  2.272601  0
O  O109  1  0.92072675  0.26878715  0.57478753  1  -1.188297  0  -0.354811  -0.616677  0  2.267824  0
O  O110  1  0.79850230  0.06928760  0.56824680  1  -1.233679  0  -0.697593  -1.070408  0  2.365653  0
O  O111  1  0.06738492  0.06689400  0.57157265  1  -1.225126  0  -0.693562  -1.067923  0  2.346514  0
O  O112  1  0.06869736  0.06762539  0.30043117  1  -1.255326  0  -0.696172  -1.070982  0  2.366149  0
O  O113  1  0.06596376  0.79837382  0.56955747  1  -1.217923  0  -0.6944  -1.069731  0  2.358932  0
O  O114  1  0.14889514  0.94980465  0.45431409  1  -1.194307  0  -0.793479  -1.147945  0  2.137279  0
O  O115  1  0.95057477  0.95226390  0.45134081  1  -1.200545  0  -0.793698  -1.14542  0  2.135642  0
O  O116  1  0.95168408  0.14904121  0.45293745  1  -1.199266  0  -0.793349  -1.145115  0  2.136398  0
O  O117  1  0.95016991  0.95118567  0.65061784  1  -1.199366  0  -0.793015  -1.146613  0  2.138815  0
O  O118  1  0.16849678  0.41320054  0.33771016  1  -1.149061  0  -0.353659  -0.432491  0  2.252357  0
O  O119  1  0.80544447  0.61826547  0.63402644  1  -1.144757  0  -0.354691  -0.435051  0  2.254696  0
O  O120  1  0.41989062  0.16160491  0.09382061  1  -1.124797  0  -0.355805  -0.434785  0  2.246139  0
O  O121  1  0.59003074  0.83000228  0.92013416  1  -1.124638  0  -0.35595  -0.434774  0  2.246554  0
O  O122  1  0.81419407  0.14533318  0.93705633  1  -1.14963  0  -0.35655  -0.437164  0  2.250036  0
O  O123  1  0.16138362  0.82844061  0.09352009  1  -1.140064  0  -0.354521  -0.434029  0  2.244133  0
O  O124  1  0.41936057  0.59029458  0.33121159  1  -1.149344  0  -0.356848  -0.436661  0  2.246897  0
O  O125  1  0.59207058  0.42177767  0.66291404  1  -1.1474  0  -0.357576  -0.437598  0  2.244842  0
O  O126  1  0.42306851  0.82566579  0.66247324  1  -1.144645  0  -0.354905  -0.433833  0  2.244807  0
O  O127  1  0.59235941  0.16006526  0.32713615  1  -1.143389  0  -0.355288  -0.435644  0  2.245139  0
F  F128  1  0.01819513  0.49821197  0.17687204  1  -0.614589  0  -0.084867  -0.103387  0  1.374452  0
F  F129  1  0.01375172  0.67813928  0.99942171  1  -0.610547  0  -0.083985  -0.101813  0  1.370239  0
