# generated using pymatgen
data_Zn3H10C6(NO)8
_symmetry_space_group_name_H-M   'P 1'
_cell_length_a   6.52219804
_cell_length_b   7.53429647
_cell_length_c   14.68107559
_cell_angle_alpha   89.99999924
_cell_angle_beta   90.00116621
_cell_angle_gamma   96.15406139
_symmetry_Int_Tables_number   1
_chemical_formula_structural   Zn3H10C6(NO)8
_chemical_formula_sum   'Zn6 H20 C12 N16 O16'
_cell_volume   717.27317028
_cell_formula_units_Z   2
loop_
 _symmetry_equiv_pos_site_id
 _symmetry_equiv_pos_as_xyz
  1  'x, y, z'
loop_
 _atom_site_type_symbol
 _atom_site_label
 _atom_site_symmetry_multiplicity
 _atom_site_fract_x
 _atom_site_fract_y
 _atom_site_fract_z
 _atom_site_occupancy
 _atom_site_pbe_bader_charge
 _atom_site_pbe_bader_spin_density
 _atom_site_pbe_cm5_charge
 _atom_site_pbe_ddec_charge
 _atom_site_pbe_ddec_spin_density
 _atom_site_pbe_ddec_sum_bond_order
 _atom_site_pbe_magmom
Zn  Zn0  1  0.23017734  0.44926651  0.21359268  1  1.271526  0  0.660135  0.90668  0  2.372499  0
Zn  Zn1  1  0.26982430  0.55098586  0.71360317  1  1.270404  0  0.660042  0.906114  0  2.373239  0
Zn  Zn2  1  0.76982727  0.55095774  0.78641543  1  1.270652  0  0.660167  0.906312  0  2.372728  0
Zn  Zn3  1  0.73018955  0.44928912  0.28641379  1  1.271355  0  0.660103  0.90669  0  2.372471  0
Zn  Zn4  1  0.49962832  0.00033944  0.50002823  1  1.357016  0  0.69559  0.894469  0  2.316303  0
Zn  Zn5  1  0.99976145  0.00024063  0.99997472  1  1.35664  0  0.695438  0.894432  0  2.316367  0
H  H6  1  0.95306685  0.21115547  0.24399318  1  0.634498  0  0.26494  0.326873  0  1.047064  0
H  H7  1  0.54692590  0.78909112  0.74406091  1  0.65101  0  0.26479  0.326396  0  1.047762  0
H  H8  1  0.04688476  0.78909939  0.75593182  1  0.650961  0  0.264798  0.326518  0  1.047605  0
H  H9  1  0.45309310  0.21115051  0.25599760  1  0.634462  0  0.264875  0.326803  0  1.047195  0
H  H10  1  0.27065148  0.45868814  0.40622515  1  0.123464  0  0.119436  0.158861  0  0.985007  0
H  H11  1  0.22962067  0.54148567  0.90619589  1  0.122772  0  0.11913  0.158401  0  0.98571  0
H  H12  1  0.72962324  0.54147518  0.59380816  1  0.122973  0  0.119127  0.158326  0  0.985914  0
H  H13  1  0.77062960  0.45869095  0.09380064  1  0.123792  0  0.119362  0.158743  0  0.985262  0
H  H14  1  0.06914219  0.58151401  0.43548534  1  0.151082  0  0.117658  0.161553  0  1.004651  0
H  H15  1  0.43114284  0.41857456  0.93546683  1  0.149502  0  0.117978  0.162409  0  1.003442  0
H  H16  1  0.93117172  0.41859331  0.56454389  1  0.149404  0  0.118034  0.162507  0  1.003538  0
H  H17  1  0.56907895  0.58149391  0.06454264  1  0.150778  0  0.117762  0.161766  0  1.00448  0
H  H18  1  0.11382382  0.11254330  0.50857003  1  0.62264  0  0.316124  0.404469  0  0.879911  0
H  H19  1  0.38241670  0.88308223  0.00873282  1  0.617004  0  0.316361  0.402868  0  0.87999  0
H  H20  1  0.88157301  0.88204076  0.49122214  1  0.611594  0  0.317058  0.403246  0  0.879401  0
H  H21  1  0.61466359  0.11359480  0.99139653  1  0.622947  0  0.316151  0.403995  0  0.880174  0
H  H22  1  0.17536304  0.08884854  0.61206059  1  0.653938  0  0.286997  0.341418  0  1.017628  0
H  H23  1  0.32482025  0.91191477  0.11206227  1  0.655111  0  0.287173  0.341397  0  1.017697  0
H  H24  1  0.82490694  0.91207020  0.38793730  1  0.654332  0  0.287048  0.34117  0  1.017893  0
H  H25  1  0.67529882  0.08868338  0.88793767  1  0.654413  0  0.286932  0.341449  0  1.017572  0
C  C26  1  0.30709449  0.72828697  0.36153235  1  0.979279  0  0.229875  0.341784  0  3.998147  0
C  C27  1  0.19303100  0.27190102  0.86155940  1  0.972989  0  0.230076  0.341633  0  3.998747  0
C  C28  1  0.69305933  0.27189082  0.63843897  1  0.973038  0  0.230119  0.341782  0  3.998427  0
C  C29  1  0.80705269  0.72829266  0.13847187  1  0.979493  0  0.229865  0.341862  0  3.998068  0
C  C30  1  0.23917951  0.59105458  0.43073143  1  -0.064747  0  -0.154195  -0.41008  0  3.915298  0
C  C31  1  0.26107165  0.40914868  0.93074936  1  -0.056445  0  -0.154786  -0.411157  0  3.915391  0
C  C32  1  0.76110896  0.40914613  0.56925965  1  -0.056566  0  -0.154849  -0.411289  0  3.915927  0
C  C33  1  0.73913254  0.59103987  0.06927782  1  -0.065013  0  -0.154355  -0.410497  0  3.915499  0
C  C34  1  0.32168917  0.61308959  0.52695897  1  1.573804  0  0.220156  0.66216  0  4.113786  0
C  C35  1  0.17884232  0.38718803  0.02701900  1  1.574494  0  0.220532  0.663507  0  4.113737  0
C  C36  1  0.67893990  0.38722648  0.47298171  1  1.575029  0  0.220707  0.663679  0  4.113761  0
C  C37  1  0.82154609  0.61305289  0.97302521  1  1.574288  0  0.220038  0.662194  0  4.113488  0
N  N38  1  0.29213467  0.69617824  0.27158794  1  -0.738883  0  -0.240714  -0.296019  0  3.50088  0
N  N39  1  0.20783392  0.30410109  0.77162530  1  -0.739163  0  -0.240603  -0.295976  0  3.5022  0
N  N40  1  0.70785423  0.30408069  0.72837385  1  -0.738969  0  -0.240595  -0.296197  0  3.502078  0
N  N41  1  0.79212862  0.69620584  0.22842028  1  -0.739209  0  -0.240627  -0.295975  0  3.500737  0
N  N42  1  0.35091193  0.85267454  0.22959120  1  -0.150124  0  -0.075454  -0.046621  0  3.319326  0
N  N43  1  0.14899915  0.14766986  0.72958937  1  -0.151262  0  -0.074748  -0.045874  0  3.318905  0
N  N44  1  0.64902535  0.14763902  0.77039920  1  -0.151337  0  -0.074974  -0.046041  0  3.319397  0
N  N45  1  0.85091195  0.85271839  0.27040716  1  -0.149789  0  -0.075382  -0.046431  0  3.318965  0
N  N46  1  0.40065814  0.97477976  0.29117540  1  -0.11573  0  -0.06552  -0.020684  0  3.275298  0
N  N47  1  0.09934466  0.02548104  0.79114329  1  -0.114781  0  -0.066317  -0.021441  0  3.273622  0
N  N48  1  0.59938386  0.02546190  0.70883884  1  -0.11459  0  -0.066114  -0.021213  0  3.273913  0
N  N49  1  0.90063643  0.97480189  0.20881305  1  -0.115044  0  -0.065736  -0.021053  0  3.27518  0
N  N50  1  0.37484497  0.90085356  0.37476660  1  -0.742935  0  -0.226888  -0.27278  0  3.406128  0
N  N51  1  0.12529763  0.09931718  0.87475986  1  -0.742024  0  -0.226558  -0.272003  0  3.405833  0
N  N52  1  0.62534629  0.09930427  0.62522448  1  -0.742727  0  -0.226537  -0.271912  0  3.405556  0
N  N53  1  0.87480171  0.90085384  0.12522646  1  -0.743635  0  -0.226795  -0.272614  0  3.405864  0
O  O54  1  0.98116318  0.33412191  0.26805758  1  -1.25564  0  -0.600553  -0.854103  0  2.227953  0
O  O55  1  0.51881957  0.66610610  0.76809312  1  -1.271544  0  -0.600504  -0.853535  0  2.228884  0
O  O56  1  0.01879921  0.66609559  0.73192464  1  -1.271579  0  -0.600415  -0.853572  0  2.228912  0
O  O57  1  0.48117545  0.33412747  0.23194564  1  -1.255573  0  -0.600518  -0.854133  0  2.228198  0
O  O58  1  0.44330814  0.74455724  0.55305279  1  -1.187596  0  -0.307585  -0.550165  0  2.346514  0
O  O59  1  0.05776882  0.25550256  0.05325105  1  -1.187627  0  -0.30736  -0.549787  0  2.346904  0
O  O60  1  0.55801898  0.25548508  0.44668218  1  -1.188499  0  -0.30727  -0.54955  0  2.346618  0
O  O61  1  0.94306915  0.74458964  0.94690896  1  -1.187718  0  -0.307525  -0.549963  0  2.34622  0
O  O62  1  0.25493057  0.48485485  0.58043100  1  -1.174245  0  -0.321514  -0.553005  0  2.300724  0
O  O63  1  0.24531901  0.51572555  0.08039064  1  -1.174527  0  -0.321661  -0.554316  0  2.300529  0
O  O64  1  0.74534367  0.51580896  0.41962070  1  -1.174296  0  -0.321889  -0.554555  0  2.301004  0
O  O65  1  0.75487092  0.48473659  0.91959840  1  -1.17435  0  -0.321322  -0.552979  0  2.301059  0
O  O66  1  0.18915646  0.04021888  0.54909999  1  -1.258813  0  -0.572298  -0.748291  0  2.162758  0
O  O67  1  0.31193418  0.95979154  0.04886591  1  -1.254059  0  -0.570303  -0.745518  0  2.160488  0
O  O68  1  0.81228236  0.95978359  0.45118740  1  -1.247903  0  -0.570496  -0.745621  0  2.159688  0
O  O69  1  0.68888510  0.04023523  0.95095353  1  -1.259736  0  -0.571617  -0.747514  0  2.162109  0
