# generated using pymatgen
data_CdH18C26(NO3)2
_symmetry_space_group_name_H-M   'P 1'
_cell_length_a   7.15374220
_cell_length_b   11.50539724
_cell_length_c   14.16771676
_cell_angle_alpha   113.96071294
_cell_angle_beta   95.80336404
_cell_angle_gamma   89.99659821
_symmetry_Int_Tables_number   1
_chemical_formula_structural   CdH18C26(NO3)2
_chemical_formula_sum   'Cd2 H36 C52 N4 O12'
_cell_volume   1059.06749546
_cell_formula_units_Z   2
loop_
 _symmetry_equiv_pos_site_id
 _symmetry_equiv_pos_as_xyz
  1  'x, y, z'
loop_
 _atom_site_type_symbol
 _atom_site_label
 _atom_site_symmetry_multiplicity
 _atom_site_fract_x
 _atom_site_fract_y
 _atom_site_fract_z
 _atom_site_occupancy
 _atom_site_hle17_bader_spin_density
 _atom_site_hle17_ddec_charge
 _atom_site_hle17_ddec_spin_density
 _atom_site_hle17_ddec_sum_bond_order
 _atom_site_hle17_magmom
 _atom_site_hse06_10hf_bader_charge
 _atom_site_hse06_10hf_bader_spin_density
 _atom_site_hse06_10hf_ddec_charge
 _atom_site_hse06_10hf_ddec_spin_density
 _atom_site_hse06_10hf_ddec_sum_bond_order
 _atom_site_hse06_10hf_magmom
 _atom_site_hse06_bader_spin_density
 _atom_site_hse06_ddec_charge
 _atom_site_hse06_ddec_spin_density
 _atom_site_hse06_ddec_sum_bond_order
 _atom_site_hse06_magmom
 _atom_site_pbe_bader_spin_density
 _atom_site_pbe_cm5_charge
 _atom_site_pbe_ddec_charge
 _atom_site_pbe_ddec_spin_density
 _atom_site_pbe_ddec_sum_bond_order
 _atom_site_pbe_magmom
Cd  Cd0  1  0.24983840  0.39490796  0.00004341  1  0  1.167423  0  1.69834  0  1.352798  0  0.98123  0  2.150626  0  0  1.037904  0  2.096081  0  0  0.784242  0.940774  0  2.188018  0
Cd  Cd1  1  0.75016603  0.60509494  0.99995630  1  0  1.167469  0  1.698262  0  1.352724  0  0.981259  0  2.150558  0  0  1.037935  0  2.096008  0  0  0.784283  0.940801  0  2.187948  0
H  H2  1  0.14035841  0.42365863  0.23102457  1  0  0.08863  0  0.954933  0  0.161801  0  0.092901  0  1.025657  0  0  0.0956  0  1.023314  0  0  0.117177  0.090877  0  1.027439  0
H  H3  1  0.35916282  0.19290407  0.76907002  1  0  0.089588  0  0.953781  0  0.137046  0  0.092919  0  1.025435  0  0  0.095744  0  1.02294  0  0  0.117252  0.090823  0  1.0273  0
H  H4  1  0.85963036  0.57634052  0.76897016  1  0  0.088605  0  0.954931  0  0.161827  0  0.092922  0  1.025603  0  0  0.095616  0  1.023265  0  0  0.11718  0.090897  0  1.027385  0
H  H5  1  0.64083727  0.80709694  0.23092811  1  0  0.089579  0  0.95379  0  0.137872  0  0.092919  0  1.025433  0  0  0.095745  0  1.022935  0  0  0.117237  0.090824  0  1.027299  0
H  H6  1  0.11242025  0.29401234  0.33612673  1  0  0.106388  0  0.959877  0  0.097902  0  0.115958  0  1.018098  0  0  0.11767  0  1.020073  0  0  0.106277  0.114732  0  1.016839  0
H  H7  1  0.38755660  0.95816220  0.66395690  1  0  0.105382  0  0.961716  0  0.097283  0  0.11548  0  1.019279  0  0  0.117204  0  1.021235  0  0  0.105904  0.11425  0  1.018017  0
H  H8  1  0.88757415  0.70598774  0.66387076  1  0  0.106387  0  0.959779  0  0.097906  0  0.115965  0  1.018006  0  0  0.117676  0  1.019979  0  0  0.106267  0.114737  0  1.016748  0
H  H9  1  0.61243921  0.04183788  0.33604067  1  0  0.105391  0  0.961645  0  0.097025  0  0.115493  0  1.0192  0  0  0.117218  0  1.021155  0  0  0.105914  0.114264  0  1.01794  0
H  H10  1  0.15851272  0.05951687  0.25219245  1  0  0.088969  0  0.969778  0  0.073361  0  0.099447  0  1.035088  0  0  0.101662  0  1.033962  0  0  0.101599  0.097802  0  1.035941  0
H  H11  1  0.34178376  0.80755538  0.74790783  1  0  0.089505  0  0.969033  0  0.101275  0  0.099633  0  1.034772  0  0  0.10199  0  1.033454  0  0  0.101606  0.097933  0  1.035703  0
H  H12  1  0.84148310  0.94048320  0.74780441  1  0  0.088976  0  0.969663  0  0.07325  0  0.099445  0  1.034993  0  0  0.101661  0  1.033866  0  0  0.101587  0.097792  0  1.035847  0
H  H13  1  0.65821505  0.19244754  0.25209156  1  0  0.089472  0  0.968977  0  0.101262  0  0.099596  0  1.034747  0  0  0.101947  0  1.033432  0  0  0.101604  0.097896  0  1.035679  0
H  H14  1  0.21214350  0.86526809  0.08884775  1  0  0.110086  0  0.954883  0  0.095564  0  0.121896  0  1.014404  0  0  0.124537  0  1.0136  0  0  0.106529  0.119887  0  1.015205  0
H  H15  1  0.28823830  0.77649595  0.91093231  1  0  0.10952  0  0.956333  0  0.110007  0  0.121455  0  1.01566  0  0  0.124079  0  1.014873  0  0  0.10655  0.119456  0  1.016448  0
H  H16  1  0.78785390  0.13473388  0.91114912  1  0  0.110021  0  0.955008  0  0.095482  0  0.121833  0  1.01453  0  0  0.124474  0  1.013729  0  0  0.106526  0.119824  0  1.015334  0
H  H17  1  0.71176041  0.22350602  0.08906746  1  0  0.109488  0  0.956336  0  0.109988  0  0.121416  0  1.01568  0  0  0.124049  0  1.01488  0  0  0.106542  0.119418  0  1.016468  0
H  H18  1  0.48934073  0.51658579  0.27095165  1  0  0.099447  0  0.921714  0  0.116266  0  0.109059  0  0.988376  0  0  0.110948  0  0.986564  0  0  0.112239  0.107672  0  0.989859  0
H  H19  1  0.01079110  0.24552008  0.72907395  1  0  0.099394  0  0.921848  0  0.107323  0  0.108945  0  0.988514  0  0  0.110846  0  0.986684  0  0  0.112264  0.107556  0  0.990009  0
H  H20  1  0.51066219  0.48341617  0.72904836  1  0  0.099449  0  0.921667  0  0.116264  0  0.109088  0  0.988324  0  0  0.110943  0  0.986552  0  0  0.112247  0.107699  0  0.989809  0
H  H21  1  0.98921582  0.75448091  0.27093093  1  0  0.099417  0  0.921763  0  0.107346  0  0.108963  0  0.988455  0  0  0.110862  0  0.986626  0  0  0.112265  0.107576  0  0.989951  0
H  H22  1  0.60451958  0.36947980  0.22156586  1  0  0.067257  0  0.960707  0  0.020877  0  0.076129  0  1.032862  0  0  0.077858  0  1.031075  0  0  0.100745  0.074925  0  1.034217  0
H  H23  1  0.89521481  0.14801571  0.77850806  1  0  0.066494  0  0.960565  0  0.048972  0  0.075653  0  1.032327  0  0  0.077449  0  1.030467  0  0  0.100457  0.074399  0  1.033726  0
H  H24  1  0.39547759  0.63052027  0.77843320  1  0  0.067201  0  0.960675  0  0.02087  0  0.076091  0  1.032839  0  0  0.077818  0  1.03105  0  0  0.100728  0.074887  0  1.034192  0
H  H25  1  0.10479087  0.85198719  0.22149666  1  0  0.066546  0  0.960537  0  0.048688  0  0.075724  0  1.032282  0  0  0.077513  0  1.03043  0  0  0.100475  0.074471  0  1.033681  0
H  H26  1  0.52911880  0.39269982  0.37409362  1  0  0.099958  0  0.977253  0  0.037018  0  0.110791  0  1.040895  0  0  0.113734  0  1.040401  0  0  0.09887  0.108601  0  1.041577  0
H  H27  1  0.97098740  0.01849606  0.62577546  1  0  0.100257  0  0.977351  0  0.07086  0  0.110872  0  1.041291  0  0  0.113816  0  1.040771  0  0  0.098804  0.108713  0  1.041907  0
H  H28  1  0.47089208  0.60729639  0.62590638  1  0  0.099884  0  0.977375  0  0.036863  0  0.110743  0  1.040989  0  0  0.113686  0  1.040494  0  0  0.098844  0.108548  0  1.041672  0
H  H29  1  0.02900974  0.98150592  0.37422987  1  0  0.100227  0  0.977336  0  0.070865  0  0.110837  0  1.041282  0  0  0.113781  0  1.040762  0  0  0.098794  0.108669  0  1.041907  0
H  H30  1  0.09163235  0.62446656  0.37640968  1  0  0.109911  0  0.964448  0  0.099833  0  0.115035  0  1.035819  0  0  0.119614  0  1.031952  0  0  0.103513  0.11177  0  1.038607  0
H  H31  1  0.40847316  0.24813445  0.62365777  1  0  0.109758  0  0.963836  0  0.089192  0  0.114853  0  1.035276  0  0  0.119344  0  1.031532  0  0  0.103347  0.111634  0  1.037987  0
H  H32  1  0.90838027  0.37553441  0.62359270  1  0  0.109853  0  0.964483  0  0.099905  0  0.114984  0  1.035887  0  0  0.119563  0  1.032019  0  0  0.10349  0.111718  0  1.038674  0
H  H33  1  0.59152692  0.75186847  0.37634593  1  0  0.10975  0  0.963934  0  0.089195  0  0.114811  0  1.035422  0  0  0.119297  0  1.031684  0  0  0.103337  0.111597  0  1.038128  0
H  H34  1  0.60124999  0.31884874  0.51468518  1  0  0.089677  0  0.960249  0  0.048866  0  0.100965  0  1.019764  0  0  0.103613  0  1.01892  0  0  0.096907  0.098995  0  1.020586  0
H  H35  1  0.89872207  0.80411121  0.48516297  1  0  0.089717  0  0.95892  0  0.059615  0  0.100993  0  1.018574  0  0  0.103598  0  1.017766  0  0  0.096863  0.09907  0  1.019362  0
H  H36  1  0.39876632  0.68114459  0.48531350  1  0  0.08963  0  0.960176  0  0.048839  0  0.100943  0  1.019684  0  0  0.10359  0  1.018841  0  0  0.096898  0.098974  0  1.020506  0
H  H37  1  0.10127818  0.19589361  0.51484066  1  0  0.089687  0  0.958969  0  0.059577  0  0.101018  0  1.01858  0  0  0.10361  0  1.017784  0  0  0.096894  0.099095  0  1.019368  0
C  C38  1  0.16020274  0.32136786  0.19785070  1  0  0.141152  0  3.684351  0  0.532507  0  0.110376  0  3.93975  0  0  0.117669  0  3.957035  0  0  0.05624  0.105668  0  3.927913  0
C  C39  1  0.33954863  0.12378012  0.80226249  1  0  0.140661  0  3.683796  0  0.544883  0  0.110515  0  3.939224  0  0  0.117733  0  3.956532  0  0  0.056125  0.105852  0  3.92737  0
C  C40  1  0.83978761  0.67863414  0.80214647  1  0  0.141226  0  3.684333  0  0.532856  0  0.110409  0  3.939759  0  0  0.117705  0  3.957041  0  0  0.056244  0.105702  0  3.927919  0
C  C41  1  0.66045003  0.87622089  0.19773626  1  0  0.140637  0  3.684029  0  0.54409  0  0.110486  0  3.939437  0  0  0.117704  0  3.95675  0  0  0.056143  0.105821  0  3.927588  0
C  C42  1  0.14427906  0.24807798  0.25589964  1  0  -0.122935  0  3.734836  0  -0.046067  0  -0.132155  0  3.982581  0  0  -0.139417  0  4.005325  0  0  -0.086263  -0.127392  0  3.967087  0
C  C43  1  0.35586221  0.99245336  0.74420806  1  0  -0.122095  0  3.735435  0  -0.056888  0  -0.131823  0  3.982701  0  0  -0.139113  0  4.005538  0  0  -0.086314  -0.127045  0  3.967164  0
C  C44  1  0.85571122  0.75192307  0.74409722  1  0  -0.122925  0  3.734658  0  -0.046077  0  -0.132158  0  3.982436  0  0  -0.139415  0  4.005176  0  0  -0.086253  -0.127396  0  3.966938  0
C  C45  1  0.64413490  0.00754576  0.25578997  1  0  -0.122101  0  3.735459  0  -0.056779  0  -0.131824  0  3.98273  0  0  -0.139113  0  4.005564  0  0  -0.086314  -0.127047  0  3.967199  0
C  C46  1  0.16876558  0.11868685  0.20903511  1  0  -0.051712  0  3.711633  0  -0.028059  0  -0.074377  0  3.956654  0  0  -0.072468  0  3.976009  0  0  -0.067779  -0.075288  0  3.94337  0
C  C47  1  0.33148469  0.90989541  0.79104130  1  0  -0.052335  0  3.712844  0  -0.101298  0  -0.074964  0  3.957344  0  0  -0.073147  0  3.976706  0  0  -0.067435  -0.075835  0  3.944062  0
C  C48  1  0.83122754  0.88131514  0.79096363  1  0  -0.051605  0  3.711481  0  -0.028047  0  -0.074258  0  3.956496  0  0  -0.072349  0  3.975854  0  0  -0.067725  -0.075161  0  3.943207  0
C  C49  1  0.66850964  0.09010372  0.20895587  1  0  -0.052271  0  3.712642  0  -0.101043  0  -0.074916  0  3.957232  0  0  -0.073088  0  3.976593  0  0  -0.067457  -0.075803  0  3.943934  0
C  C50  1  0.20819541  0.06247069  0.10456202  1  0  0.019172  0  3.800664  0  -0.074549  0  0.034293  0  4.034911  0  0  0.031803  0  4.059446  0  0  -0.003439  0.035784  0  4.018415  0
C  C51  1  0.29202817  0.95809096  0.89549367  1  0  0.018813  0  3.80275  0  0.002217  0  0.034753  0  4.035269  0  0  0.032282  0  4.059793  0  0  -0.003634  0.03619  0  4.018847  0
C  C52  1  0.79179197  0.93752942  0.89543506  1  0  0.018989  0  3.800952  0  -0.074655  0  0.03411  0  4.035193  0  0  0.031609  0  4.059747  0  0  -0.003459  0.035605  0  4.01869  0
C  C53  1  0.70796065  0.04190914  0.10450209  1  0  0.018755  0  3.802802  0  0.002174  0  0.034677  0  4.035376  0  0  0.032184  0  4.059936  0  0  -0.003624  0.036166  0  4.01888  0
C  C54  1  0.22701343  0.14488500  0.05315597  1  0  0.130174  0  3.747654  0  0.542869  0  0.124273  0  3.986418  0  0  0.12877  0  4.00773  0  0  0.120563  0.12125  0  3.972069  0
C  C55  1  0.27303656  0.09187796  0.94697040  1  0  0.132531  0  3.745513  0  0.494299  0  0.126718  0  3.983428  0  0  0.13124  0  4.00468  0  0  0.120409  0.123684  0  3.969129  0
C  C56  1  0.77297690  0.85511701  0.94684191  1  0  0.130269  0  3.747676  0  0.542918  0  0.124367  0  3.986443  0  0  0.128865  0  4.007757  0  0  0.120623  0.121341  0  3.972097  0
C  C57  1  0.72695779  0.90812212  0.05302850  1  0  0.132657  0  3.745458  0  0.494254  0  0.126846  0  3.983384  0  0  0.131376  0  4.00464  0  0  0.120417  0.123797  0  3.969072  0
C  C58  1  0.22999048  0.92874987  0.05024772  1  0  -0.086555  0  3.709281  0  -0.047001  0  -0.112056  0  3.96928  0  0  -0.114743  0  3.991117  0  0  -0.082932  -0.110147  0  3.954594  0
C  C59  1  0.27026967  0.87855110  0.94966062  1  0  -0.085479  0  3.711692  0  0.025849  0  -0.111126  0  3.970936  0  0  -0.113804  0  3.992789  0  0  -0.082877  -0.109208  0  3.956269  0
C  C60  1  0.77000116  0.07125022  0.94974820  1  0  -0.086366  0  3.70941  0  -0.046961  0  -0.111865  0  3.969413  0  0  -0.114553  0  3.991259  0  0  -0.082911  -0.109959  0  3.954731  0
C  C61  1  0.72972332  0.12144803  0.05033435  1  0  -0.08546  0  3.711707  0  0.025859  0  -0.111111  0  3.970998  0  0  -0.113788  0  3.992852  0  0  -0.082874  -0.10921  0  3.956319  0
C  C62  1  0.64757269  0.49371720  0.14516129  1  0  0.690213  0  3.87142  0  1.657575  0  0.638298  0  4.171267  0  0  0.673303  0  4.162341  0  0  0.204656  0.614453  0  4.176616  0
C  C63  1  0.85230692  0.34873962  0.85471106  1  0  0.689778  0  3.872174  0  1.655332  0  0.637333  0  4.172871  0  0  0.672325  0  4.164018  0  0  0.204794  0.613486  0  4.17819  0
C  C64  1  0.35243315  0.50628665  0.85484093  1  0  0.690054  0  3.871479  0  1.657558  0  0.638221  0  4.171253  0  0  0.67323  0  4.162314  0  0  0.204633  0.614375  0  4.176599  0
C  C65  1  0.14769348  0.65126615  0.14529007  1  0  0.689558  0  3.872456  0  1.655224  0  0.637258  0  4.172949  0  0  0.672248  0  4.1641  0  0  0.204748  0.613424  0  4.178252  0
C  C66  1  0.62069018  0.47219778  0.24231853  1  0  -0.063394  0  3.609217  0  0.428627  0  -0.12273  0  3.873636  0  0  -0.118842  0  3.872857  0  0  -0.067787  -0.12557  0  3.87437  0
C  C67  1  0.87927435  0.22989466  0.75763431  1  0  -0.063069  0  3.609142  0  0.421331  0  -0.121711  0  3.873782  0  0  -0.117833  0  3.87292  0  0  -0.067637  -0.124565  0  3.874546  0
C  C68  1  0.37931119  0.52780132  0.75767834  1  0  -0.063345  0  3.609127  0  0.428664  0  -0.122786  0  3.873642  0  0  -0.118876  0  3.872876  0  0  -0.067807  -0.125627  0  3.874376  0
C  C69  1  0.12072978  0.77010539  0.24236727  1  0  -0.063183  0  3.609225  0  0.421613  0  -0.121893  0  3.873871  0  0  -0.11801  0  3.873011  0  0  -0.06771  -0.12476  0  3.874643  0
C  C70  1  0.80231434  0.48568404  0.39745402  1  0  0.222365  0  3.796232  0  0.45233  0  0.209694  0  4.054154  0  0  0.220197  0  4.070867  0  0  0.083222  0.202363  0  4.042812  0
C  C71  1  0.69786174  0.08821542  0.60247143  1  0  0.221696  0  3.797983  0  0.439952  0  0.210559  0  4.054295  0  0  0.221038  0  4.070985  0  0  0.083232  0.203222  0  4.042978  0
C  C72  1  0.19769394  0.51431504  0.60254678  1  0  0.2222  0  3.796379  0  0.452351  0  0.209544  0  4.054252  0  0  0.220052  0  4.070962  0  0  0.08316  0.202215  0  4.042906  0
C  C73  1  0.30213996  0.91179035  0.39753330  1  0  0.221924  0  3.797918  0  0.439577  0  0.210638  0  4.054411  0  0  0.221119  0  4.071099  0  0  0.083251  0.2033  0  4.043091  0
C  C74  1  0.66789431  0.41490167  0.41817246  1  0  -0.225703  0  3.809043  0  -0.017018  0  -0.245919  0  4.061622  0  0  -0.251687  0  4.08156  0  0  -0.121588  -0.241924  0  4.048515  0
C  C75  1  0.83218346  0.99665737  0.58176818  1  0  -0.225025  0  3.809316  0  -0.04187  0  -0.245347  0  4.061239  0  0  -0.251093  0  4.081152  0  0  -0.121088  -0.241369  0  4.048167  0
C  C76  1  0.33211552  0.58509931  0.58182905  1  0  -0.225575  0  3.809121  0  -0.016915  0  -0.24583  0  4.061698  0  0  -0.251599  0  4.081638  0  0  -0.121557  -0.241827  0  4.048592  0
C  C77  1  0.16781538  0.00334746  0.41823536  1  0  -0.225082  0  3.809301  0  -0.042004  0  -0.245342  0  4.061248  0  0  -0.251087  0  4.081156  0  0  -0.121096  -0.241357  0  4.048186  0
C  C78  1  0.98159490  0.52096690  0.45896070  1  0  -0.035729  0  3.801839  0  -0.053929  0  -0.022572  0  4.032673  0  0  -0.024163  0  4.055222  0  0  -0.020416  -0.021468  0  4.017439  0
C  C79  1  0.51850964  0.06202947  0.54102796  1  0  -0.036666  0  3.803227  0  0.007383  0  -0.023705  0  4.03357  0  0  -0.025236  0  4.056  0  0  -0.020637  -0.022647  0  4.018427  0
C  C80  1  0.01841070  0.47903409  0.54104128  1  0  -0.035822  0  3.80204  0  0.002693  0  -0.022609  0  4.032829  0  0  -0.0242  0  4.055377  0  0  -0.020371  -0.02151  0  4.017596  0
C  C81  1  0.48149638  0.93797723  0.45897592  1  0  -0.03666  0  3.803184  0  -0.043425  0  -0.023607  0  4.033469  0  0  -0.025136  0  4.055894  0  0  -0.02057  -0.022551  0  4.018331  0
C  C82  1  0.12045347  0.59451793  0.43982081  1  0  -0.139821  0  3.776226  0  -0.023657  0  -0.171326  0  4.046417  0  0  -0.173004  0  4.063587  0  0  -0.11087  -0.170099  0  4.034756  0
C  C83  1  0.37963488  0.15474110  0.56022322  1  0  -0.139054  0  3.776377  0  -0.0574  0  -0.170414  0  4.046107  0  0  -0.172055  0  4.063311  0  0  -0.110253  -0.169202  0  4.034425  0
C  C84  1  0.87955630  0.40548209  0.56018038  1  0  -0.139645  0  3.776352  0  -0.023823  0  -0.171196  0  4.046508  0  0  -0.172872  0  4.063677  0  0  -0.110816  -0.169967  0  4.034844  0
C  C85  1  0.62036254  0.84526183  0.43977538  1  0  -0.138951  0  3.776441  0  -0.057328  0  -0.170284  0  4.046109  0  0  -0.17192  0  4.06331  0  0  -0.110164  -0.169077  0  4.034428  0
C  C86  1  0.70846146  0.37455089  0.49956437  1  0  -0.043815  0  3.807608  0  -0.034294  0  -0.055776  0  4.061499  0  0  -0.055211  0  4.081285  0  0  -0.098074  -0.056113  0  4.048239  0
C  C87  1  0.79149713  0.87494367  0.50035210  1  0  -0.044055  0  3.806361  0  0.00078  0  -0.05615  0  4.060362  0  0  -0.055538  0  4.080145  0  0  -0.098353  -0.056541  0  4.047109  0
C  C88  1  0.29154697  0.62545010  0.50043706  1  0  -0.043707  0  3.807472  0  -0.034456  0  -0.055689  0  4.061357  0  0  -0.055122  0  4.081143  0  0  -0.098014  -0.056028  0  4.048096  0
C  C89  1  0.20850147  0.12505831  0.49965120  1  0  -0.044007  0  3.806496  0  0.000834  0  -0.05614  0  4.060483  0  0  -0.055516  0  4.080273  0  0  -0.098357  -0.056531  0  4.047227  0
N  N90  1  0.20247922  0.27147444  0.10035648  1  0  -0.335594  0  3.218546  0  -1.255183  0  -0.271651  0  3.479203  0  0  -0.289048  0  3.496904  0  0  -0.313445  -0.259735  0  3.466992  0
N  N91  1  0.29729567  0.17131029  0.89976880  1  0  -0.337198  0  3.219989  0  -1.263268  0  -0.27313  0  3.48026  0  0  -0.290537  0  3.497947  0  0  -0.313436  -0.261197  0  3.468045  0
N  N92  1  0.79751406  0.72852945  0.89964220  1  0  -0.335787  0  3.218581  0  -1.255386  0  -0.271847  0  3.479282  0  0  -0.289246  0  3.496987  0  0  -0.313539  -0.259932  0  3.467072  0
N  N93  1  0.70270445  0.82869168  0.10023106  1  0  -0.337232  0  3.220087  0  -1.263221  0  -0.273155  0  3.480357  0  0  -0.290568  0  3.498045  0  0  -0.313431  -0.26122  0  3.468139  0
O  O94  1  0.57302784  0.41046660  0.05953602  1  0  -0.659495  0  2.015235  0  -1.222151  0  -0.601091  0  2.274499  0  0  -0.628601  0  2.261924  0  0  -0.33686  -0.581628  0  2.282442  0
O  O95  1  0.92661779  0.35128720  0.94043072  1  0  -0.659041  0  2.015911  0  -1.216688  0  -0.600022  0  2.27504  0  0  -0.627565  0  2.262519  0  0  -0.336492  -0.580537  0  2.282955  0
O  O96  1  0.42697056  0.58953156  0.94046319  1  0  -0.659344  0  2.015327  0  -1.222177  0  -0.600961  0  2.274545  0  0  -0.628467  0  2.26197  0  0  -0.336812  -0.581501  0  2.282487  0
O  O97  1  0.07338937  0.64871760  0.05957683  1  0  -0.658834  0  2.016131  0  -1.21647  0  -0.599881  0  2.275232  0  0  -0.62742  0  2.262708  0  0  -0.336431  -0.580401  0  2.283141  0
O  O98  1  0.73972144  0.59384564  0.15696064  1  0  -0.629714  0  2.017796  0  -1.184083  0  -0.560561  0  2.266235  0  0  -0.590997  0  2.256356  0  0  -0.318156  -0.53922  0  2.272213  0
O  O99  1  0.76035622  0.43705859  0.84273694  1  0  -0.628916  0  2.016253  0  -1.189166  0  -0.560406  0  2.265824  0  0  -0.590759  0  2.255841  0  0  -0.318293  -0.539071  0  2.271777  0
O  O100  1  0.26028089  0.40614870  0.84303754  1  0  -0.629725  0  2.017711  0  -1.184073  0  -0.560596  0  2.266102  0  0  -0.591051  0  2.256264  0  0  -0.318176  -0.539252  0  2.272077  0
O  O101  1  0.23964781  0.56294050  0.15726503  1  0  -0.628902  0  2.016164  0  -1.189153  0  -0.560442  0  2.265671  0  0  -0.590799  0  2.255696  0  0  -0.318296  -0.539116  0  2.271636  0
O  O102  1  0.77859647  0.52641481  0.31930091  1  0  -0.253766  0  2.366231  0  -1.103301  0  -0.180619  0  2.599593  0  0  -0.198941  0  2.603509  0  0  -0.17325  -0.16765  0  2.596494  0
O  O103  1  0.72156554  0.20713311  0.68057775  1  0  -0.252918  0  2.367372  0  -1.118569  0  -0.181568  0  2.601179  0  0  -0.199922  0  2.605096  0  0  -0.173231  -0.168535  0  2.598029  0
O  O104  1  0.22140638  0.47358620  0.68069879  1  0  -0.25364  0  2.366298  0  -1.103336  0  -0.180477  0  2.599675  0  0  -0.198798  0  2.603584  0  0  -0.173208  -0.167509  0  2.596575  0
O  O105  1  0.27844042  0.79287360  0.31942824  1  0  -0.252963  0  2.367444  0  -1.11844  0  -0.181569  0  2.601308  0  0  -0.199925  0  2.605225  0  0  -0.173206  -0.168524  0  2.598153  0
