# generated using pymatgen
data_ZnH13C10N3O5
_symmetry_space_group_name_H-M   'P 1'
_cell_length_a   8.64403052
_cell_length_b   9.14060688
_cell_length_c   16.18600000
_cell_angle_alpha   90.00000000
_cell_angle_beta   90.00000000
_cell_angle_gamma   96.13126278
_symmetry_Int_Tables_number   1
_chemical_formula_structural   ZnH13C10N3O5
_chemical_formula_sum   'Zn4 H52 C40 N12 O20'
_cell_volume   1271.56768267
_cell_formula_units_Z   4
loop_
 _symmetry_equiv_pos_site_id
 _symmetry_equiv_pos_as_xyz
  1  'x, y, z'
loop_
 _atom_site_type_symbol
 _atom_site_label
 _atom_site_symmetry_multiplicity
 _atom_site_fract_x
 _atom_site_fract_y
 _atom_site_fract_z
 _atom_site_occupancy
 _atom_site_hle17_bader_spin_density
 _atom_site_hle17_ddec_charge
 _atom_site_hle17_ddec_spin_density
 _atom_site_hle17_ddec_sum_bond_order
 _atom_site_hle17_magmom
 _atom_site_hse06_10hf_bader_spin_density
 _atom_site_hse06_10hf_ddec_charge
 _atom_site_hse06_10hf_ddec_spin_density
 _atom_site_hse06_10hf_ddec_sum_bond_order
 _atom_site_hse06_10hf_magmom
 _atom_site_hse06_bader_spin_density
 _atom_site_hse06_ddec_charge
 _atom_site_hse06_ddec_spin_density
 _atom_site_hse06_ddec_sum_bond_order
 _atom_site_hse06_magmom
 _atom_site_pbe_bader_charge
 _atom_site_pbe_bader_spin_density
 _atom_site_pbe_cm5_charge
 _atom_site_pbe_ddec_charge
 _atom_site_pbe_ddec_spin_density
 _atom_site_pbe_ddec_sum_bond_order
 _atom_site_pbe_magmom
Zn  Zn0  1  0.29656133  0.69246234  0.17127888  1  0  1.040681  0  1.819048  0  0  0.859951  0  2.270505  0  0  0.907476  0  2.216844  0  1.318301  0  0.680295  0.826494  0  2.305679  0
Zn  Zn1  1  0.20343669  0.30753866  0.67128012  1  0  1.040684  0  1.819093  0  0  0.859939  0  2.270569  0  0  0.907465  0  2.216906  0  1.318306  0  0.680286  0.826484  0  2.305742  0
Zn  Zn2  1  0.70343724  0.30753866  0.82872112  1  0  1.040687  0  1.819068  0  0  0.859958  0  2.270529  0  0  0.907484  0  2.216868  0  1.318252  0  0.68029  0.8265  0  2.305704  0
Zn  Zn3  1  0.79656279  0.69246014  0.32872050  1  0  1.04064  0  1.819102  0  0  0.859903  0  2.27058  0  0  0.90743  0  2.216918  0  1.318302  0  0.680266  0.826448  0  2.305754  0
H  H4  1  0.08978873  0.87067128  0.44479797  1  0  0.133023  0  0.938837  0  0  0.152021  0  0.995501  0  0  0.1545  0  0.994769  0  0.075142  0  0.093408  0.150341  0  0.996107  0
H  H5  1  0.41021276  0.12932972  0.94479859  1  0  0.13302  0  0.938827  0  0  0.152022  0  0.995494  0  0  0.1545  0  0.994761  0  0.075127  0  0.093409  0.150341  0  0.9961  0
H  H6  1  0.91021203  0.12932862  0.55520203  1  0  0.133032  0  0.938837  0  0  0.15203  0  0.995502  0  0  0.154509  0  0.994769  0  0.075203  0  0.093402  0.150349  0  0.996108  0
H  H7  1  0.58978709  0.87067238  0.05520141  1  0  0.13299  0  0.938838  0  0  0.151991  0  0.995507  0  0  0.15447  0  0.994775  0  0.075193  0  0.093392  0.150311  0  0.996112  0
H  H8  1  0.29441955  0.84838774  0.44199555  1  0  0.116524  0  0.967114  0  0  0.133167  0  1.033351  0  0  0.135127  0  1.032957  0  0.044945  0  0.084946  0.131824  0  1.033686  0
H  H9  1  0.20558450  0.15161546  0.94199493  1  0  0.116456  0  0.967222  0  0  0.13313  0  1.033437  0  0  0.135085  0  1.033047  0  0.045014  0  0.084931  0.131784  0  1.033776  0
H  H10  1  0.70558005  0.15161216  0.55800507  1  0  0.116523  0  0.967161  0  0  0.133165  0  1.033395  0  0  0.135125  0  1.033002  0  0.044938  0  0.084945  0.131822  0  1.033731  0
H  H11  1  0.79441766  0.84838664  0.05800507  1  0  0.116442  0  0.967194  0  0  0.133104  0  1.033429  0  0  0.135063  0  1.033036  0  0.045002  0  0.084923  0.131759  0  1.033767  0
H  H12  1  0.15313627  0.69874073  0.46874583  1  0  0.148599  0  0.931378  0  0  0.169254  0  0.986688  0  0  0.171858  0  0.985844  0  0.086484  0  0.102284  0.167505  0  0.987346  0
H  H13  1  0.34686290  0.30126027  0.96874645  1  0  0.148616  0  0.931351  0  0  0.16925  0  0.986696  0  0  0.171853  0  0.985851  0  0.086434  0  0.10228  0.167499  0  0.98736  0
H  H14  1  0.84686089  0.30125807  0.53125479  1  0  0.148621  0  0.931411  0  0  0.16928  0  0.986706  0  0  0.171887  0  0.985856  0  0.086508  0  0.102279  0.167527  0  0.98737  0
H  H15  1  0.65313682  0.69874073  0.03125479  1  0  0.148623  0  0.931376  0  0  0.169283  0  0.986674  0  0  0.171891  0  0.985824  0  0.086483  0  0.10229  0.167529  0  0.987343  0
H  H16  1  0.37237241  0.74872026  0.86927592  1  0  0.122296  0  0.94847  0  0  0.142315  0  1.009581  0  0  0.143733  0  1.010368  0  0.055564  0  0.090944  0.14116  0  1.009377  0
H  H17  1  0.12763152  0.25128184  0.36927592  1  0  0.122255  0  0.948483  0  0  0.142306  0  1.009562  0  0  0.143724  0  1.01035  0  0.055593  0  0.090932  0.141151  0  1.009358  0
H  H18  1  0.62762859  0.25128184  0.13072285  1  0  0.122325  0  0.94842  0  0  0.14234  0  1.009533  0  0  0.143759  0  1.010321  0  0.055583  0  0.090946  0.141185  0  1.009331  0
H  H19  1  0.87236693  0.74871806  0.63072346  1  0  0.122304  0  0.948433  0  0  0.142332  0  1.009534  0  0  0.14375  0  1.010321  0  0.055586  0  0.09094  0.141178  0  1.00933  0
H  H20  1  0.26105263  0.57704608  0.85283517  1  0  0.138634  0  0.961489  0  0  0.1546  0  1.025165  0  0  0.157349  0  1.024558  0  0.09917  0  0.092701  0.152574  0  1.025628  0
H  H21  1  0.23895233  0.42295491  0.35283578  1  0  0.138618  0  0.961437  0  0  0.154584  0  1.025124  0  0  0.157332  0  1.024518  0  0.099254  0  0.092689  0.152556  0  1.025592  0
H  H22  1  0.73894800  0.42295271  0.14716360  1  0  0.138637  0  0.961487  0  0  0.154605  0  1.025158  0  0  0.157353  0  1.024552  0  0.099303  0  0.09271  0.152577  0  1.025626  0
H  H23  1  0.76104752  0.57704718  0.64716298  1  0  0.138636  0  0.961436  0  0  0.154607  0  1.025104  0  0  0.157356  0  1.024497  0  0.099274  0  0.092696  0.15258  0  1.025573  0
H  H24  1  0.44618181  0.58443359  0.90334610  1  0  0.147939  0  0.94564  0  0  0.164992  0  1.005546  0  0  0.167942  0  1.004237  0  0.088993  0  0.097021  0.163022  0  1.006297  0
H  H25  1  0.05382559  0.41556851  0.40334610  1  0  0.147931  0  0.94557  0  0  0.164986  0  1.005485  0  0  0.167935  0  1.004178  0  0.089072  0  0.097041  0.163018  0  1.006237  0
H  H26  1  0.55382358  0.41556631  0.09665266  1  0  0.147916  0  0.945578  0  0  0.164965  0  1.005513  0  0  0.167914  0  1.004206  0  0.089047  0  0.09703  0.163002  0  1.00625  0
H  H27  1  0.94617298  0.58443249  0.59665328  1  0  0.147949  0  0.945537  0  0  0.165  0  1.005459  0  0  0.167949  0  1.00415  0  0.089087  0  0.097049  0.163032  0  1.006211  0
H  H28  1  0.07430870  0.88925227  0.07707278  1  0  0.084233  0  0.94971  0  0  0.090778  0  1.01587  0  0  0.093894  0  1.013156  0  0.120773  0  0.118709  0.088357  0  1.018048  0
H  H29  1  0.42569085  0.11075203  0.57707216  1  0  0.084276  0  0.949666  0  0  0.090816  0  1.015832  0  0  0.093928  0  1.013124  0  0.12074  0  0.118734  0.088396  0  1.018009  0
H  H30  1  0.92568974  0.11074763  0.92292846  1  0  0.084205  0  0.949745  0  0  0.090755  0  1.015905  0  0  0.093868  0  1.013192  0  0.120766  0  0.118684  0.088333  0  1.018082  0
H  H31  1  0.57430772  0.88924897  0.42292784  1  0  0.084241  0  0.949672  0  0  0.090783  0  1.015839  0  0  0.093894  0  1.013131  0  0.120736  0  0.118715  0.088363  0  1.018017  0
H  H32  1  0.02234918  0.15362134  0.07925059  1  0  0.118052  0  0.979139  0  0  0.124937  0  1.042581  0  0  0.129063  0  1.040531  0  0.114841  0  0.111823  0.121756  0  1.044323  0
H  H33  1  0.47765037  0.84638296  0.57924997  1  0  0.118081  0  0.979123  0  0  0.124934  0  1.042596  0  0  0.129059  0  1.040551  0  0.114856  0  0.111834  0.121754  0  1.044337  0
H  H34  1  0.97764926  0.84637856  0.92075003  1  0  0.11803  0  0.97915  0  0  0.124901  0  1.042611  0  0  0.129027  0  1.040561  0  0.114914  0  0.111807  0.12172  0  1.044355  0
H  H35  1  0.52234936  0.15361803  0.42074941  1  0  0.118084  0  0.979114  0  0  0.124958  0  1.042562  0  0  0.129084  0  1.040513  0  0.114854  0  0.111822  0.121777  0  1.044304  0
H  H36  1  0.41221109  0.23739699  0.24554615  1  0  0.112605  0  0.96667  0  0  0.115243  0  1.038861  0  0  0.118766  0  1.037896  0  0.104854  0  0.109769  0.112739  0  1.039707  0
H  H37  1  0.08778937  0.76260511  0.74554615  1  0  0.112633  0  0.966622  0  0  0.115268  0  1.038821  0  0  0.118786  0  1.03787  0  0.104873  0  0.109769  0.112763  0  1.039667  0
H  H38  1  0.58778863  0.76260401  0.75445385  1  0  0.112632  0  0.966636  0  0  0.115267  0  1.038832  0  0  0.118785  0  1.037885  0  0.104854  0  0.109782  0.112763  0  1.039678  0
H  H39  1  0.91221127  0.23739369  0.25445508  1  0  0.112646  0  0.96663  0  0  0.115287  0  1.038814  0  0  0.118808  0  1.037859  0  0.104887  0  0.109772  0.112782  0  1.039661  0
H  H40  1  0.44234077  0.96471285  0.23952181  1  0  0.0886  0  0.961117  0  0  0.092702  0  1.029534  0  0  0.095134  0  1.028831  0  0.132443  0  0.116957  0.090393  0  1.030931  0
H  H41  1  0.05765853  0.03528925  0.73952057  1  0  0.08856  0  0.961135  0  0  0.092662  0  1.029553  0  0  0.095093  0  1.028852  0  0.132439  0  0.116964  0.090354  0  1.030948  0
H  H42  1  0.55765999  0.03528705  0.76047881  1  0  0.08861  0  0.961133  0  0  0.092701  0  1.029542  0  0  0.095135  0  1.028836  0  0.13246  0  0.116975  0.090393  0  1.030938  0
H  H43  1  0.94234211  0.96470955  0.26047943  1  0  0.088552  0  0.961185  0  0  0.092648  0  1.029608  0  0  0.09508  0  1.028904  0  0.132412  0  0.116956  0.090341  0  1.031002  0
H  H44  1  0.99515238  0.37091670  0.09945694  1  0  0.284969  0  0.966673  0  0  0.2598  0  1.041742  0  0  0.269428  0  1.034771  0  0.549062  0  0.300256  0.253573  0  1.04584  0
H  H45  1  0.50484571  0.62908540  0.59945632  1  0  0.284992  0  0.966658  0  0  0.259823  0  1.041722  0  0  0.269451  0  1.034752  0  0.549064  0  0.300251  0.253596  0  1.04582  0
H  H46  1  0.00484710  0.62908210  0.90054244  1  0  0.284979  0  0.966667  0  0  0.259774  0  1.041778  0  0  0.269401  0  1.034809  0  0.549072  0  0.300263  0.253548  0  1.045875  0
H  H47  1  0.49515389  0.37091450  0.40054368  1  0  0.285  0  0.966655  0  0  0.259814  0  1.041731  0  0  0.269442  0  1.034761  0  0.549062  0  0.300245  0.253587  0  1.045829  0
H  H48  1  0.98421528  0.60855355  0.18349994  1  0  0.319224  0  0.898407  0  0  0.3003  0  0.967161  0  0  0.306886  0  0.961048  0  0.501811  0  0.306196  0.294965  0  0.972348  0
H  H49  1  0.51578408  0.39144965  0.68350117  1  0  0.319199  0  0.898416  0  0  0.300276  0  0.967166  0  0  0.30686  0  0.961054  0  0.501433  0  0.3062  0.294941  0  0.972353  0
H  H50  1  0.01578444  0.39144744  0.81650006  1  0  0.319213  0  0.898406  0  0  0.300294  0  0.967155  0  0  0.30688  0  0.961041  0  0.501789  0  0.306213  0.294958  0  0.972343  0
H  H51  1  0.48421424  0.60854915  0.31649883  1  0  0.319172  0  0.898429  0  0  0.300256  0  0.967167  0  0  0.306839  0  0.961066  0  0.501411  0  0.306205  0.294921  0  0.972355  0
H  H52  1  0.04730369  0.62071972  0.08393303  1  0  0.293466  0  0.926674  0  0  0.276245  0  0.992292  0  0  0.283498  0  0.985928  0  0.487738  0  0.298334  0.271242  0  0.996494  0
H  H53  1  0.45269549  0.37928128  0.58393426  1  0  0.293475  0  0.926695  0  0  0.276248  0  0.99232  0  0  0.283501  0  0.985956  0  0.487758  0  0.298334  0.271246  0  0.996521  0
H  H54  1  0.95269592  0.37928018  0.91606635  1  0  0.293425  0  0.926744  0  0  0.276212  0  0.992359  0  0  0.283465  0  0.985995  0  0.487745  0  0.298316  0.271209  0  0.996561  0
H  H55  1  0.54730398  0.62071752  0.41606574  1  0  0.293447  0  0.92671  0  0  0.27625  0  0.992314  0  0  0.283505  0  0.985949  0  0.487758  0  0.298336  0.271248  0  0.996515  0
C  C56  1  0.16325658  0.74896233  0.33969294  1  0  0.761359  0  3.81678  0  0  0.718528  0  4.110192  0  0  0.752012  0  4.103025  0  1.574076  0  0.214239  0.695273  0  4.113848  0
C  C57  1  0.33674516  0.25104087  0.83969294  1  0  0.761479  0  3.81667  0  0  0.718668  0  4.110066  0  0  0.752154  0  4.102895  0  1.573968  0  0.214322  0.695413  0  4.113724  0
C  C58  1  0.83674290  0.25103647  0.66030767  1  0  0.761469  0  3.81668  0  0  0.718652  0  4.110072  0  0  0.752136  0  4.102903  0  1.574083  0  0.214315  0.695397  0  4.113729  0
C  C59  1  0.66325456  0.74896013  0.16030767  1  0  0.761439  0  3.816685  0  0  0.718579  0  4.110149  0  0  0.752063  0  4.102981  0  1.573467  0  0.214276  0.695324  0  4.113805  0
C  C60  1  0.17684969  0.79629450  0.42921105  1  0  -0.456175  0  3.676312  0  0  -0.531177  0  3.90875  0  0  -0.53808  0  3.911533  0  -0.134122  0  -0.252676  -0.526222  0  3.906413  0
C  C61  1  0.32315436  0.20370870  0.92921290  1  0  -0.456131  0  3.676326  0  0  -0.531153  0  3.908789  0  0  -0.538047  0  3.911571  0  -0.13396  0  -0.252675  -0.526199  0  3.906454  0
C  C62  1  0.82314978  0.20370429  0.57078957  1  0  -0.456232  0  3.676398  0  0  -0.531236  0  3.908814  0  0  -0.53814  0  3.911591  0  -0.134193  0  -0.25267  -0.526282  0  3.906477  0
C  C63  1  0.67684433  0.79629340  0.07078895  1  0  -0.45608  0  3.676295  0  0  -0.5311  0  3.908733  0  0  -0.538005  0  3.911512  0  -0.134198  0  -0.252648  -0.526146  0  3.906396  0
C  C64  1  0.26349367  0.65996349  0.97887248  1  0  0.749273  0  3.831163  0  0  0.708849  0  4.125405  0  0  0.742108  0  4.118073  0  1.552422  0  0.207055  0.686117  0  4.130165  0
C  C65  1  0.23651567  0.34003531  0.47887248  1  0  0.74932  0  3.831095  0  0  0.708829  0  4.125425  0  0  0.742088  0  4.118093  0  1.55208  0  0.207008  0.686097  0  4.130184  0
C  C66  1  0.73651610  0.34003421  0.02112690  1  0  0.749316  0  3.831017  0  0  0.708839  0  4.125348  0  0  0.742097  0  4.118017  0  1.552078  0  0.206987  0.686106  0  4.130109  0
C  C67  1  0.76348277  0.65996459  0.52112690  1  0  0.749283  0  3.830972  0  0  0.708822  0  4.125272  0  0  0.742079  0  4.117944  0  1.552073  0  0.206965  0.686091  0  4.130032  0
C  C68  1  0.34032792  0.63912686  0.89626653  1  0  -0.462098  0  3.648657  0  0  -0.534707  0  3.878797  0  0  -0.541956  0  3.881184  0  -0.152349  0  -0.255236  -0.529475  0  3.876863  0
C  C69  1  0.15967923  0.36087304  0.39626776  1  0  -0.462084  0  3.648508  0  0  -0.534698  0  3.878658  0  0  -0.541947  0  3.88105  0  -0.152464  0  -0.255244  -0.529468  0  3.876721  0
C  C70  1  0.65967502  0.36087194  0.10373224  1  0  -0.462135  0  3.648485  0  0  -0.534717  0  3.878631  0  0  -0.541964  0  3.881021  0  -0.15247  0  -0.255249  -0.529486  0  3.8767  0
C  C71  1  0.84032166  0.63912796  0.60373286  1  0  -0.462149  0  3.648377  0  0  -0.534741  0  3.878529  0  0  -0.541987  0  3.880919  0  -0.152482  0  -0.25525  -0.529515  0  3.876593  0
C  C72  1  0.14470872  0.96999766  0.11467812  1  0  0.138643  0  3.67451  0  0  0.108112  0  3.930112  0  0  0.11436  0  3.946436  0  0.475422  0  0.056114  0.104514  0  3.918362  0
C  C73  1  0.35529071  0.03000554  0.61467812  1  0  0.138628  0  3.674514  0  0  0.108077  0  3.93011  0  0  0.114328  0  3.94643  0  0.475497  0  0.056158  0.104476  0  3.918359  0
C  C74  1  0.85528973  0.03000224  0.88532312  1  0  0.138607  0  3.674481  0  0  0.108063  0  3.930086  0  0  0.114314  0  3.946407  0  0.475424  0  0.056119  0.104465  0  3.918336  0
C  C75  1  0.64470889  0.96999436  0.38532188  1  0  0.138671  0  3.67446  0  0  0.108127  0  3.930047  0  0  0.114379  0  3.946367  0  0.475492  0  0.056154  0.104526  0  3.918297  0
C  C76  1  0.11764087  0.11761138  0.11560114  1  0  -0.138906  0  3.693287  0  0  -0.158499  0  3.938824  0  0  -0.164223  0  3.959011  0  -0.011453  0  -0.075296  -0.155171  0  3.925266  0
C  C77  1  0.38235843  0.88239072  0.61560114  1  0  -0.138958  0  3.693246  0  0  -0.158477  0  3.938816  0  0  -0.164202  0  3.959004  0  -0.01146  0  -0.075346  -0.155153  0  3.925268  0
C  C78  1  0.88235629  0.88238742  0.88440010  1  0  -0.13884  0  3.69328  0  0  -0.158381  0  3.938842  0  0  -0.1641  0  3.959021  0  -0.011508  0  -0.075257  -0.155049  0  3.925275  0
C  C79  1  0.61764117  0.11760918  0.38439886  1  0  -0.138965  0  3.693161  0  0  -0.158504  0  3.938719  0  0  -0.164227  0  3.958905  0  -0.011464  0  -0.075324  -0.15518  0  3.925172  0
C  C80  1  0.21584894  0.21647013  0.16296491  1  0  0.009104  0  3.734936  0  0  0.027866  0  3.967097  0  0  0.026319  0  3.987861  0  -0.040549  0  0.012439  0.028843  0  3.952904  0
C  C81  1  0.28415024  0.78353087  0.66296491  1  0  0.009157  0  3.734841  0  0  0.027793  0  3.967136  0  0  0.026247  0  3.987898  0  -0.04053  0  0.012431  0.02877  0  3.95294  0
C  C82  1  0.78414950  0.78352977  0.83703571  1  0  0.009188  0  3.734943  0  0  0.027824  0  3.967241  0  0  0.026278  0  3.988004  0  -0.040582  0  0.01245  0.028801  0  3.953047  0
C  C83  1  0.71584937  0.21646903  0.33703571  1  0  0.009149  0  3.734744  0  0  0.027781  0  3.967044  0  0  0.026234  0  3.98781  0  -0.040522  0  0.012411  0.028758  0  3.952849  0
C  C84  1  0.33495845  0.16201453  0.20842827  1  0  -0.123542  0  3.710824  0  0  -0.144069  0  3.956533  0  0  -0.149264  0  3.977146  0  -0.005483  0  -0.074231  -0.141021  0  3.943108  0
C  C85  1  0.16504085  0.83798757  0.70842765  1  0  -0.123673  0  3.710746  0  0  -0.144157  0  3.956494  0  0  -0.149354  0  3.977104  0  -0.005462  0  -0.074275  -0.141108  0  3.943071  0
C  C86  1  0.66504115  0.83798537  0.79157173  1  0  -0.123578  0  3.710793  0  0  -0.144077  0  3.956531  0  0  -0.149274  0  3.977139  0  -0.005483  0  -0.07426  -0.141031  0  3.943107  0
C  C87  1  0.83495978  0.16201122  0.29157296  1  0  -0.123693  0  3.710767  0  0  -0.144182  0  3.956506  0  0  -0.149383  0  3.97712  0  -0.005453  0  -0.074269  -0.141133  0  3.943083  0
C  C88  1  0.35238318  0.01309153  0.20493698  1  0  0.125985  0  3.69613  0  0  0.09733  0  3.944395  0  0  0.102967  0  3.962025  0  0.477896  0  0.050343  0.093816  0  3.93299  0
C  C89  1  0.14761625  0.98691167  0.70493513  1  0  0.126156  0  3.696003  0  0  0.097482  0  3.944265  0  0  0.103121  0  3.961891  0  0.477911  0  0.050407  0.093967  0  3.932863  0
C  C90  1  0.64761770  0.98690947  0.79506364  1  0  0.125929  0  3.69617  0  0  0.097308  0  3.944407  0  0  0.102947  0  3.962034  0  0.477906  0  0.050321  0.093792  0  3.933004  0
C  C91  1  0.85238323  0.01308713  0.29506364  1  0  0.126166  0  3.696074  0  0  0.097497  0  3.944331  0  0  0.103136  0  3.961958  0  0.4779  0  0.050384  0.093981  0  3.932927  0
C  C92  1  0.20604903  0.37873883  0.16762943  1  0  0.501747  0  3.829446  0  0  0.449374  0  4.116709  0  0  0.478149  0  4.117131  0  1.403074  0  0.246593  0.430311  0  4.115044  0
C  C93  1  0.29394656  0.62126107  0.66763067  1  0  0.501746  0  3.829484  0  0  0.449412  0  4.116745  0  0  0.478188  0  4.117164  0  1.403255  0  0.246593  0.430349  0  4.115081  0
C  C94  1  0.79395070  0.62126217  0.83237057  1  0  0.501677  0  3.829491  0  0  0.449347  0  4.116744  0  0  0.478122  0  4.117163  0  1.403061  0  0.246596  0.430285  0  4.115078  0
C  C95  1  0.70605305  0.37873883  0.33236871  1  0  0.501745  0  3.829525  0  0  0.44942  0  4.116767  0  0  0.478195  0  4.117188  0  1.403196  0  0.246605  0.430356  0  4.115104  0
N  N96  1  0.25930627  0.91846999  0.15846843  1  0  -0.304986  0  3.266168  0  0  -0.232068  0  3.536401  0  0  -0.247376  0  3.550188  0  -1.243925  0  -0.314628  -0.22243  0  3.526017  0
N  N97  1  0.24069444  0.08153431  0.65846843  1  0  -0.305074  0  3.266205  0  0  -0.23212  0  3.536431  0  0  -0.247427  0  3.550216  0  -1.244054  0  -0.314696  -0.222482  0  3.526049  0
N  N98  1  0.74069462  0.08153101  0.84153157  1  0  -0.304961  0  3.2662  0  0  -0.232046  0  3.536427  0  0  -0.247354  0  3.550214  0  -1.243955  0  -0.31463  -0.222408  0  3.526045  0
N  N99  1  0.75930516  0.91846559  0.34153219  1  0  -0.305075  0  3.266162  0  0  -0.232128  0  3.536386  0  0  -0.247436  0  3.550169  0  -1.244044  0  -0.314643  -0.222488  0  3.526004  0
N  N100  1  0.07664817  0.43044035  0.13875942  1  0  -0.254998  0  3.318545  0  0  -0.207214  0  3.57095  0  0  -0.227045  0  3.582975  0  -0.920484  0  -0.319883  -0.193875  0  3.561514  0
N  N101  1  0.42335089  0.56955955  0.63876004  1  0  -0.255075  0  3.318594  0  0  -0.207296  0  3.57098  0  0  -0.22713  0  3.583005  0  -0.920595  0  -0.319898  -0.193956  0  3.561545  0
N  N102  1  0.92335028  0.56955955  0.86124058  1  0  -0.254966  0  3.318617  0  0  -0.207172  0  3.571034  0  0  -0.227003  0  3.58306  0  -0.920479  0  -0.319908  -0.193836  0  3.561598  0
N  N103  1  0.57664859  0.43043925  0.36123996  1  0  -0.255053  0  3.318614  0  0  -0.207251  0  3.571017  0  0  -0.22708  0  3.583043  0  -0.920594  0  -0.319874  -0.193909  0  3.561582  0
N  N104  1  0.06905696  0.58353353  0.14285803  1  0  -0.504648  0  3.128659  0  0  -0.468313  0  3.390227  0  0  -0.480435  0  3.385653  0  -0.813736  0  -0.513277  -0.459751  0  3.392693  0
N  N105  1  0.43094338  0.41646747  0.64285926  1  0  -0.50458  0  3.128636  0  0  -0.468229  0  3.390177  0  0  -0.480349  0  3.385604  0  -0.813399  0  -0.513266  -0.459668  0  3.392643  0
N  N106  1  0.93094264  0.41646637  0.85714136  1  0  -0.504609  0  3.12869  0  0  -0.468266  0  3.390219  0  0  -0.480386  0  3.385645  0  -0.813747  0  -0.513259  -0.459703  0  3.392684  0
N  N107  1  0.56905623  0.58353243  0.35714074  1  0  -0.504535  0  3.128682  0  0  -0.468251  0  3.390302  0  0  -0.480384  0  3.385741  0  -0.813352  0  -0.513286  -0.459691  0  3.392768  0
O  O108  1  0.28855740  0.72504922  0.30282096  1  0  -0.66314  0  2.034082  0  0  -0.597292  0  2.290606  0  0  -0.625011  0  2.279695  0  -1.186217  0  -0.322844  -0.576127  0  2.297359  0
O  O109  1  0.21144458  0.27495618  0.80282096  1  0  -0.663159  0  2.034141  0  0  -0.597329  0  2.29069  0  0  -0.625049  0  2.279775  0  -1.186212  0  -0.322838  -0.576161  0  2.29744  0
O  O110  1  0.71144257  0.27495398  0.69717966  1  0  -0.663216  0  2.034099  0  0  -0.597377  0  2.290632  0  0  -0.625097  0  2.279717  0  -1.186227  0  -0.322885  -0.576208  0  2.29738  0
O  O111  1  0.78855630  0.72504482  0.19718028  1  0  -0.663176  0  2.034133  0  0  -0.597313  0  2.290683  0  0  -0.625035  0  2.27977  0  -1.185629  0  -0.322839  -0.576145  0  2.297433  0
O  O112  1  0.03195866  0.73626801  0.30356048  1  0  -0.660303  0  2.077442  0  0  -0.588722  0  2.340781  0  0  -0.6162  0  2.32781  0  -1.197755  0  -0.3243  -0.568244  0  2.348555  0
O  O113  1  0.46804105  0.26372748  0.80355987  1  0  -0.66039  0  2.07742  0  0  -0.588821  0  2.340759  0  0  -0.616309  0  2.327796  0  -1.197759  0  -0.324356  -0.568341  0  2.348535  0
O  O114  1  0.96804185  0.26372968  0.69643890  1  0  -0.66034  0  2.077428  0  0  -0.588778  0  2.340785  0  0  -0.616266  0  2.327821  0  -1.197749  0  -0.324342  -0.568299  0  2.348559  0
O  O115  1  0.53195830  0.73627022  0.19644013  1  0  -0.660353  0  2.077445  0  0  -0.588751  0  2.340764  0  0  -0.616231  0  2.327794  0  -1.197755  0  -0.324315  -0.568272  0  2.348538  0
O  O116  1  0.34636669  0.65296440  0.04310083  1  0  -0.64937  0  2.018433  0  0  -0.585452  0  2.272513  0  0  -0.61384  0  2.263044  0  -1.186176  0  -0.320179  -0.566417  0  2.278903  0
O  O117  1  0.15364137  0.34703330  0.54310021  1  0  -0.649396  0  2.018343  0  0  -0.58544  0  2.272431  0  0  -0.613827  0  2.262962  0  -1.185998  0  -0.320142  -0.566403  0  2.278818  0
O  O118  1  0.65364064  0.34703220  0.95689855  1  0  -0.64944  0  2.018374  0  0  -0.585453  0  2.272439  0  0  -0.61384  0  2.262968  0  -1.185995  0  -0.320127  -0.566415  0  2.278829  0
O  O119  1  0.84635823  0.65296660  0.45689979  1  0  -0.649403  0  2.018354  0  0  -0.585433  0  2.272415  0  0  -0.61382  0  2.26295  0  -1.185977  0  -0.320117  -0.566395  0  2.278803  0
O  O120  1  0.12004212  0.68625768  0.97922031  1  0  -0.678184  0  1.953608  0  0  -0.620069  0  2.172632  0  0  -0.645245  0  2.162645  0  -1.220057  0  -0.338982  -0.60289  0  2.179056  0
O  O121  1  0.37996235  0.31373892  0.47922279  1  0  -0.678148  0  1.953621  0  0  -0.620028  0  2.172684  0  0  -0.645193  0  2.162672  0  -1.21995  0  -0.338942  -0.602851  0  2.179109  0
O  O122  1  0.87996302  0.31374002  0.02077783  1  0  -0.678037  0  1.953523  0  0  -0.620015  0  2.172672  0  0  -0.645184  0  2.162668  0  -1.219955  0  -0.338942  -0.602838  0  2.179096  0
O  O123  1  0.62003481  0.68625988  0.52077721  1  0  -0.678064  0  1.95352  0  0  -0.620027  0  2.172639  0  0  -0.645195  0  2.16264  0  -1.219978  0  -0.338941  -0.602849  0  2.17906  0
O  O124  1  0.31669457  0.45934448  0.19970468  1  0  -0.538636  0  2.043365  0  0  -0.478781  0  2.288951  0  0  -0.501892  0  2.280814  0  -1.150705  0  -0.278904  -0.463191  0  2.293869  0
O  O125  1  0.18330448  0.54065542  0.69970530  1  0  -0.538642  0  2.043453  0  0  -0.478764  0  2.289012  0  0  -0.501873  0  2.280871  0  -1.150779  0  -0.278892  -0.463175  0  2.293929  0
O  O126  1  0.68330503  0.54065542  0.80029532  1  0  -0.538618  0  2.043348  0  0  -0.478757  0  2.288914  0  0  -0.501869  0  2.280775  0  -1.15072  0  -0.2789  -0.463169  0  2.293832  0
O  O127  1  0.81669396  0.45934448  0.30029408  1  0  -0.538622  0  2.04349  0  0  -0.478754  0  2.289044  0  0  -0.501864  0  2.280906  0  -1.15071  0  -0.278891  -0.463165  0  2.293962  0
