# generated using pymatgen
data_CuH20C24(N2O3)2
_symmetry_space_group_name_H-M   'P 1'
_cell_length_a   6.81786710
_cell_length_b   10.62649997
_cell_length_c   14.63690109
_cell_angle_alpha   96.10282145
_cell_angle_beta   90.00033243
_cell_angle_gamma   89.99982318
_symmetry_Int_Tables_number   1
_chemical_formula_structural   CuH20C24(N2O3)2
_chemical_formula_sum   'Cu2 H40 C48 N8 O12'
_cell_volume   1054.43458249
_cell_formula_units_Z   2
loop_
 _symmetry_equiv_pos_site_id
 _symmetry_equiv_pos_as_xyz
  1  'x, y, z'
loop_
 _atom_site_type_symbol
 _atom_site_label
 _atom_site_symmetry_multiplicity
 _atom_site_fract_x
 _atom_site_fract_y
 _atom_site_fract_z
 _atom_site_occupancy
 _atom_site_hle17_ddec_charge
 _atom_site_hle17_ddec_spin_density
 _atom_site_hle17_ddec_sum_bond_order
 _atom_site_hle17_magmom
 _atom_site_hse06_10hf_ddec_charge
 _atom_site_hse06_10hf_ddec_spin_density
 _atom_site_hse06_10hf_ddec_sum_bond_order
 _atom_site_hse06_10hf_magmom
 _atom_site_hse06_ddec_charge
 _atom_site_hse06_ddec_spin_density
 _atom_site_hse06_ddec_sum_bond_order
 _atom_site_hse06_magmom
 _atom_site_pbe_cm5_charge
 _atom_site_pbe_ddec_charge
 _atom_site_pbe_ddec_spin_density
 _atom_site_pbe_ddec_sum_bond_order
 _atom_site_pbe_magmom
Cu  Cu0  1  0.44646793  0.91114747  0.09151761  1  0.760211  -0.671795  2.002547  -0.489  0.708749  -0.752409  2.436018  -0.593  0.799446  -0.818171  2.357358  -0.675  0.748058  0.654654  -0.707083  2.489481  -0.541
Cu  Cu1  1  0.94646711  0.08885212  0.90848275  1  0.760235  -0.671799  2.002497  -0.489  0.708751  -0.752411  2.436005  -0.593  0.799512  -0.818173  2.357298  -0.675  0.748058  0.654659  -0.707092  2.489489  -0.541
H  H2  1  0.41055285  0.37397514  0.73020434  1  0.334082  -6.8e-05  0.960242  0.0  0.294739  -5.6e-05  1.056645  0.0  0.306771  -3.8e-05  1.044715  0.0  0.284723  0.286359  -6.3e-05  1.064854  0.0
H  H3  1  0.91055327  0.62602452  0.26979456  1  0.334069  -6.8e-05  0.960265  0.0  0.294727  -5.6e-05  1.056666  0.0  0.306756  -3.8e-05  1.044742  0.0  0.28471  0.286344  -6.3e-05  1.064879  0.0
H  H4  1  0.36119603  0.87550648  0.25624888  1  0.366885  0.001415  0.903531  0.0  0.33902  0.000452  0.983279  -0.001  0.350738  0.000532  0.970517  0.0  0.309237  0.330831  0.000242  0.991986  -0.001
H  H5  1  0.86119593  0.12449230  0.74374983  1  0.366891  0.001416  0.90349  0.0  0.339028  0.000452  0.983235  -0.001  0.350747  0.000532  0.97047  0.0  0.309246  0.330839  0.000242  0.991951  -0.001
H  H6  1  0.55865916  0.94792610  0.93096099  1  0.376293  0.00129  0.884398  0.0  0.350567  0.000461  0.96009  -0.001  0.362022  0.000517  0.947912  0.0  0.313012  0.342637  0.000283  0.968356  -0.001
H  H7  1  0.05865941  0.05207316  0.06904034  1  0.376292  0.00129  0.884397  0.0  0.350564  0.000461  0.960087  -0.001  0.362018  0.000517  0.947909  0.0  0.313007  0.342631  0.000283  0.968355  -0.001
H  H8  1  0.29328989  0.45198827  0.44572894  1  0.33227  -6e-05  0.972085  0.0  0.293324  -4.2e-05  1.066067  0.0  0.305417  -2.5e-05  1.054401  0.0  0.283468  0.284967  -4.9e-05  1.07393  0.0
H  H9  1  0.79328981  0.54801346  0.55427118  1  0.332185  -5.8e-05  0.972088  0.0  0.293257  -4.2e-05  1.06606  0.0  0.305349  -2.5e-05  1.054399  0.0  0.283443  0.284899  -4.9e-05  1.073928  0.0
H  H10  1  0.29735063  0.57926071  0.15426182  1  0.097647  -0.004241  0.932022  -0.006  0.110867  -0.002758  0.992384  -0.003  0.112439  -0.002071  0.988716  -0.003  0.126478  0.109667  -0.00328  0.995081  -0.004
H  H11  1  0.79735038  0.42074007  0.84573687  1  0.097635  -0.004242  0.932023  -0.006  0.110858  -0.002758  0.992387  -0.003  0.11243  -0.002071  0.98872  -0.003  0.126464  0.109662  -0.003281  0.995083  -0.004
H  H12  1  0.27324741  0.42585020  0.03469367  1  0.083817  -0.000161  0.987656  0.0  0.095192  -8.1e-05  1.050125  0.0  0.096632  -6e-05  1.050343  0.0  0.097537  0.094172  -9.8e-05  1.050089  0.0
H  H13  1  0.77324644  0.57414873  0.96530481  1  0.083807  -0.000159  0.987643  0.0  0.095176  -8.1e-05  1.050127  0.0  0.096614  -5.9e-05  1.050348  0.0  0.097538  0.094155  -9.8e-05  1.050089  0.0
H  H14  1  0.31412044  0.33690238  0.87269109  1  0.110881  0.000125  0.968359  0.0  0.116718  0.000127  1.036747  0.0  0.120073  0.000133  1.036088  0.0  0.098514  0.114391  0.000121  1.037369  0.0
H  H15  1  0.81412332  0.66309743  0.12730688  1  0.110866  0.000126  0.968389  0.0  0.116712  0.000127  1.03677  0.0  0.120068  0.000133  1.03611  0.0  0.098521  0.114388  0.000122  1.037385  0.0
H  H16  1  0.54731529  0.69588118  0.80941053  1  0.126528  0.000386  0.962189  0.0  0.134892  9.1e-05  1.027345  0.0  0.138933  8e-05  1.026257  0.0  0.09931  0.132085  7.9e-05  1.028144  0.0
H  H17  1  0.04731584  0.30411905  0.19058948  1  0.126535  0.000383  0.962178  0.0  0.134899  9.1e-05  1.027332  0.0  0.13894  8.1e-05  1.026244  0.0  0.099314  0.132096  7.9e-05  1.028121  0.0
H  H18  1  0.56967482  0.24963142  0.03099967  1  0.090815  -0.004355  0.929477  -0.005  0.104174  -0.002809  0.991391  -0.003  0.104506  -0.002115  0.989081  -0.003  0.123863  0.103894  -0.003283  0.992957  -0.004
H  H19  1  0.06967850  0.75036971  0.96900184  1  0.090835  -0.004353  0.929469  -0.005  0.104199  -0.002809  0.991377  -0.003  0.104534  -0.002115  0.989065  -0.003  0.123861  0.103914  -0.003282  0.992936  -0.004
H  H20  1  0.54074238  0.41029192  0.15065753  1  0.084247  -0.000156  0.976045  0.0  0.096076  -7.7e-05  1.040183  0.0  0.096731  -4.6e-05  1.040919  0.0  0.097999  0.095594  -0.000114  1.039858  0.0
H  H21  1  0.04073947  0.58970737  0.84934444  1  0.084207  -0.000148  0.976097  0.0  0.09604  -7.7e-05  1.040238  0.0  0.096693  -4.6e-05  1.040977  0.0  0.097973  0.095556  -0.000114  1.039911  0.0
H  H22  1  0.43578949  0.49723012  0.30652596  1  0.114066  4.6e-05  0.952055  0.0  0.123674  -5.1e-05  1.013321  0.0  0.127386  -3.9e-05  1.012038  0.0  0.101355  0.121018  -5e-05  1.014536  0.0
H  H23  1  0.93578843  0.50277043  0.69347514  1  0.114077  5.6e-05  0.952058  0.0  0.123686  -5e-05  1.013326  0.0  0.127398  -3.9e-05  1.012041  0.0  0.101351  0.121031  -5.1e-05  1.014547  0.0
H  H24  1  0.28911000  0.11939967  0.36676893  1  0.117716  0.000528  0.959478  0.001  0.12824  0.000101  1.023792  0.0  0.132863  8.8e-05  1.021278  0.0  0.095389  0.125127  9.4e-05  1.025463  0.0
H  H25  1  0.78911665  0.88060301  0.63323057  1  0.117731  0.000534  0.959471  0.001  0.128246  0.000101  1.023798  0.0  0.132873  8.8e-05  1.021284  0.0  0.09538  0.125131  9.4e-05  1.02547  0.0
H  H26  1  0.86564153  0.45994292  0.38758722  1  0.083801  6e-06  0.956633  0.0  0.092503  9e-06  1.01914  0.0  0.095405  8e-06  1.016233  0.0  0.115814  0.090682  1.5e-05  1.020455  0.0
H  H27  1  0.36564912  0.54005586  0.61241286  1  0.083793  4e-06  0.956677  0.0  0.092495  9e-06  1.019174  0.0  0.095397  8e-06  1.016268  0.0  0.115819  0.090681  1.5e-05  1.020499  0.0
H  H28  1  0.86071624  0.24668344  0.30626135  1  0.102256  2.2e-05  0.963909  0.0  0.112573  3.5e-05  1.026932  0.0  0.114772  2.9e-05  1.027435  0.0  0.108061  0.110943  3.8e-05  1.026774  0.0
H  H29  1  0.36072088  0.75331629  0.69373879  1  0.102241  2.6e-05  0.963904  0.0  0.112553  3.4e-05  1.026933  0.0  0.114749  2.9e-05  1.02744  0.0  0.108051  0.110923  3.8e-05  1.026777  0.0
H  H30  1  0.70911945  0.10669100  0.56486762  1  0.097174  -2.3e-05  0.964354  0.0  0.10911  -5.1e-05  1.02368  0.0  0.11184  -3.4e-05  1.023801  0.0  0.103188  0.107152  -6.4e-05  1.023755  0.0
H  H31  1  0.20912021  0.89330803  0.43513274  1  0.097185  -2.2e-05  0.964356  0.0  0.109119  -5.1e-05  1.023685  0.0  0.111861  -3.4e-05  1.023769  0.0  0.103194  0.107155  -6.4e-05  1.023755  0.0
H  H32  1  0.70819824  0.32840615  0.63452864  1  0.082096  -0.000207  0.966805  0.0  0.085968  -0.000229  1.040878  0.0  0.089139  -0.000153  1.037683  0.0  0.113652  0.083475  -0.000285  1.043505  0.0
H  H33  1  0.20819920  0.67159382  0.36547042  1  0.082095  -0.000214  0.966837  0.0  0.085927  -0.00023  1.04095  0.0  0.089125  -0.000154  1.037722  0.0  0.113653  0.083431  -0.000285  1.04357  0.0
H  H34  1  0.65777692  0.93337391  0.49327949  1  0.09908  2e-05  0.97454  0.0  0.109352  1.7e-05  1.037302  0.0  0.112366  1.3e-05  1.036595  0.0  0.104004  0.10728  1.9e-05  1.037744  0.0
H  H35  1  0.15777960  0.06662615  0.50671944  1  0.099048  2e-05  0.974471  0.0  0.109309  1.7e-05  1.03726  0.0  0.112325  1.3e-05  1.036545  0.0  0.103996  0.107236  1.9e-05  1.037698  0.0
H  H36  1  0.70815344  0.71714390  0.41994838  1  0.087489  -4e-06  0.938201  0.0  0.096671  -4e-06  0.999479  0.0  0.099713  -3e-06  0.996704  0.0  0.117545  0.094864  -1e-06  1.000578  0.0
H  H37  1  0.20815600  0.28285702  0.58005076  1  0.087492  -6e-06  0.9382  0.0  0.096711  -4e-06  0.999452  0.0  0.099754  -4e-06  0.996676  0.0  0.117556  0.09491  -1e-06  1.000552  0.0
H  H38  1  0.96967779  0.84748734  0.19141916  1  0.081224  -0.000115  0.955075  0.0  0.086207  -0.00013  1.026427  0.0  0.088797  -7.1e-05  1.023835  0.0  0.113284  0.084136  -0.000171  1.028653  0.0
H  H39  1  0.46968380  0.15251221  0.80858126  1  0.081176  -0.000114  0.955109  0.0  0.086155  -0.000131  1.026473  0.0  0.088744  -7.1e-05  1.023882  0.0  0.113277  0.084083  -0.000172  1.028698  0.0
H  H40  1  0.94145129  0.06903594  0.25758434  1  0.110688  -4e-05  0.950301  0.0  0.124717  -5.3e-05  1.004088  0.0  0.127681  -3.5e-05  1.003581  0.0  0.110285  0.122441  -6.4e-05  1.004822  0.0
H  H41  1  0.44145569  0.93096271  0.74241731  1  0.110664  -3.6e-05  0.950318  0.0  0.124698  -5.3e-05  1.004099  0.0  0.127663  -3.5e-05  1.00359  0.0  0.110269  0.122417  -6.4e-05  1.004839  0.0
C  C42  1  0.34913471  0.65015877  0.11085061  1  0.101435  0.018197  3.702916  0.01  0.058078  0.005767  3.970416  0.001  0.079146  0.008694  3.980076  0.004  0.053137  0.044395  0.003417  3.964482  -0.001
C  C43  1  0.84913387  0.34984004  0.88914806  1  0.101401  0.018216  3.702979  0.01  0.058034  0.005767  3.970501  0.001  0.079097  0.008696  3.980163  0.004  0.053108  0.04436  0.003417  3.964566  -0.001
C  C44  1  0.37702123  0.61184161  0.01502192  1  -0.140232  -0.004194  3.855519  -0.006  -0.123711  -0.001635  4.101141  -0.003  -0.141979  -0.000982  4.129757  -0.002  -0.047835  -0.111851  -0.002247  4.081999  -0.004
C  C45  1  0.87701846  0.38815810  0.98497758  1  -0.140217  -0.004195  3.855458  -0.006  -0.12368  -0.001637  4.101075  -0.003  -0.141926  -0.000983  4.12966  -0.002  -0.047819  -0.111824  -0.002247  4.081944  -0.004
C  C46  1  0.33122143  0.48482371  0.98448058  1  -0.048813  0.005745  3.819966  0.004  -0.071883  0.002056  4.073074  0.001  -0.065365  0.002491  4.094921  0.001  -0.090474  -0.075724  0.001575  4.058045  0.001
C  C47  1  0.83122070  0.51517701  0.01551887  1  -0.048866  0.005723  3.819948  0.003  -0.071935  0.002055  4.073064  0.001  -0.065424  0.002493  4.09491  0.001  -0.090509  -0.075776  0.001575  4.058038  0.001
C  C48  1  0.35547345  0.43438469  0.89452420  1  -0.260381  -0.000226  3.788561  -0.001  -0.281063  0.000733  4.050073  0.0  -0.29296  0.00048  4.070585  0.0  -0.133139  -0.273475  0.000864  4.036338  0.0
C  C49  1  0.85547359  0.56561506  0.10547456  1  -0.260346  -0.000214  3.788538  -0.001  -0.28103  0.000736  4.050022  0.0  -0.292932  0.000478  4.070547  0.0  -0.133138  -0.273441  0.000864  4.036283  0.0
C  C50  1  0.43316432  0.51175320  0.83052705  1  0.377105  0.00382  3.848886  0.002  0.367622  0.000776  4.109575  0.0  0.385582  0.001464  4.12139  0.0  0.084532  0.35553  0.000249  4.101223  -0.001
C  C51  1  0.93316562  0.48824736  0.16947199  1  0.37725  0.003815  3.848759  0.002  0.367777  0.000772  4.109419  0.0  0.385736  0.001465  4.121233  0.0  0.084644  0.35568  0.000249  4.10108  -0.001
C  C52  1  0.48261368  0.63793848  0.85864048  1  -0.341003  -0.008877  3.679582  -0.01  -0.365461  -0.005183  3.937587  -0.006  -0.378862  -0.003826  3.95359  -0.005  -0.132686  -0.356369  -0.006622  3.926509  -0.008
C  C53  1  0.98261523  0.36206200  0.14135869  1  -0.341024  -0.00888  3.679575  -0.01  -0.365473  -0.005182  3.937558  -0.006  -0.378876  -0.003827  3.953569  -0.005  -0.132689  -0.356378  -0.006622  3.92648  -0.008
C  C54  1  0.45400986  0.69124080  0.94996117  1  0.353511  0.005804  3.853576  0.006  0.342533  -0.000165  4.112541  0.001  0.364671  0.000991  4.127206  0.001  0.082425  0.327763  -0.001137  4.102295  0.001
C  C55  1  0.95401054  0.30875877  0.05003921  1  0.353547  0.005817  3.853528  0.006  0.342545  -0.000163  4.112503  0.001  0.364677  0.000992  4.127167  0.001  0.082433  0.327771  -0.001137  4.102269  0.001
C  C56  1  0.52553536  0.17655918  0.07433948  1  0.121677  0.01779  3.681721  0.009  0.078131  0.00587  3.947497  0.001  0.101874  0.008467  3.955507  0.003  0.054872  0.062803  0.003736  3.942252  0.0
C  C57  1  0.02553522  0.82344014  0.92566177  1  0.12171  0.017782  3.681889  0.009  0.078137  0.00587  3.947647  0.001  0.101884  0.008467  3.955656  0.003  0.054916  0.062816  0.003737  3.942392  0.0
C  C58  1  0.47270261  0.21623659  0.16763120  1  -0.135282  -0.004384  3.832271  -0.006  -0.120457  -0.001561  4.079653  -0.003  -0.138984  -0.000935  4.107009  -0.002  -0.048678  -0.108271  -0.002188  4.060927  -0.004
C  C59  1  0.97270339  0.78376296  0.83236991  1  -0.135301  -0.004397  3.832408  -0.006  -0.12042  -0.001563  4.079706  -0.003  -0.138949  -0.000934  4.107065  -0.002  -0.048701  -0.108236  -0.002187  4.06098  -0.004
C  C60  1  0.48293296  0.34700677  0.19818315  1  -0.051788  0.005397  3.806737  0.003  -0.075038  0.001706  4.062683  0.001  -0.068168  0.00223  4.084524  0.001  -0.089379  -0.079137  0.001427  4.047644  0.001
C  C61  1  0.98293251  0.65299181  0.80181791  1  -0.05172  0.005369  3.806771  0.003  -0.074989  0.001708  4.062717  0.001  -0.068118  0.002228  4.084559  0.001  -0.089351  -0.079084  0.001427  4.047675  0.001
C  C62  1  0.42498857  0.39612951  0.28510969  1  -0.247029  -0.001998  3.765325  -0.002  -0.268971  0.000355  4.028256  0.0  -0.280189  0.00025  4.047299  0.0  -0.127193  -0.261909  0.000659  4.015705  0.0
C  C63  1  0.92498875  0.60387012  0.71489061  1  -0.247096  -0.002006  3.765349  -0.002  -0.269058  0.000354  4.028265  0.0  -0.280277  0.00025  4.047306  0.0  -0.127229  -0.262002  0.000659  4.015724  0.0
C  C64  1  0.35093667  0.31324580  0.34659640  1  0.388556  0.005361  3.852267  0.003  0.378102  0.00118  4.114515  0.0  0.397803  0.001796  4.125051  0.001  0.085779  0.364858  0.00044  4.107107  -0.001
C  C65  1  0.85093862  0.68675584  0.65340318  1  0.388544  0.00538  3.852329  0.003  0.378155  0.00118  4.114493  0.0  0.397857  0.001795  4.125029  0.001  0.085824  0.364914  0.00044  4.107076  -0.001
C  C66  1  0.34175211  0.18325914  0.31870027  1  -0.353586  -0.011716  3.716904  -0.013  -0.381772  -0.005845  3.980186  -0.007  -0.395608  -0.00426  3.995012  -0.005  -0.141454  -0.372682  -0.006804  3.969947  -0.008
C  C67  1  0.84175526  0.81674156  0.68130058  1  -0.353613  -0.011727  3.717046  -0.013  -0.381821  -0.005845  3.98031  -0.007  -0.395663  -0.004258  3.995136  -0.005  -0.141452  -0.372726  -0.006803  3.970064  -0.008
C  C68  1  0.40425364  0.13199890  0.23114156  1  0.358244  0.006614  3.866662  0.007  0.346904  3.4e-05  4.126462  0.001  0.370285  0.001177  4.140624  0.002  0.080457  0.331483  -0.00129  4.116405  0.001
C  C69  1  0.90425763  0.86799981  0.76885862  1  0.358242  0.006627  3.866627  0.007  0.34692  3.6e-05  4.126401  0.001  0.3703  0.001175  4.140568  0.002  0.080482  0.331495  -0.00129  4.116353  0.001
C  C70  1  0.82919507  0.37973350  0.42503138  1  0.143482  8.1e-05  3.687471  0.0  0.110515  4.3e-05  3.944075  0.0  0.117769  2.7e-05  3.959308  0.0  0.052913  0.105706  1.9e-05  3.933543  0.0
C  C71  1  0.32920034  0.62026628  0.57496868  1  0.14346  8e-05  3.687596  0.0  0.110474  4.1e-05  3.944168  0.0  0.117729  2.8e-05  3.959401  0.0  0.052873  0.105653  1.9e-05  3.933652  0.0
C  C72  1  0.82939162  0.25821257  0.37951092  1  -0.131491  -9e-06  3.687386  0.0  -0.150244  1.3e-05  3.936248  0.0  -0.157748  2.6e-05  3.95884  0.0  -0.072581  -0.145527  -2.1e-05  3.921432  0.0
C  C73  1  0.32939688  0.74178722  0.62048846  1  -0.131423  -8e-06  3.687323  0.0  -0.150147  1.6e-05  3.936159  0.0  -0.157653  2.6e-05  3.958756  0.0  -0.07253  -0.145429  -2.1e-05  3.921345  0.0
C  C74  1  0.78784545  0.15466526  0.42808983  1  0.079241  4.8e-05  3.760405  0.0  0.091549  1.6e-05  3.989943  0.0  0.09456  1e-05  4.012064  0.0  0.00943  0.089549  1.6e-05  3.974986  0.0
C  C75  1  0.28784961  0.84533365  0.57190936  1  0.079243  4e-05  3.760289  0.0  0.091528  1.2e-05  3.989855  0.0  0.094536  1e-05  4.011978  0.0  0.009406  0.08952  1.6e-05  3.974898  0.0
C  C76  1  0.74254001  0.18147754  0.52186430  1  -0.154547  -0.000105  3.704813  0.0  -0.173173  -6e-05  3.953606  0.0  -0.18041  -3.4e-05  3.975798  0.0  -0.084329  -0.1686  -7.1e-05  3.938818  0.0
C  C77  1  0.24254167  0.81852143  0.47813546  1  -0.154522  -0.000101  3.704743  0.0  -0.173146  -5.7e-05  3.953534  0.0  -0.180381  -3.5e-05  3.975741  0.0  -0.084316  -0.168569  -7.1e-05  3.938729  0.0
C  C78  1  0.74235369  0.30608271  0.56190297  1  0.126941  -0.000177  3.710425  0.0  0.092705  -0.000205  3.970415  0.0  0.099231  -0.000139  3.986873  0.0  0.044351  0.088436  -0.000279  3.959714  0.0
C  C79  1  0.24235691  0.69391816  0.43809693  1  0.126912  -0.000178  3.710603  0.0  0.092689  -0.000206  3.970557  0.0  0.099195  -0.000138  3.987013  0.0  0.044335  0.088429  -0.000278  3.95983  0.0
C  C80  1  0.79801289  0.02327299  0.38318123  1  0.09142  1.5e-05  3.755042  0.0  0.104101  -4e-06  3.984463  0.0  0.108592  2e-06  4.004945  0.0  0.01166  0.101266  -1.5e-05  3.97041  0.0
C  C81  1  0.29801698  0.97672684  0.61681875  1  0.091357  1.7e-05  3.755089  0.0  0.104025  -6e-06  3.984525  0.0  0.108518  2e-06  4.005007  0.0  0.01164  0.101198  -1.5e-05  3.970467  0.0
C  C82  1  0.72953359  0.92009402  0.42657459  1  -0.15983  4e-06  3.699096  0.0  -0.178013  -7e-06  3.947186  0.0  -0.184818  9e-06  3.96687  0.0  -0.083799  -0.173708  -4.1e-05  3.933835  0.0
C  C83  1  0.22953849  0.07990592  0.57342521  1  -0.159718  1e-06  3.698971  0.0  -0.177883  -6e-06  3.9471  0.0  -0.184686  1.1e-05  3.966788  0.0  -0.083761  -0.173576  -4.1e-05  3.933752  0.0
C  C84  1  0.75465878  0.79742068  0.38469102  1  0.138431  -1.9e-05  3.709056  0.0  0.105746  2e-06  3.967022  0.0  0.113343  3e-06  3.982366  0.0  0.050579  0.100748  -2e-05  3.956208  0.0
C  C85  1  0.25466215  0.20257828  0.61530809  1  0.13841  -1.4e-05  3.709046  0.0  0.105657  2e-06  3.967049  0.0  0.11325  4e-06  3.982398  0.0  0.050547  0.100651  -2e-05  3.956259  0.0
C  C86  1  0.90150727  0.86974826  0.25863023  1  0.124173  4.9e-05  3.719448  0.0  0.088697  8.9e-05  3.986076  0.0  0.095344  0.000159  4.002236  0.0  0.044257  0.084084  1.8e-05  3.97586  0.0
C  C87  1  0.40151109  0.13025330  0.74136948  1  0.124246  4.7e-05  3.719467  0.0  0.088776  8.9e-05  3.98608  0.0  0.095425  0.000159  4.00224  0.0  0.044282  0.084164  1.8e-05  3.975869  0.0
C  C88  1  0.88376265  0.99502289  0.29604274  1  -0.14836  6e-05  3.685456  0.0  -0.168342  6.6e-05  3.935473  0.0  -0.17528  0.000106  3.95572  0.0  -0.079999  -0.163951  1e-05  3.922232  0.0
C  C89  1  0.38376660  0.00497680  0.70395678  1  -0.148368  5.1e-05  3.685568  0.0  -0.168345  6.7e-05  3.935578  0.0  -0.17528  0.000106  3.955817  0.0  -0.079972  -0.163942  1e-05  3.922324  0.0
N  N90  1  0.38101856  0.76349621  0.15025369  1  -0.139592  -0.070639  3.296538  -0.089  -0.105934  -0.049203  3.639287  -0.066  -0.129488  -0.042869  3.64825  -0.061  -0.309243  -0.093562  -0.05203  3.635707  -0.066
N  N91  1  0.88101484  0.23650349  0.84974582  1  -0.139562  -0.070651  3.296616  -0.089  -0.105913  -0.049203  3.639392  -0.066  -0.129485  -0.042869  3.648372  -0.061  -0.30921  -0.093546  -0.052028  3.635824  -0.066
N  N92  1  0.52140215  0.06014922  0.03677149  1  -0.146627  -0.068807  3.268421  -0.087  -0.114314  -0.0474  3.614296  -0.063  -0.139293  -0.041434  3.621974  -0.059  -0.311758  -0.101036  -0.050177  3.611581  -0.064
N  N93  1  0.02140191  0.93985105  0.96322982  1  -0.14669  -0.068797  3.268415  -0.087  -0.114386  -0.047399  3.614301  -0.063  -0.139382  -0.041434  3.62199  -0.059  -0.3118  -0.101111  -0.050178  3.611586  -0.064
N  N94  1  0.84107832  0.77164603  0.30238051  1  -0.312334  -2.9e-05  3.191094  0.0  -0.248562  -6.7e-05  3.439928  0.0  -0.263477  -3e-05  3.456546  0.0  -0.307617  -0.238642  -0.000193  3.428879  0.0
N  N95  1  0.34108259  0.22835468  0.69761897  1  -0.312352  -2.3e-05  3.191079  0.0  -0.248569  -6.8e-05  3.43993  0.0  -0.263485  -3e-05  3.456551  0.0  -0.30763  -0.238647  -0.000193  3.428888  0.0
N  N96  1  0.78673801  0.40396979  0.51472313  1  -0.296909  -0.000101  3.189645  0.0  -0.233126  -4.3e-05  3.43624  0.0  -0.247095  -1.2e-05  3.451753  0.0  -0.30517  -0.223985  -0.0002  3.425762  0.0
N  N97  1  0.28674229  0.59603101  0.48527690  1  -0.29696  -9.8e-05  3.189871  0.0  -0.233124  -4.3e-05  3.4364  0.0  -0.247095  -1.3e-05  3.451923  0.0  -0.305177  -0.223982  -0.0002  3.425915  0.0
O  O98  1  0.46213775  0.46563401  0.74204214  1  -0.511519  0.000858  2.140756  0.001  -0.459209  0.000375  2.369942  0.0  -0.47865  0.0006  2.359608  0.0  -0.349927  -0.445289  0.000196  2.376344  0.0
O  O99  1  0.96213847  0.53436746  0.25795705  1  -0.511599  0.000863  2.140767  0.001  -0.459302  0.000375  2.369965  0.0  -0.478742  0.0006  2.359632  0.0  -0.350004  -0.445377  0.000196  2.376366  0.0
O  O100  1  0.50074721  0.81167205  0.97342672  1  -0.597594  -0.092853  2.129913  -0.127  -0.556702  -0.065348  2.413355  -0.098  -0.59972  -0.049699  2.406359  -0.081  -0.346959  -0.528427  -0.075707  2.418129  -0.107
O  O101  1  0.00074628  0.18832731  0.02657378  1  -0.597576  -0.092863  2.129876  -0.127  -0.556709  -0.065348  2.413305  -0.098  -0.59974  -0.049699  2.406317  -0.081  -0.346958  -0.528431  -0.075705  2.418086  -0.107
O  O102  1  0.34815839  0.78054413  0.24463888  1  -0.411052  -0.017493  2.025939  -0.022  -0.373018  -0.010152  2.258036  -0.013  -0.390314  -0.007116  2.255782  -0.01  -0.278435  -0.35987  -0.012484  2.259831  -0.016
O  O103  1  0.84815798  0.21945562  0.75535987  1  -0.411103  -0.017493  2.025911  -0.022  -0.373044  -0.010152  2.258002  -0.013  -0.390335  -0.007116  2.255748  -0.01  -0.278476  -0.359896  -0.012485  2.259809  -0.016
O  O104  1  0.39765057  0.00765009  0.21037172  1  -0.601276  -0.09823  2.183606  -0.134  -0.559594  -0.067678  2.468872  -0.101  -0.603246  -0.052107  2.463275  -0.084  -0.348712  -0.531198  -0.077612  2.473006  -0.11
O  O105  1  0.89765569  0.99235147  0.78962867  1  -0.601304  -0.098224  2.183471  -0.134  -0.559593  -0.067679  2.468755  -0.101  -0.603257  -0.052108  2.463161  -0.084  -0.348737  -0.531203  -0.077611  2.472908  -0.11
O  O106  1  0.57255871  0.04260072  0.94355157  1  -0.429927  -0.014004  2.053603  -0.019  -0.395443  -0.007782  2.300545  -0.011  -0.415044  -0.004997  2.294714  -0.008  -0.278266  -0.381253  -0.01005  2.305281  -0.014
O  O107  1  0.07255888  0.95739946  0.05645055  1  -0.429887  -0.014005  2.053637  -0.019  -0.395401  -0.007783  2.300573  -0.011  -0.414992  -0.004998  2.294742  -0.008  -0.278236  -0.381206  -0.010051  2.305303  -0.014
O  O108  1  0.29141555  0.35366885  0.43198952  1  -0.52428  0.001409  2.15951  0.001  -0.473957  0.00072  2.390514  0.0  -0.49516  0.000916  2.382685  0.001  -0.351511  -0.458497  0.00028  2.394586  0.0
O  O109  1  0.79141957  0.64633194  0.56800984  1  -0.524166  0.001402  2.15951  0.001  -0.473892  0.00072  2.390496  0.0  -0.49509  0.000916  2.382659  0.001  -0.351504  -0.458433  0.00028  2.394565  0.0
