# generated using pymatgen
data_CdH16C17(NO)4
_symmetry_space_group_name_H-M   'P 1'
_cell_length_a   8.75878069
_cell_length_b   10.13111052
_cell_length_c   12.46239757
_cell_angle_alpha   90.70352771
_cell_angle_beta   110.53418129
_cell_angle_gamma   113.56601633
_symmetry_Int_Tables_number   1
_chemical_formula_structural   CdH16C17(NO)4
_chemical_formula_sum   'Cd2 H32 C34 N8 O8'
_cell_volume   934.12853539
_cell_formula_units_Z   2
loop_
 _symmetry_equiv_pos_site_id
 _symmetry_equiv_pos_as_xyz
  1  'x, y, z'
loop_
 _atom_site_type_symbol
 _atom_site_label
 _atom_site_symmetry_multiplicity
 _atom_site_fract_x
 _atom_site_fract_y
 _atom_site_fract_z
 _atom_site_occupancy
 _atom_site_hle17_bader_spin_density
 _atom_site_hle17_ddec_charge
 _atom_site_hle17_ddec_spin_density
 _atom_site_hle17_ddec_sum_bond_order
 _atom_site_hle17_magmom
 _atom_site_hse06_10hf_bader_spin_density
 _atom_site_hse06_10hf_ddec_charge
 _atom_site_hse06_10hf_ddec_spin_density
 _atom_site_hse06_10hf_ddec_sum_bond_order
 _atom_site_hse06_10hf_magmom
 _atom_site_hse06_bader_spin_density
 _atom_site_hse06_ddec_charge
 _atom_site_hse06_ddec_spin_density
 _atom_site_hse06_ddec_sum_bond_order
 _atom_site_hse06_magmom
 _atom_site_pbe_bader_spin_density
 _atom_site_pbe_cm5_charge
 _atom_site_pbe_ddec_charge
 _atom_site_pbe_ddec_spin_density
 _atom_site_pbe_ddec_sum_bond_order
 _atom_site_pbe_magmom
Cd  Cd0  1  0.84787087  0.07883548  0.89581321  1  0  1.101228  0  1.708065  0  0  0.9041  0  2.158034  0  0  0.965263  0  2.10534  0  0  0.765209  0.860967  0  2.194067  0
Cd  Cd1  1  0.15213306  0.92116582  0.10418946  1  0  1.101214  0  1.708141  0  0  0.904089  0  2.158102  0  0  0.965248  0  2.105411  0  0  0.765225  0.860957  0  2.194136  0
H  H2  1  0.95150166  0.06590237  0.67897035  1  0  0.089128  0  0.937839  0  0  0.095123  0  1.005034  0  0  0.098135  0  1.002028  0  0  0.120309  0.092951  0  1.007148  0
H  H3  1  0.04849496  0.93410426  0.32102519  1  0  0.089191  0  0.937801  0  0  0.095128  0  1.005046  0  0  0.098159  0  1.002019  0  0  0.120331  0.092958  0  1.007154  0
H  H4  1  0.94479900  0.88579439  0.53365887  1  0  0.112476  0  0.950748  0  0  0.120669  0  1.012882  0  0  0.124277  0  1.011199  0  0  0.112712  0.118088  0  1.014178  0
H  H5  1  0.05520520  0.11421022  0.46633994  1  0  0.112458  0  0.950689  0  0  0.120606  0  1.012878  0  0  0.124212  0  1.011199  0  0  0.11271  0.118026  0  1.014174  0
H  H6  1  0.61359796  0.53957635  0.66370531  1  0  0.112999  0  0.936885  0  0  0.125764  0  0.991831  0  0  0.128299  0  0.992299  0  0  0.112342  0.12359  0  0.992251  0
H  H7  1  0.38640443  0.46042504  0.33628898  1  0  0.112966  0  0.936894  0  0  0.125751  0  0.991816  0  0  0.128286  0  0.992284  0  0  0.11233  0.123569  0  0.992258  0
H  H8  1  0.63527844  0.73245984  0.80305828  1  0  0.084926  0  0.927007  0  0  0.094341  0  0.989296  0  0  0.09685  0  0.986799  0  0  0.119952  0.092466  0  0.99108  0
H  H9  1  0.36473292  0.26753950  0.19694362  1  0  0.084929  0  0.927084  0  0  0.09436  0  0.989341  0  0  0.096903  0  0.986805  0  0  0.119949  0.092484  0  0.991122  0
H  H10  1  0.70255350  0.47157921  0.51263397  1  0  0.077659  0  0.917941  0  0  0.086515  0  0.983097  0  0  0.090544  0  0.978827  0  0  0.117142  0.083548  0  0.9864  0
H  H11  1  0.29745705  0.52842547  0.48737110  1  0  0.077588  0  0.917943  0  0  0.086458  0  0.983092  0  0  0.090489  0  0.978821  0  0  0.117108  0.083492  0  0.986396  0
H  H12  1  0.03165670  0.65375196  0.32265569  1  0  0.096349  0  0.907809  0  0  0.105644  0  0.970211  0  0  0.109542  0  0.964717  0  0  0.125146  0.102852  0  0.974219  0
H  H13  1  0.96834031  0.34624266  0.67734763  1  0  0.096271  0  0.907815  0  0  0.105586  0  0.970232  0  0  0.109484  0  0.964738  0  0  0.125121  0.102794  0  0.974242  0
H  H14  1  0.69742890  0.07406180  0.09615085  1  0  0.097369  0  0.96059  0  0  0.101914  0  1.029102  0  0  0.105351  0  1.025704  0  0  0.117201  0.099333  0  1.031649  0
H  H15  1  0.30257226  0.92593614  0.90385430  1  0  0.097348  0  0.960602  0  0  0.101903  0  1.029099  0  0  0.105352  0  1.025688  0  0  0.11719  0.099322  0  1.031647  0
H  H16  1  0.70708428  0.24134638  0.24671582  1  0  0.119696  0  0.943708  0  0  0.1248  0  1.008651  0  0  0.129035  0  1.006243  0  0  0.111177  0.121797  0  1.010401  0
H  H17  1  0.29291282  0.75864820  0.75328993  1  0  0.11968  0  0.943822  0  0  0.124765  0  1.008778  0  0  0.129015  0  1.006354  0  0  0.111183  0.121762  0  1.010528  0
H  H18  1  0.13233099  0.59237816  0.18180382  1  0  0.12955  0  1.001304  0  0  0.134352  0  1.068445  0  0  0.138521  0  1.066606  0  0  0.107097  0.131241  0  1.07018  0
H  H19  1  0.86765854  0.40761843  0.81819946  1  0  0.129475  0  1.001413  0  0  0.134302  0  1.068526  0  0  0.138471  0  1.066688  0  0  0.107075  0.131192  0  1.070262  0
H  H20  1  0.10574529  0.40622837  0.03165306  1  0  0.073093  0  0.956137  0  0  0.080955  0  1.022415  0  0  0.083038  0  1.021318  0  0  0.111654  0.079332  0  1.023401  0
H  H21  1  0.89425188  0.59377382  0.96835051  1  0  0.073092  0  0.956136  0  0  0.080923  0  1.022437  0  0  0.083005  0  1.021341  0  0  0.111653  0.0793  0  1.023421  0
H  H22  1  0.47813776  0.20089186  0.98799293  1  0  0.107617  0  0.947439  0  0  0.121749  0  1.009814  0  0  0.12386  0  1.009678  0  0  0.097409  0.120321  0  1.009929  0
H  H23  1  0.52187261  0.79911289  0.01200728  1  0  0.10762  0  0.947478  0  0  0.121749  0  1.009837  0  0  0.123857  0  1.009702  0  0  0.097418  0.120323  0  1.009953  0
H  H24  1  0.49023263  0.37486822  0.02284924  1  0  0.100391  0  0.922989  0  0  0.120041  0  0.977396  0  0  0.12168  0  0.97736  0  0  0.100238  0.118992  0  0.977325  0
H  H25  1  0.50977204  0.62513752  0.97714729  1  0  0.10037  0  0.923018  0  0  0.120024  0  0.9774  0  0  0.121668  0  0.977354  0  0  0.100233  0.118981  0  0.977328  0
H  H26  1  0.60027177  0.39900246  0.86858077  1  0  0.057344  0  0.942576  0  0  0.077828  0  1.002015  0  0  0.078494  0  1.002727  0  0  0.085622  0.077325  0  1.001614  0
H  H27  1  0.39972758  0.60099779  0.13141200  1  0  0.057344  0  0.942583  0  0  0.077811  0  1.00204  0  0  0.078483  0  1.002741  0  0  0.085606  0.077318  0  1.001625  0
H  H28  1  0.37720457  0.38343220  0.80449025  1  0  0.070964  0  0.958964  0  0  0.083627  0  1.028842  0  0  0.085156  0  1.028795  0  0  0.08674  0.082491  0  1.028859  0
H  H29  1  0.62279012  0.61656572  0.19550541  1  0  0.071002  0  0.958956  0  0  0.083688  0  1.028781  0  0  0.0852  0  1.028753  0  0  0.08676  0.082551  0  1.028801  0
H  H30  1  0.27456186  0.10490285  0.74338698  1  0  0.089664  0  0.941773  0  0  0.105808  0  1.001885  0  0  0.107131  0  1.002096  0  0  0.09191  0.104805  0  1.001806  0
H  H31  1  0.72543289  0.89509505  0.25661030  1  0  0.089679  0  0.941782  0  0  0.105808  0  1.001883  0  0  0.107134  0  1.0021  0  0  0.091929  0.104809  0  1.001803  0
H  H32  1  0.39382434  0.22700089  0.66861814  1  0  0.089981  0  0.946197  0  0  0.101869  0  1.010362  0  0  0.103891  0  1.009813  0  0  0.088455  0.100271  0  1.011173  0
H  H33  1  0.60617489  0.77299388  0.33137926  1  0  0.089958  0  0.946248  0  0  0.101862  0  1.010379  0  0  0.10389  0  1.00983  0  0  0.088444  0.100263  0  1.01119  0
C  C34  1  0.87725630  0.94793017  0.67118132  1  0  0.124535  0  3.708149  0  0  0.095199  0  3.957732  0  0  0.10151  0  3.976949  0  0  0.049308  0.090995  0  3.944875  0
C  C35  1  0.12274461  0.05207340  0.32880949  1  0  0.124461  0  3.708385  0  0  0.095166  0  3.957986  0  0  0.101465  0  3.97719  0  0  0.049303  0.090961  0  3.945129  0
C  C36  1  0.87277388  0.84887100  0.59109176  1  0  -0.143133  0  3.692634  0  0  -0.161255  0  3.935397  0  0  -0.168407  0  3.956563  0  0  -0.074617  -0.156676  0  3.92133  0
C  C37  1  0.12722817  0.15113686  0.40890344  1  0  -0.143201  0  3.692627  0  0  -0.161342  0  3.935366  0  0  -0.168492  0  3.956531  0  0  -0.074705  -0.156765  0  3.921304  0
C  C38  1  0.77743919  0.69803928  0.58657414  1  0  0.091881  0  3.806013  0  0  0.106513  0  4.03991  0  0  0.10949  0  4.063015  0  0  0.008451  0.104678  0  4.024145  0
C  C39  1  0.22256285  0.30196305  0.41342893  1  0  0.091935  0  3.805869  0  0  0.106741  0  4.039535  0  0  0.109718  0  4.062638  0  0  0.008536  0.104905  0  4.02377  0
C  C40  1  0.68847927  0.65503952  0.66315761  1  0  -0.155432  0  3.703343  0  0  -0.174622  0  3.952999  0  0  -0.18273  0  3.975416  0  0  -0.075342  -0.16911  0  3.937973  0
C  C41  1  0.31152756  0.34496086  0.33683927  1  0  -0.15539  0  3.70335  0  0  -0.174645  0  3.95298  0  0  -0.182756  0  3.975412  0  0  -0.075338  -0.169133  0  3.937943  0
C  C42  1  0.70009278  0.76167103  0.74095631  1  0  0.14656  0  3.69899  0  0  0.112515  0  3.956823  0  0  0.120893  0  3.973609  0  0  0.054202  0.106984  0  3.945454  0
C  C43  1  0.29991878  0.23833587  0.25904664  1  0  0.14647  0  3.69905  0  0  0.11241  0  3.956887  0  0  0.120757  0  3.973677  0  0  0.054157  0.106883  0  3.945508  0
C  C44  1  0.76913249  0.58734084  0.50612016  1  0  0.069452  0  3.677902  0  0  0.033437  0  3.945956  0  0  0.039153  0  3.957987  0  0  0.070579  0.029415  0  3.937819  0
C  C45  1  0.23087066  0.41266367  0.49388323  1  0  0.069642  0  3.67778  0  0  0.033571  0  3.945793  0  0  0.039284  0  3.957826  0  0  0.070663  0.029547  0  3.93766  0
C  C46  1  0.92738682  0.54149681  0.30655096  1  0  0.119225  0  3.625514  0  0  0.080574  0  3.895352  0  0  0.090604  0  3.902696  0  0  0.089553  0.07352  0  3.890491  0
C  C47  1  0.07260763  0.45849779  0.69344937  1  0  0.119359  0  3.62543  0  0  0.080628  0  3.895312  0  0  0.090657  0  3.902657  0  0  0.089595  0.073568  0  3.890458  0
C  C48  1  0.79386888  0.18889746  0.11771180  1  0  0.127951  0  3.688336  0  0  0.097218  0  3.942633  0  0  0.103606  0  3.961023  0  0  0.045246  0.09312  0  3.930272  0
C  C49  1  0.20612804  0.81109719  0.88228909  1  0  0.128047  0  3.688329  0  0  0.097322  0  3.942573  0  0  0.103703  0  3.960964  0  0  0.045304  0.093224  0  3.930218  0
C  C50  1  0.79833772  0.28345229  0.20165011  1  0  -0.133092  0  3.668483  0  0  -0.153168  0  3.91547  0  0  -0.159638  0  3.935963  0  0  -0.071049  -0.148952  0  3.90164  0
C  C51  1  0.20165802  0.71654232  0.79835211  1  0  -0.133164  0  3.668862  0  0  -0.153256  0  3.915821  0  0  -0.159743  0  3.936305  0  0  -0.071106  -0.149041  0  3.901995  0
C  C52  1  0.91868469  0.43224383  0.22452418  1  0  0.087966  0  3.781834  0  0  0.103793  0  4.013657  0  0  0.105486  0  4.036115  0  0  0.006905  0.102923  0  3.998569  0
C  C53  1  0.08130969  0.56775291  0.77547780  1  0  0.087893  0  3.782038  0  0  0.103806  0  4.013776  0  0  0.105502  0  4.036232  0  0  0.006931  0.102937  0  3.998697  0
C  C54  1  0.03420684  0.47796454  0.16418347  1  0  -0.159611  0  3.688653  0  0  -0.178981  0  3.935963  0  0  -0.186891  0  3.957492  0  0  -0.081657  -0.174037  0  3.92204  0
C  C55  1  0.96578825  0.52203112  0.83581944  1  0  -0.159358  0  3.688526  0  0  -0.178779  0  3.935804  0  0  -0.186691  0  3.957334  0  0  -0.081572  -0.173825  0  3.921858  0
C  C56  1  0.02095153  0.37562208  0.08208024  1  0  0.113094  0  3.738638  0  0  0.08378  0  3.992803  0  0  0.089655  0  4.013289  0  0  0.040472  0.080025  0  3.978927  0
C  C57  1  0.97904524  0.62437685  0.91792395  1  0  0.113017  0  3.738429  0  0  0.083731  0  3.992602  0  0  0.089606  0  4.013088  0  0  0.040426  0.079981  0  3.978726  0
C  C58  1  0.54954124  0.13537376  0.78921941  1  0  0.676782  0  3.879083  0  0  0.636826  0  4.166983  0  0  0.669986  0  4.162032  0  0  0.185712  0.614415  0  4.169345  0
C  C59  1  0.45045671  0.86462522  0.21078344  1  0  0.676731  0  3.878857  0  0  0.636785  0  4.166719  0  0  0.669949  0  4.161772  0  0  0.185728  0.614374  0  4.16908  0
C  C60  1  0.22301658  0.21193414  0.93311505  1  0  0.687947  0  3.858149  0  0  0.642828  0  4.15424  0  0  0.67691  0  4.148224  0  0  0.19684  0.619673  0  4.157158  0
C  C61  1  0.77698910  0.78806829  0.06688725  1  0  0.687924  0  3.85818  0  0  0.642749  0  4.154322  0  0  0.676829  0  4.148305  0  0  0.196733  0.619595  0  4.157246  0
C  C62  1  0.42234533  0.27809676  0.95322650  1  0  -0.267377  0  3.666573  0  0  -0.304918  0  3.917813  0  0  -0.311057  0  3.926309  0  0  -0.168651  -0.300805  0  3.911847  0
C  C63  1  0.57766043  0.72190907  0.04676627  1  0  -0.26736  0  3.66646  0  0  -0.304876  0  3.917661  0  0  -0.311008  0  3.926135  0  0  -0.168633  -0.30077  0  3.911704  0
C  C64  1  0.45701669  0.32359382  0.84426898  1  0  -0.058312  0  3.663567  0  0  -0.09959  0  3.923738  0  0  -0.099304  0  3.936481  0  0  -0.164625  -0.099569  0  3.914861  0
C  C65  1  0.54298167  0.67640419  0.15572672  1  0  -0.058359  0  3.66345  0  0  -0.099641  0  3.923568  0  0  -0.099342  0  3.936318  0  0  -0.164641  -0.099623  0  3.914694  0
C  C66  1  0.40586724  0.19244168  0.75315032  1  0  -0.253334  0  3.655463  0  0  -0.288665  0  3.904785  0  0  -0.294145  0  3.912546  0  0  -0.169219  -0.284904  0  3.899462  0
C  C67  1  0.59413257  0.80755417  0.24684805  1  0  -0.253308  0  3.655442  0  0  -0.288617  0  3.904689  0  0  -0.294117  0  3.912472  0  0  -0.169212  -0.284862  0  3.899369  0
N  N68  1  0.79414405  0.90522837  0.74599238  1  0  -0.312605  0  3.234775  0  0  -0.235481  0  3.496812  0  0  -0.255297  0  3.515294  0  0  -0.320868  -0.221963  0  3.484327  0
N  N69  1  0.20585449  0.09476957  0.25400817  1  0  -0.312532  0  3.234925  0  0  -0.235392  0  3.496923  0  0  -0.25521  0  3.515426  0  0  -0.320851  -0.221873  0  3.484435  0
N  N70  1  0.83814874  0.62442442  0.42874197  1  0  -0.180485  0  3.062119  0  0  -0.149174  0  3.352174  0  0  -0.157431  0  3.36927  0  0  -0.197338  -0.143167  0  3.339944  0
N  N71  1  0.16184644  0.37557673  0.57125550  1  0  -0.180589  0  3.062126  0  0  -0.149283  0  3.352185  0  0  -0.157538  0  3.369279  0  0  -0.197381  -0.143277  0  3.33996  0
N  N72  1  0.81396205  0.50662786  0.35737891  1  0  -0.217698  0  3.044957  0  0  -0.190917  0  3.34025  0  0  -0.202297  0  3.356874  0  0  -0.212454  -0.182663  0  3.328317  0
N  N73  1  0.18603094  0.49337103  0.64262201  1  0  -0.217664  0  3.044903  0  0  -0.190861  0  3.340202  0  0  -0.20224  0  3.356827  0  0  -0.212453  -0.182606  0  3.328273  0
N  N74  1  0.90200291  0.23416111  0.05801636  1  0  -0.322403  0  3.255959  0  0  -0.244925  0  3.517621  0  0  -0.265278  0  3.53865  0  0  -0.3281  -0.231187  0  3.50333  0
N  N75  1  0.09799676  0.76584113  0.94198858  1  0  -0.322475  0  3.25591  0  0  -0.244974  0  3.517516  0  0  -0.265331  0  3.538555  0  0  -0.328127  -0.231236  0  3.503226  0
O  O76  1  0.11920859  0.25937373  0.86415464  1  0  -0.639766  0  1.929426  0  0  -0.578682  0  2.165668  0  0  -0.60718  0  2.157828  0  0  -0.325835  -0.558428  0  2.170295  0
O  O77  1  0.88079202  0.74062100  0.13584709  1  0  -0.639727  0  1.929333  0  0  -0.578634  0  2.165594  0  0  -0.607122  0  2.15773  0  0  -0.325794  -0.558381  0  2.170221  0
O  O78  1  0.53453143  0.03395440  0.84999655  1  0  -0.654087  0  1.939566  0  0  -0.590794  0  2.173123  0  0  -0.619695  0  2.165076  0  0  -0.334635  -0.570854  0  2.177921  0
O  O79  1  0.46546411  0.96604450  0.15000736  1  0  -0.654004  0  1.93957  0  0  -0.59075  0  2.173161  0  0  -0.619646  0  2.165105  0  0  -0.334638  -0.570811  0  2.17796  0
O  O80  1  0.16353756  0.11054160  0.98868472  1  0  -0.693677  0  2.063061  0  0  -0.620338  0  2.337073  0  0  -0.652878  0  2.325585  0  0  -0.343455  -0.597041  0  2.343801  0
O  O81  1  0.83647065  0.88946086  0.01131976  1  0  -0.693735  0  2.063175  0  0  -0.620367  0  2.337206  0  0  -0.652905  0  2.325713  0  0  -0.34344  -0.59707  0  2.343935  0
O  O82  1  0.68721379  0.19777700  0.76298052  1  0  -0.664793  0  1.940726  0  0  -0.606281  0  2.171481  0  0  -0.634149  0  2.1611  0  0  -0.349733  -0.586775  0  2.178074  0
O  O83  1  0.31278325  0.80221761  0.23702361  1  0  -0.66482  0  1.94058  0  0  -0.6063  0  2.17131  0  0  -0.634169  0  2.160927  0  0  -0.349753  -0.586793  0  2.177899  0
