# generated using pymatgen
data_AgH17C25N2O7
_symmetry_space_group_name_H-M   'P 1'
_cell_length_a   7.96568506
_cell_length_b   10.97732166
_cell_length_c   13.57660000
_cell_angle_alpha   73.09442206
_cell_angle_beta   73.20398413
_cell_angle_gamma   71.81918046
_symmetry_Int_Tables_number   1
_chemical_formula_structural   AgH17C25N2O7
_chemical_formula_sum   'Ag2 H34 C50 N4 O14'
_cell_volume   1053.18202119
_cell_formula_units_Z   2
loop_
 _symmetry_equiv_pos_site_id
 _symmetry_equiv_pos_as_xyz
  1  'x, y, z'
loop_
 _atom_site_type_symbol
 _atom_site_label
 _atom_site_symmetry_multiplicity
 _atom_site_fract_x
 _atom_site_fract_y
 _atom_site_fract_z
 _atom_site_occupancy
 _atom_site_hle17_bader_spin_density
 _atom_site_hle17_ddec_charge
 _atom_site_hle17_ddec_spin_density
 _atom_site_hle17_ddec_sum_bond_order
 _atom_site_hle17_magmom
 _atom_site_hse06_10hf_bader_spin_density
 _atom_site_hse06_10hf_ddec_charge
 _atom_site_hse06_10hf_ddec_spin_density
 _atom_site_hse06_10hf_ddec_sum_bond_order
 _atom_site_hse06_10hf_magmom
 _atom_site_hse06_bader_spin_density
 _atom_site_hse06_ddec_charge
 _atom_site_hse06_ddec_spin_density
 _atom_site_hse06_ddec_sum_bond_order
 _atom_site_hse06_magmom
 _atom_site_pbe_bader_charge
 _atom_site_pbe_bader_spin_density
 _atom_site_pbe_cm5_charge
 _atom_site_pbe_ddec_charge
 _atom_site_pbe_ddec_spin_density
 _atom_site_pbe_ddec_sum_bond_order
 _atom_site_pbe_magmom
Ag  Ag0  1  0.84650995  0.40789308  0.02622091  1  0  0.513611  0  1.374343  0  0  0.351788  0  1.81176  0  0  0.384468  0  1.767773  0  0.570092  0  0.463261  0.329314  0  1.841696  0
Ag  Ag1  1  0.15349159  0.59210730  0.97377948  1  0  0.513557  0  1.374351  0  0  0.351739  0  1.811755  0  0  0.384412  0  1.767779  0  0.570187  0  0.463234  0.329264  0  1.841691  0
H  H2  1  0.40013433  0.70278526  0.69978858  1  0  0.399015  0  0.900461  0  0  0.367217  0  0.983645  0  0  0.379748  0  0.966482  0  0.663706  0  0.299998  0.35841  0  0.993387  0
H  H3  1  0.59986391  0.29721709  0.30021117  1  0  0.399021  0  0.900443  0  0  0.36722  0  0.983629  0  0  0.37975  0  0.966476  0  0.663697  0  0.299992  0.358412  0  0.993371  0
H  H4  1  0.05793237  0.53352818  0.21954958  1  0  0.37824  0  0.94773  0  0  0.34841  0  1.020038  0  0  0.360968  0  1.002476  0  0.645241  0  0.288685  0.33958  0  1.03236  0
H  H5  1  0.94206655  0.46647220  0.78044978  1  0  0.378205  0  0.947772  0  0  0.348384  0  1.020073  0  0  0.360941  0  1.002511  0  0.645231  0  0.288678  0.339554  0  1.032395  0
H  H6  1  0.54952251  0.54392888  0.18206039  1  0  0.084083  0  0.963615  0  0  0.094562  0  1.023687  0  0  0.096386  0  1.022365  0  0.131163  0  0.115844  0.093111  0  1.024828  0
H  H7  1  0.45048394  0.45607249  0.81793746  1  0  0.084052  0  0.963597  0  0  0.094523  0  1.023681  0  0  0.096351  0  1.022359  0  0.131207  0  0.115824  0.093072  0  1.024822  0
H  H8  1  0.32173340  0.75516623  0.19078011  1  0  0.121658  0  0.957399  0  0  0.128296  0  1.022313  0  0  0.131883  0  1.020182  0  0.158428  0  0.113158  0.125651  0  1.024104  0
H  H9  1  0.67827042  0.24483514  0.80921818  1  0  0.121649  0  0.957425  0  0  0.128298  0  1.022322  0  0  0.131892  0  1.020184  0  0.158497  0  0.113151  0.125652  0  1.024114  0
H  H10  1  0.48094521  0.86417890  0.85010572  1  0  0.100467  0  0.984864  0  0  0.11152  0  1.045673  0  0  0.113427  0  1.046512  0  0.103886  0  0.107217  0.11011  0  1.045299  0
H  H11  1  0.51905176  0.13581952  0.14989296  1  0  0.100412  0  0.984881  0  0  0.111478  0  1.04569  0  0  0.113385  0  1.046529  0  0.103897  0  0.107197  0.110067  0  1.045315  0
H  H12  1  0.70500749  0.65058910  0.85638223  1  0  0.095885  0  0.95902  0  0  0.106857  0  1.018155  0  0  0.109028  0  1.016101  0  0.169546  0  0.119398  0.105166  0  1.019842  0
H  H13  1  0.29499142  0.34941129  0.14361566  1  0  0.09588  0  0.959043  0  0  0.106856  0  1.018173  0  0  0.109026  0  1.016119  0  0.16955  0  0.119405  0.105163  0  1.019861  0
H  H14  1  0.08298214  0.91104691  0.17654414  1  0  0.126029  0  0.949706  0  0  0.134284  0  1.012773  0  0  0.137708  0  1.010932  0  0.131747  0  0.115508  0.131726  0  1.014398  0
H  H15  1  0.91702172  0.08895053  0.82345507  1  0  0.126018  0  0.949677  0  0  0.134255  0  1.012769  0  0  0.137679  0  1.010929  0  0.131755  0  0.115494  0.131697  0  1.014394  0
H  H16  1  0.89712973  0.13737570  0.17447424  1  0  0.095149  0  0.958551  0  0  0.101653  0  1.024574  0  0  0.103969  0  1.022589  0  0.139804  0  0.11793  0.099869  0  1.026117  0
H  H17  1  0.10287447  0.86262076  0.82552588  1  0  0.095112  0  0.958543  0  0  0.101621  0  1.02456  0  0  0.103935  0  1.022578  0  0.139788  0  0.117919  0.099837  0  1.026101  0
H  H18  1  0.17806308  0.27674306  0.87353733  1  0  0.078331  0  0.946692  0  0  0.090541  0  1.00649  0  0  0.091642  0  1.005878  0  0.10736  0  0.116783  0.089612  0  1.007082  0
H  H19  1  0.82193419  0.72325831  0.12646208  1  0  0.078346  0  0.946747  0  0  0.090565  0  1.006528  0  0  0.091666  0  1.005918  0  0.107347  0  0.116814  0.089635  0  1.007122  0
H  H20  1  0.38787871  0.05897726  0.86592475  1  0  0.106733  0  0.956358  0  0  0.12063  0  1.012222  0  0  0.122707  0  1.013036  0  0.082277  0  0.109665  0.11913  0  1.011739  0
H  H21  1  0.61211792  0.94102215  0.13407301  1  0  0.106735  0  0.956436  0  0  0.120631  0  1.012295  0  0  0.122708  0  1.013112  0  0.082261  0  0.109646  0.119131  0  1.011813  0
H  H22  1  0.38292680  0.13410606  0.64204290  1  0  0.137818  0  0.965296  0  0  0.14088  0  1.036804  0  0  0.14538  0  1.033165  0  0.15429  0  0.108984  0.137563  0  1.039456  0
H  H23  1  0.61707669  0.86589629  0.35795743  1  0  0.137892  0  0.965321  0  0  0.140912  0  1.036863  0  0  0.145404  0  1.033234  0  0.154317  0  0.109005  0.137594  0  1.039516  0
H  H24  1  0.80740270  0.77529128  0.64152118  1  0  0.098968  0  0.956042  0  0  0.108467  0  1.019891  0  0  0.111228  0  1.018461  0  0.073222  0  0.101997  0.106323  0  1.021206  0
H  H25  1  0.19259228  0.22470910  0.35847958  1  0  0.098987  0  0.956057  0  0  0.108475  0  1.019927  0  0  0.111223  0  1.0185  0  0.073195  0  0.102033  0.10633  0  1.021242  0
H  H26  1  0.03418652  0.89978113  0.62513953  1  0  0.102053  0  0.973766  0  0  0.108668  0  1.03861  0  0  0.111775  0  1.037194  0  0.129239  0  0.101235  0.106375  0  1.039776  0
H  H27  1  0.96581506  0.10021533  0.37486104  1  0  0.102046  0  0.973769  0  0  0.108678  0  1.038594  0  0  0.111792  0  1.037172  0  0.129233  0  0.101246  0.106384  0  1.039761  0
H  H28  1  0.93526098  0.13760377  0.61912763  1  0  0.135199  0  0.964755  0  0  0.142895  0  1.027711  0  0  0.146846  0  1.024594  0  0.162687  0  0.110992  0.140066  0  1.029962  0
H  H29  1  0.06474288  0.86239367  0.38087231  1  0  0.135227  0  0.964662  0  0  0.142886  0  1.027669  0  0  0.14684  0  1.024553  0  0.162785  0  0.110982  0.140055  0  1.029929  0
H  H30  1  0.64484285  0.49692422  0.65511161  1  0  0.119026  0  0.941414  0  0  0.129491  0  1.001242  0  0  0.133461  0  0.998574  0  0.07486  0  0.108862  0.12666  0  1.003247  0
H  H31  1  0.35515607  0.50307616  0.34488922  1  0  0.119039  0  0.941403  0  0  0.129507  0  1.001234  0  0  0.133477  0  0.998566  0  0.074879  0  0.108874  0.126676  0  1.00324  0
H  H32  1  0.78886782  0.65624755  0.51143335  1  0  0.10677  0  0.947061  0  0  0.114813  0  1.010346  0  0  0.118341  0  1.00802  0  0.117513  0  0.109117  0.112274  0  1.01208  0
H  H33  1  0.21113076  0.34375382  0.48856657  1  0  0.106756  0  0.947103  0  0  0.114782  0  1.010409  0  0  0.118335  0  1.008052  0  0.117568  0  0.10909  0.112244  0  1.012141  0
H  H34  1  0.71959090  0.26484714  0.43259789  1  0  0.116171  0  0.975324  0  0  0.122983  0  1.042063  0  0  0.126722  0  1.04028  0  0.09772  0  0.111031  0.120214  0  1.043515  0
H  H35  1  0.28040802  0.73515325  0.56740368  1  0  0.116188  0  0.975391  0  0  0.123007  0  1.042104  0  0  0.12675  0  1.040322  0  0.097724  0  0.111042  0.120238  0  1.043555  0
C  C36  1  0.52880417  0.61807562  0.11037762  1  0  0.114104  0  3.699638  0  0  0.08441  0  3.943829  0  0  0.090696  0  3.963695  0  0.441182  0  0.041584  0.080297  0  3.930467  0
C  C37  1  0.47119834  0.38192575  0.88962089  1  0  0.114163  0  3.699575  0  0  0.084472  0  3.943778  0  0  0.090757  0  3.963639  0  0.441305  0  0.041605  0.080359  0  3.930413  0
C  C38  1  0.40124814  0.73718423  0.11426933  1  0  -0.138032  0  3.689235  0  0  -0.157805  0  3.941184  0  0  -0.164035  0  3.959826  0  -0.008974  0  -0.074663  -0.153889  0  3.928852  0
C  C39  1  0.59875340  0.26281615  0.88572884  1  0  -0.138023  0  3.689232  0  0  -0.157798  0  3.941164  0  0  -0.164031  0  3.959816  0  -0.008488  0  -0.074649  -0.153881  0  3.928832  0
C  C40  1  0.38162731  0.83197606  0.02062094  1  0  0.087727  0  3.763924  0  0  0.098603  0  3.99512  0  0  0.102944  0  4.015767  0  -0.051913  0  0.012565  0.09603  0  3.981032  0
C  C41  1  0.61837423  0.16802433  0.97937723  1  0  0.087614  0  3.763993  0  0  0.098498  0  3.995189  0  0  0.102832  0  4.015837  0  -0.05252  0  0.012528  0.095925  0  3.9811  0
C  C42  1  0.49042122  0.79748468  0.92632703  1  0  -0.153316  0  3.703948  0  0  -0.17128  0  3.950423  0  0  -0.178356  0  3.971399  0  -0.036253  0  -0.080998  -0.166907  0  3.936662  0
C  C43  1  0.50957575  0.20251374  0.07367164  1  0  -0.153221  0  3.704041  0  0  -0.171199  0  3.950508  0  0  -0.178275  0  3.971488  0  -0.03635  0  -0.080963  -0.166825  0  3.936744  0
C  C44  1  0.61572208  0.67661935  0.92857152  1  0  0.124042  0  3.692472  0  0  0.091421  0  3.939624  0  0  0.098517  0  3.958383  0  0.464156  0  0.043472  0.086696  0  3.927004  0
C  C45  1  0.38427556  0.32337711  0.07142898  1  0  0.124086  0  3.692453  0  0  0.091468  0  3.939606  0  0  0.098563  0  3.958365  0  0.464341  0  0.043504  0.086742  0  3.926985  0
C  C46  1  0.25670590  0.96351242  0.02141647  1  0  0.088925  0  3.747672  0  0  0.100594  0  3.976492  0  0  0.104054  0  3.998365  0  -0.035197  0  0.011573  0.098263  0  3.961766  0
C  C47  1  0.74329699  0.03648403  0.97858535  1  0  0.088943  0  3.747673  0  0  0.10061  0  3.976496  0  0  0.104089  0  3.998339  0  -0.035187  0  0.011577  0.098279  0  3.961771  0
C  C48  1  0.11386989  0.98865891  0.10798669  1  0  -0.142141  0  3.662092  0  0  -0.157656  0  3.902301  0  0  -0.165345  0  3.924761  0  0.016719  0  -0.073326  -0.152812  0  3.887529  0
C  C49  1  0.88613102  0.01133951  0.89201353  1  0  -0.142071  0  3.662065  0  0  -0.157574  0  3.902281  0  0  -0.165268  0  3.924736  0  0.017187  0  -0.073298  -0.152731  0  3.887508  0
C  C50  1  0.00510623  0.11559912  0.10657869  1  0  0.126445  0  3.671159  0  0  0.097522  0  3.911624  0  0  0.104025  0  3.93176  0  0.456466  0  0.048931  0.093326  0  3.89812  0
C  C51  1  0.99489729  0.88439930  0.89342477  1  0  0.126384  0  3.671185  0  0  0.097475  0  3.911639  0  0  0.103978  0  3.931775  0  0.456183  0  0.04892  0.093279  0  3.898135  0
C  C52  1  0.16324063  0.19330451  0.93933709  1  0  0.126982  0  3.714086  0  0  0.094698  0  3.960125  0  0  0.101519  0  3.980958  0  0.471363  0  0.044155  0.090313  0  3.945884  0
C  C53  1  0.83675799  0.80669293  0.06066374  1  0  0.126941  0  3.714051  0  0  0.094653  0  3.960098  0  0  0.101472  0  3.980932  0  0.471333  0  0.044103  0.090268  0  3.945856  0
C  C54  1  0.27944498  0.07006707  0.93564862  1  0  -0.146832  0  3.69747  0  0  -0.164161  0  3.940456  0  0  -0.171671  0  3.962936  0  -0.018994  0  -0.078618  -0.158991  0  3.92521  0
C  C55  1  0.72055166  0.92993233  0.06435283  1  0  -0.146837  0  3.697544  0  0  -0.164169  0  3.940549  0  0  -0.171683  0  3.963023  0  -0.01899  0  -0.078573  -0.158999  0  3.925303  0
C  C56  1  0.65439723  0.14898358  0.62986653  1  0  0.248439  0  3.793523  0  0  0.242602  0  4.059542  0  0  0.250077  0  4.076186  0  0.365386  0  0.07459  0.237378  0  4.048016  0
C  C57  1  0.34560596  0.85101582  0.37013380  1  0  0.24842  0  3.793434  0  0  0.242576  0  4.059458  0  0  0.250051  0  4.0761  0  0.365366  0  0.074613  0.237353  0  4.047929  0
C  C58  1  0.52557772  0.08307089  0.63855582  1  0  -0.177193  0  3.691441  0  0  -0.211705  0  3.942991  0  0  -0.213058  0  3.960203  0  -0.034078  0  -0.091522  -0.210215  0  3.931079  0
C  C59  1  0.47442348  0.91693048  0.36144513  1  0  -0.1772  0  3.691435  0  0  -0.211672  0  3.94299  0  0  -0.213019  0  3.960211  0  -0.034102  0  -0.091509  -0.210181  0  3.931079  0
C  C60  1  0.58288804  0.94711314  0.64324159  1  0  -0.067279  0  3.80866  0  0  -0.041245  0  4.041371  0  0  -0.049689  0  4.065954  0  -0.018628  0  -0.021426  -0.035728  0  4.024629  0
C  C61  1  0.41711021  0.05288921  0.35675815  1  0  -0.067237  0  3.808674  0  0  -0.041218  0  4.041381  0  0  -0.049663  0  4.065961  0  -0.018747  0  -0.021404  -0.035701  0  4.02464  0
C  C62  1  0.76574251  0.88058309  0.63762079  1  0  -0.071624  0  3.716437  0  0  -0.10146  0  3.965888  0  0  -0.101215  0  3.98649  0  -0.035826  0  -0.087064  -0.101461  0  3.951953  0
C  C63  1  0.23425607  0.11941828  0.36238060  1  0  -0.071645  0  3.716393  0  0  -0.101477  0  3.965881  0  0  -0.101218  0  3.986471  0  -0.035795  0  -0.087117  -0.10148  0  3.951945  0
C  C64  1  0.89191714  0.94940660  0.62804956  1  0  -0.042694  0  3.748248  0  0  -0.052149  0  3.998926  0  0  -0.054907  0  4.020863  0  -0.069143  0  -0.08715  -0.050201  0  3.984042  0
C  C65  1  0.10808377  0.05059182  0.37195066  1  0  -0.042686  0  3.748186  0  0  -0.05215  0  3.998843  0  0  -0.054911  0  4.020773  0  -0.069151  0  -0.087149  -0.050205  0  3.983971  0
C  C66  1  0.83719260  0.08404510  0.62437209  1  0  -0.159559  0  3.701932  0  0  -0.185448  0  3.954658  0  0  -0.18785  0  3.972977  0  -0.014255  0  -0.090092  -0.183731  0  3.942249  0
C  C67  1  0.16280928  0.91595431  0.37562920  1  0  -0.15957  0  3.701839  0  0  -0.185435  0  3.954598  0  0  -0.187842  0  3.972924  0  -0.014309  0  -0.090088  -0.183721  0  3.942189  0
C  C68  1  0.44343771  0.87545844  0.65881622  1  0  0.624854  0  3.846024  0  0  0.576657  0  4.144594  0  0  0.609047  0  4.136443  0  1.483607  0  0.219883  0.554682  0  4.149577  0
C  C69  1  0.55655922  0.12454391  0.34118375  1  0  0.624787  0  3.846087  0  0  0.576618  0  4.144619  0  0  0.609006  0  4.136472  0  1.483668  0  0.219853  0.554641  0  4.149604  0
C  C70  1  0.67963023  0.36816498  0.55303786  1  0  0.298639  0  3.778069  0  0  0.288452  0  4.041168  0  0  0.300195  0  4.055887  0  0.382875  0  0.092839  0.280138  0  4.031493  0
C  C71  1  0.32037131  0.63183541  0.44696327  1  0  0.298578  0  3.778108  0  0  0.288468  0  4.041133  0  0  0.300204  0  4.055862  0  0.382889  0  0.09282  0.280155  0  4.031456  0
C  C72  1  0.69350192  0.48057606  0.57532890  1  0  -0.151671  0  3.704038  0  0  -0.178158  0  3.966753  0  0  -0.182433  0  3.983925  0  0.042399  0  -0.091834  -0.175436  0  3.955572  0
C  C73  1  0.30649797  0.51942531  0.42467153  1  0  -0.151649  0  3.703988  0  0  -0.178177  0  3.966701  0  0  -0.182451  0  3.983885  0  0.04239  0  -0.091815  -0.175455  0  3.955521  0
C  C74  1  0.77534867  0.56885418  0.49498384  1  0  -0.034221  0  3.733941  0  0  -0.06011  0  3.991613  0  0  -0.058692  0  4.011071  0  -0.027885  0  -0.079183  -0.061012  0  3.978669  0
C  C75  1  0.22465122  0.43114719  0.50501585  1  0  -0.034237  0  3.733948  0  0  -0.06011  0  3.991634  0  0  -0.058714  0  4.011087  0  -0.028005  0  -0.079203  -0.061012  0  3.978692  0
C  C76  1  0.84660842  0.54899455  0.39168765  1  0  -0.115964  0  3.728877  0  0  -0.105925  0  3.970467  0  0  -0.113474  0  3.993352  0  0.006378  0  -0.024148  -0.100909  0  3.955091  0
C  C77  1  0.15338919  0.45100584  0.60831193  1  0  -0.11594  0  3.728815  0  0  -0.105909  0  3.970398  0  0  -0.113459  0  3.993289  0  0.006463  0  -0.024125  -0.100898  0  3.95503  0
C  C78  1  0.82146533  0.43832937  0.36874264  1  0  -0.057118  0  3.726105  0  0  -0.040256  0  3.960804  0  0  -0.043151  0  3.981773  0  -0.06214  0  -0.01457  -0.038004  0  3.946358  0
C  C79  1  0.17853228  0.56167101  0.63125768  1  0  -0.057003  0  3.726042  0  0  -0.040132  0  3.960718  0  0  -0.043028  0  3.981686  0  -0.062178  0  -0.014515  -0.037879  0  3.946275  0
C  C80  1  0.73890447  0.34949878  0.45016803  1  0  -0.196386  0  3.732568  0  0  -0.226418  0  3.982688  0  0  -0.232011  0  4.003299  0  0.038734  0  -0.096512  -0.22249  0  3.968759  0
C  C81  1  0.26109478  0.65050063  0.54983371  1  0  -0.196444  0  3.732628  0  0  -0.226501  0  3.982741  0  0  -0.232097  0  4.003356  0  0.038717  0  -0.096515  -0.222573  0  3.968811  0
C  C82  1  0.94431637  0.64999337  0.31901492  1  0  0.627297  0  3.853571  0  0  0.57875  0  4.159725  0  0  0.611061  0  4.151722  0  1.529614  0  0.214902  0.556744  0  4.164673  0
C  C83  1  0.05568255  0.35000702  0.68098517  1  0  0.627274  0  3.853564  0  0  0.57874  0  4.159708  0  0  0.61105  0  4.151707  0  1.529647  0  0.214887  0.556734  0  4.164656  0
C  C84  1  0.86577958  0.41038807  0.26040698  1  0  0.657925  0  3.871135  0  0  0.605954  0  4.164616  0  0  0.639067  0  4.157106  0  1.561457  0  0.215595  0.583438  0  4.168913  0
C  C85  1  0.13421934  0.58961232  0.73959311  1  0  0.657965  0  3.870982  0  0  0.606011  0  4.164437  0  0  0.639123  0  4.156925  0  1.561201  0  0.215633  0.583495  0  4.168735  0
N  N86  1  0.63758929  0.58786740  0.01949751  1  0  -0.301566  0  3.360207  0  0  -0.208944  0  3.640052  0  0  -0.229587  0  3.658519  0  -1.212353  0  -0.349268  -0.194889  0  3.627029  0
N  N87  1  0.36241555  0.41213102  0.98050204  1  0  -0.301573  0  3.360036  0  0  -0.208958  0  3.639893  0  0  -0.2296  0  3.65836  0  -1.212669  0  -0.349273  -0.194903  0  3.626868  0
N  N88  1  0.02793344  0.21702655  0.02339028  1  0  -0.293479  0  3.343561  0  0  -0.199447  0  3.619854  0  0  -0.219876  0  3.63774  0  -1.201723  0  -0.34674  -0.18582  0  3.607552  0
N  N89  1  0.97206547  0.78297384  0.97661055  1  0  -0.293383  0  3.343503  0  0  -0.199357  0  3.619802  0  0  -0.219787  0  3.63769  0  -1.201767  0  -0.346729  -0.185729  0  3.607498  0
O  O90  1  0.50795283  0.74413638  0.67719408  1  0  -0.569308  0  2.08823  0  0  -0.519185  0  2.313342  0  0  -0.541298  0  2.296598  0  -1.182955  0  -0.343891  -0.503467  0  2.322397  0
O  O91  1  0.49204541  0.25586597  0.32280640  1  0  -0.569299  0  2.088248  0  0  -0.519179  0  2.313351  0  0  -0.541282  0  2.296601  0  -1.183006  0  -0.343891  -0.503462  0  2.322407  0
O  O92  1  0.28286799  0.93048579  0.65888505  1  0  -0.537325  0  1.930521  0  0  -0.491361  0  2.141673  0  0  -0.510792  0  2.134663  0  -1.148966  0  -0.285934  -0.47798  0  2.146253  0
O  O93  1  0.71713025  0.06951656  0.34111616  1  0  -0.537313  0  1.930491  0  0  -0.491358  0  2.141628  0  0  -0.510789  0  2.134618  0  -1.148896  0  -0.285919  -0.477968  0  2.146201  0
O  O94  1  0.59662216  0.28222259  0.63370163  1  0  -0.306619  0  2.324945  0  0  -0.238593  0  2.549474  0  0  -0.257016  0  2.553191  0  -1.101465  0  -0.156433  -0.225695  0  2.546712  0
O  O95  1  0.40338171  0.71777484  0.36630053  1  0  -0.306685  0  2.324969  0  0  -0.238677  0  2.549479  0  0  -0.257093  0  2.553197  0  -1.101428  0  -0.156512  -0.225774  0  2.54671  0
O  O96  1  0.76238709  0.35828334  0.23950085  1  0  -0.625961  0  2.067529  0  0  -0.563988  0  2.31355  0  0  -0.589016  0  2.300638  0  -1.186755  0  -0.311408  -0.546412  0  2.32149  0
O  O97  1  0.23761052  0.64171705  0.76050020  1  0  -0.625953  0  2.067475  0  0  -0.563989  0  2.313486  0  0  -0.589018  0  2.300572  0  -1.186725  0  -0.311388  -0.546415  0  2.321426  0
O  O98  1  0.00413152  0.43952968  0.19207413  1  0  -0.63457  0  2.077473  0  0  -0.576213  0  2.322606  0  0  -0.600672  0  2.308125  0  -1.183028  0  -0.320299  -0.558871  0  2.332073  0
O  O99  1  0.99586541  0.56047267  0.80792658  1  0  -0.634611  0  2.07738  0  0  -0.576269  0  2.32251  0  0  -0.600726  0  2.308029  0  -1.182817  0  -0.320362  -0.558928  0  2.33198  0
O  O100  1  0.06997832  0.61880406  0.23504601  1  0  -0.578776  0  2.122192  0  0  -0.532003  0  2.353725  0  0  -0.554116  0  2.336946  0  -1.186654  0  -0.346738  -0.516319  0  2.36498  0
O  O101  1  0.93002026  0.38119731  0.76495391  1  0  -0.578752  0  2.122209  0  0  -0.531984  0  2.353735  0  0  -0.5541  0  2.336958  0  -1.186691  0  -0.346735  -0.5163  0  2.36499  0
O  O102  1  0.91551639  0.75841030  0.33907874  1  0  -0.538966  0  1.948923  0  0  -0.500114  0  2.173203  0  0  -0.518634  0  2.163571  0  -1.155961  0  -0.287948  -0.487219  0  2.179525  0
O  O103  1  0.08448418  0.24158910  0.66092131  1  0  -0.53893  0  1.948884  0  0  -0.500107  0  2.173186  0  0  -0.518629  0  2.163558  0  -1.155956  0  -0.287928  -0.487214  0  2.179512  0
