# generated using pymatgen
data_Zn2PH4C7O5F
_symmetry_space_group_name_H-M   'P 1'
_cell_length_a   5.75484029
_cell_length_b   8.56676225
_cell_length_c   19.44672944
_cell_angle_alpha   90.00021125
_cell_angle_beta   89.99999089
_cell_angle_gamma   100.96651139
_symmetry_Int_Tables_number   1
_chemical_formula_structural   Zn2PH4C7O5F
_chemical_formula_sum   'Zn8 P4 H16 C28 O20 F4'
_cell_volume   941.22272123
_cell_formula_units_Z   4
loop_
 _symmetry_equiv_pos_site_id
 _symmetry_equiv_pos_as_xyz
  1  'x, y, z'
loop_
 _atom_site_type_symbol
 _atom_site_label
 _atom_site_symmetry_multiplicity
 _atom_site_fract_x
 _atom_site_fract_y
 _atom_site_fract_z
 _atom_site_occupancy
 _atom_site_hle17_bader_spin_density
 _atom_site_hle17_ddec_charge
 _atom_site_hle17_ddec_spin_density
 _atom_site_hle17_ddec_sum_bond_order
 _atom_site_hle17_magmom
 _atom_site_hse06_10hf_bader_spin_density
 _atom_site_hse06_10hf_ddec_charge
 _atom_site_hse06_10hf_ddec_spin_density
 _atom_site_hse06_10hf_ddec_sum_bond_order
 _atom_site_hse06_10hf_magmom
 _atom_site_hse06_bader_spin_density
 _atom_site_hse06_ddec_charge
 _atom_site_hse06_ddec_spin_density
 _atom_site_hse06_ddec_sum_bond_order
 _atom_site_hse06_magmom
 _atom_site_pbe_bader_spin_density
 _atom_site_pbe_cm5_charge
 _atom_site_pbe_ddec_charge
 _atom_site_pbe_ddec_spin_density
 _atom_site_pbe_ddec_sum_bond_order
 _atom_site_pbe_magmom
Zn  Zn0  1  0.25498024  0.03765023  0.46908456  1  0  1.257591  0  1.674401  0  0  1.093368  0  2.136066  0  0  1.143611  0  2.065676  0  0  0.689748  1.057342  0  2.185116  0
Zn  Zn1  1  0.74501879  0.46234956  0.96908465  1  0  1.257593  0  1.6744  0  0  1.093375  0  2.136059  0  0  1.143616  0  2.065671  0  0  0.689738  1.057349  0  2.185109  0
Zn  Zn2  1  0.74502098  0.96235071  0.53091626  1  0  1.257561  0  1.674432  0  0  1.093331  0  2.136108  0  0  1.143574  0  2.06572  0  0  0.689731  1.057305  0  2.185158  0
Zn  Zn3  1  0.25497687  0.53765023  0.03091617  1  0  1.257572  0  1.674397  0  0  1.093351  0  2.136048  0  0  1.143595  0  2.06566  0  0  0.68974  1.057327  0  2.185096  0
Zn  Zn4  1  0.65294327  0.36262306  0.50156791  1  0  1.247988  0  1.747527  0  0  1.088471  0  2.216301  0  0  1.133784  0  2.151243  0  0  0.704266  1.056393  0  2.26145  0
Zn  Zn5  1  0.34705418  0.13737629  0.00156798  1  0  1.247915  0  1.747578  0  0  1.088408  0  2.216357  0  0  1.13372  0  2.1513  0  0  0.704246  1.05633  0  2.261509  0
Zn  Zn6  1  0.34706004  0.63737906  0.49843188  1  0  1.247951  0  1.747622  0  0  1.088454  0  2.216403  0  0  1.133765  0  2.151345  0  0  0.704257  1.056374  0  2.261554  0
Zn  Zn7  1  0.65294078  0.86262112  0.99843181  1  0  1.247974  0  1.747584  0  0  1.08846  0  2.216361  0  0  1.133772  0  2.151302  0  0  0.704269  1.056383  0  2.261514  0
P  P8  1  0.88435892  0.19731358  0.06795038  1  0  1.519199  0  4.773352  0  0  1.355491  0  5.260558  0  0  1.407224  0  5.222885  0  0  0.362142  1.319236  0  5.286121  0
P  P9  1  0.11563728  0.30268755  0.56795024  1  0  1.519195  0  4.773283  0  0  1.355517  0  5.260495  0  0  1.407254  0  5.222823  0  0  0.362177  1.319256  0  5.286069  0
P  P10  1  0.11563604  0.80268383  0.93204941  1  0  1.519247  0  4.773204  0  0  1.355577  0  5.260402  0  0  1.407307  0  5.222734  0  0  0.362206  1.319314  0  5.285969  0
P  P11  1  0.88436430  0.69731458  0.43204955  1  0  1.519186  0  4.773358  0  0  1.355536  0  5.260554  0  0  1.407269  0  5.222884  0  0  0.362135  1.319269  0  5.286124  0
H  H12  1  0.97470711  0.35726413  0.31230779  1  0  0.112049  0  0.93683  0  0  0.123077  0  0.993653  0  0  0.126237  0  0.99206  0  0  0.108903  0.120713  0  0.994963  0
H  H13  1  0.02528468  0.14273436  0.81230689  1  0  0.112024  0  0.936852  0  0  0.123069  0  0.993653  0  0  0.126218  0  0.992074  0  0  0.108892  0.120712  0  0.994957  0
H  H14  1  0.02529376  0.64273563  0.68769148  1  0  0.112036  0  0.936838  0  0  0.12306  0  0.993664  0  0  0.12622  0  0.99207  0  0  0.108883  0.120696  0  0.994976  0
H  H15  1  0.97470960  0.85726662  0.18769188  1  0  0.112049  0  0.936831  0  0  0.123073  0  0.993658  0  0  0.126233  0  0.992064  0  0  0.108897  0.120712  0  0.994967  0
H  H16  1  0.10938628  0.35276044  0.19013611  1  0  0.095383  0  0.951515  0  0  0.106041  0  1.01339  0  0  0.108908  0  1.012049  0  0  0.105197  0.103857  0  1.014602  0
H  H17  1  0.89060807  0.14724055  0.69013465  1  0  0.095314  0  0.951616  0  0  0.106042  0  1.013419  0  0  0.10891  0  1.012075  0  0  0.105207  0.103853  0  1.014637  0
H  H18  1  0.89061251  0.64723813  0.80986265  1  0  0.095424  0  0.951548  0  0  0.106074  0  1.013428  0  0  0.108941  0  1.012088  0  0  0.105214  0.103893  0  1.014638  0
H  H19  1  0.10939247  0.85276397  0.30986359  1  0  0.095327  0  0.951566  0  0  0.106054  0  1.013372  0  0  0.108922  0  1.012029  0  0  0.105198  0.10386  0  1.014596  0
H  H20  1  0.43312382  0.06545769  0.13614633  1  0  0.099689  0  0.964412  0  0  0.111251  0  1.024838  0  0  0.114167  0  1.023138  0  0  0.103668  0.109093  0  1.026229  0
H  H21  1  0.56687181  0.43454165  0.63614741  1  0  0.099726  0  0.964442  0  0  0.111303  0  1.024836  0  0  0.114215  0  1.023139  0  0  0.103695  0.109145  0  1.026228  0
H  H22  1  0.56687323  0.93454090  0.86385398  1  0  0.099734  0  0.964407  0  0  0.111291  0  1.024824  0  0  0.114197  0  1.023136  0  0  0.103679  0.109132  0  1.026216  0
H  H23  1  0.43313115  0.56545929  0.36385341  1  0  0.099717  0  0.964419  0  0  0.111293  0  1.024815  0  0  0.114208  0  1.023116  0  0  0.103667  0.109135  0  1.026207  0
H  H24  1  0.30247188  0.07358868  0.25702271  1  0  0.099227  0  0.960821  0  0  0.109107  0  1.023329  0  0  0.111694  0  1.022341  0  0  0.105755  0.107174  0  1.024193  0
H  H25  1  0.69752119  0.42640814  0.75702326  1  0  0.0992  0  0.960855  0  0  0.109084  0  1.023377  0  0  0.111673  0  1.02238  0  0  0.105741  0.107158  0  1.024233  0
H  H26  1  0.69752517  0.92640991  0.74297811  1  0  0.099201  0  0.960867  0  0  0.109075  0  1.023388  0  0  0.111662  0  1.022397  0  0  0.105725  0.107143  0  1.024251  0
H  H27  1  0.30247622  0.57359164  0.24297808  1  0  0.099205  0  0.960817  0  0  0.109074  0  1.023359  0  0  0.11167  0  1.022347  0  0  0.10573  0.107139  0  1.024226  0
C  C28  1  0.55414723  0.21414015  0.36512840  1  0  0.686206  0  3.856389  0  0  0.635162  0  4.144491  0  0  0.671586  0  4.135489  0  0  0.228454  0.610309  0  4.149922  0
C  C29  1  0.44584916  0.28585638  0.86512873  1  0  0.686309  0  3.856359  0  0  0.635239  0  4.144495  0  0  0.671665  0  4.135492  0  0  0.228553  0.610387  0  4.149926  0
C  C30  1  0.44585884  0.78585957  0.63487242  1  0  0.686136  0  3.856432  0  0  0.63507  0  4.144565  0  0  0.671494  0  4.135566  0  0  0.228418  0.610218  0  4.149992  0
C  C31  1  0.55414616  0.71414222  0.13487209  1  0  0.686236  0  3.856343  0  0  0.635199  0  4.144428  0  0  0.671623  0  4.135428  0  0  0.228509  0.610347  0  4.149859  0
C  C32  1  0.63138074  0.21446212  0.29183124  1  0  -0.06717  0  3.748985  0  0  -0.042127  0  3.976999  0  0  -0.051359  0  4.001656  0  0  -0.014898  -0.036057  0  3.960335  0
C  C33  1  0.36861586  0.28553498  0.79183054  1  0  -0.067168  0  3.748894  0  0  -0.042077  0  3.976874  0  0  -0.051309  0  4.001527  0  0  -0.014849  -0.036009  0  3.960213  0
C  C34  1  0.36861840  0.78553765  0.70816907  1  0  -0.067168  0  3.749011  0  0  -0.042111  0  3.977009  0  0  -0.051342  0  4.001665  0  0  -0.014849  -0.03604  0  3.960343  0
C  C35  1  0.63138327  0.71446479  0.20816925  1  0  -0.067166  0  3.749037  0  0  -0.042112  0  3.977029  0  0  -0.051345  0  4.001687  0  0  -0.014849  -0.036042  0  3.960365  0
C  C36  1  0.85870316  0.29427767  0.27290523  1  0  -0.052749  0  3.692839  0  0  -0.077461  0  3.941132  0  0  -0.077548  0  3.962132  0  0  -0.074689  -0.077204  0  3.926843  0
C  C37  1  0.14128994  0.20571928  0.77290545  1  0  -0.052793  0  3.692647  0  0  -0.07752  0  3.940942  0  0  -0.077602  0  3.961944  0  0  -0.074722  -0.07727  0  3.926654  0
C  C38  1  0.14129563  0.70572091  0.72709404  1  0  -0.052761  0  3.692829  0  0  -0.077462  0  3.9411  0  0  -0.077551  0  3.962099  0  0  -0.074699  -0.077209  0  3.926815  0
C  C39  1  0.85870608  0.79428169  0.22709434  1  0  -0.052769  0  3.692783  0  0  -0.077484  0  3.941092  0  0  -0.077572  0  3.962091  0  0  -0.074697  -0.077229  0  3.926803  0
C  C40  1  0.93272394  0.29125077  0.20489071  1  0  -0.042418  0  3.737133  0  0  -0.064791  0  3.983995  0  0  -0.0666  0  4.006108  0  0  -0.077295  -0.063504  0  3.96904  0
C  C41  1  0.06726906  0.20875155  0.70488991  1  0  -0.042327  0  3.737004  0  0  -0.06474  0  3.983891  0  0  -0.066545  0  4.005998  0  0  -0.077301  -0.06345  0  3.968936  0
C  C42  1  0.06727485  0.70874780  0.79510857  1  0  -0.042468  0  3.737186  0  0  -0.064827  0  3.984072  0  0  -0.066635  0  4.006183  0  0  -0.07733  -0.063546  0  3.969113  0
C  C43  1  0.93272975  0.79125298  0.29510886  1  0  -0.042378  0  3.737072  0  0  -0.064786  0  3.983955  0  0  -0.066596  0  4.006068  0  0  -0.077317  -0.063494  0  3.969002  0
C  C44  1  0.78097137  0.20825832  0.15495217  1  0  -0.223927  0  3.741785  0  0  -0.184361  0  3.982453  0  0  -0.192821  0  4.004901  0  0  -0.016794  -0.178533  0  3.967328  0
C  C45  1  0.21902255  0.29174118  0.65495201  1  0  -0.2238  0  3.741631  0  0  -0.18432  0  3.982418  0  0  -0.192782  0  4.004866  0  0  -0.016703  -0.178486  0  3.967279  0
C  C46  1  0.21902497  0.79173789  0.84504762  1  0  -0.223795  0  3.741642  0  0  -0.184287  0  3.982362  0  0  -0.192747  0  4.004809  0  0  -0.016694  -0.17845  0  3.967223  0
C  C47  1  0.78097937  0.70826214  0.34504778  1  0  -0.223831  0  3.741677  0  0  -0.184359  0  3.982463  0  0  -0.192818  0  4.004912  0  0  -0.01674  -0.178519  0  3.967321  0
C  C48  1  0.55377510  0.12967243  0.17402936  1  0  -0.036278  0  3.740055  0  0  -0.061819  0  3.989756  0  0  -0.063489  0  4.01192  0  0  -0.080192  -0.060723  0  3.974812  0
C  C49  1  0.44622060  0.37032723  0.67402983  1  0  -0.036484  0  3.74022  0  0  -0.061992  0  3.989917  0  0  -0.063658  0  4.012082  0  0  -0.080284  -0.060901  0  3.974975  0
C  C50  1  0.44622333  0.87032496  0.82597095  1  0  -0.036496  0  3.740178  0  0  -0.061996  0  3.989871  0  0  -0.063661  0  4.012039  0  0  -0.080273  -0.060905  0  3.974927  0
C  C51  1  0.55378133  0.62967609  0.32597099  1  0  -0.036485  0  3.740219  0  0  -0.061981  0  3.989904  0  0  -0.063652  0  4.012072  0  0  -0.080245  -0.060892  0  3.974962  0
C  C52  1  0.47925389  0.13337416  0.24198012  1  0  -0.060564  0  3.71441  0  0  -0.083902  0  3.960939  0  0  -0.084146  0  3.982539  0  0  -0.077594  -0.083518  0  3.946267  0
C  C53  1  0.52073915  0.36662253  0.74198058  1  0  -0.060489  0  3.71458  0  0  -0.083863  0  3.961119  0  0  -0.084105  0  3.982719  0  0  -0.077619  -0.083486  0  3.946443  0
C  C54  1  0.52074627  0.86662322  0.75802070  1  0  -0.060452  0  3.714502  0  0  -0.083799  0  3.961015  0  0  -0.084041  0  3.982612  0  0  -0.07758  -0.083418  0  3.946342  0
C  C55  1  0.47925861  0.63337844  0.25802024  1  0  -0.060457  0  3.714501  0  0  -0.083815  0  3.961027  0  0  -0.084058  0  3.982627  0  0  -0.077582  -0.08343  0  3.946357  0
O  O56  1  0.34543480  0.13920782  0.37997762  1  0  -0.654157  0  2.034583  0  0  -0.58628  0  2.30654  0  0  -0.614611  0  2.287608  0  0  -0.316504  -0.566481  0  2.319012  0
O  O57  1  0.65456197  0.36079003  0.87997755  1  0  -0.654208  0  2.034648  0  0  -0.586317  0  2.306615  0  0  -0.614649  0  2.287684  0  0  -0.316534  -0.566517  0  2.319089  0
O  O58  1  0.65457301  0.86079189  0.62002268  1  0  -0.654097  0  2.034648  0  0  -0.586214  0  2.306616  0  0  -0.614545  0  2.287687  0  0  -0.316466  -0.566414  0  2.319087  0
O  O59  1  0.34543299  0.63920738  0.12002275  1  0  -0.654146  0  2.034575  0  0  -0.586267  0  2.306518  0  0  -0.614599  0  2.287587  0  0  -0.316507  -0.566468  0  2.318992  0
O  O60  1  0.70331202  0.28845440  0.40780967  1  0  -0.650535  0  2.088178  0  0  -0.581363  0  2.361938  0  0  -0.609127  0  2.34444  0  0  -0.309  -0.56205  0  2.37343  0
O  O61  1  0.29668654  0.21154368  0.90780937  1  0  -0.650501  0  2.088112  0  0  -0.581371  0  2.361936  0  0  -0.609135  0  2.344439  0  0  -0.309027  -0.56206  0  2.373429  0
O  O62  1  0.29669199  0.71155011  0.59219012  1  0  -0.650508  0  2.088073  0  0  -0.581328  0  2.361849  0  0  -0.609093  0  2.344356  0  0  -0.308987  -0.562015  0  2.373339  0
O  O63  1  0.70331016  0.78845372  0.09219042  1  0  -0.65054  0  2.088132  0  0  -0.581364  0  2.361883  0  0  -0.609129  0  2.344389  0  0  -0.309031  -0.562052  0  2.373375  0
O  O64  1  0.95258229  0.36898028  0.03714226  1  0  -0.906762  0  2.100969  0  0  -0.79974  0  2.418422  0  0  -0.831999  0  2.386859  0  0  -0.374105  -0.776723  0  2.439572  0
O  O65  1  0.04741385  0.13102058  0.53714184  1  0  -0.906778  0  2.100955  0  0  -0.799768  0  2.418419  0  0  -0.832026  0  2.386855  0  0  -0.37414  -0.776751  0  2.439573  0
O  O66  1  0.04741406  0.63101593  0.96285754  1  0  -0.906763  0  2.100883  0  0  -0.79977  0  2.418358  0  0  -0.832027  0  2.386794  0  0  -0.374129  -0.776754  0  2.439514  0
O  O67  1  0.95258563  0.86898037  0.46285846  1  0  -0.906734  0  2.100997  0  0  -0.799714  0  2.418437  0  0  -0.831972  0  2.386871  0  0  -0.374102  -0.776697  0  2.439594  0
O  O68  1  0.09615126  0.11440187  0.07001341  1  0  -0.844845  0  2.006788  0  0  -0.75581  0  2.297595  0  0  -0.784964  0  2.272859  0  0  -0.367161  -0.735109  0  2.314088  0
O  O69  1  0.90384773  0.38560283  0.57001285  1  0  -0.844847  0  2.006731  0  0  -0.755811  0  2.297523  0  0  -0.784969  0  2.272788  0  0  -0.367171  -0.735109  0  2.314017  0
O  O70  1  0.90384543  0.88559553  0.92998690  1  0  -0.844834  0  2.006789  0  0  -0.75581  0  2.297572  0  0  -0.784956  0  2.272828  0  0  -0.367175  -0.735112  0  2.31407  0
O  O71  1  0.09615593  0.61440049  0.42998797  1  0  -0.844813  0  2.006678  0  0  -0.755851  0  2.297533  0  0  -0.785003  0  2.272795  0  0  -0.367176  -0.735147  0  2.314027  0
O  O72  1  0.67808546  0.10245424  0.02478315  1  0  -0.906254  0  2.140627  0  0  -0.802665  0  2.4561  0  0  -0.833287  0  2.426808  0  0  -0.371727  -0.78117  0  2.475974  0
O  O73  1  0.32191239  0.39754651  0.52478368  1  0  -0.906255  0  2.140657  0  0  -0.802668  0  2.45613  0  0  -0.833293  0  2.426839  0  0  -0.371732  -0.781168  0  2.476002  0
O  O74  1  0.32191124  0.89754316  0.97521612  1  0  -0.906323  0  2.140633  0  0  -0.802726  0  2.456091  0  0  -0.833353  0  2.426807  0  0  -0.371766  -0.781211  0  2.475948  0
O  O75  1  0.67808918  0.60245563  0.47521560  1  0  -0.906305  0  2.140759  0  0  -0.802702  0  2.456198  0  0  -0.833329  0  2.426912  0  0  -0.37173  -0.781191  0  2.47606  0
F  F76  1  0.53154711  0.12600392  0.53661937  1  0  -0.671648  0  0.972852  0  0  -0.581602  0  1.214022  0  0  -0.607213  0  1.181046  0  0  -0.328176  -0.563  0  1.236557  0
F  F77  1  0.46845979  0.37399806  0.03661828  1  0  -0.671648  0  0.97287  0  0  -0.581612  0  1.214053  0  0  -0.607223  0  1.181077  0  0  -0.328173  -0.563011  0  1.236588  0
F  F78  1  0.46845446  0.87399821  0.46338196  1  0  -0.671638  0  0.972866  0  0  -0.581615  0  1.214061  0  0  -0.607226  0  1.181085  0  0  -0.328158  -0.563014  0  1.236598  0
F  F79  1  0.53154664  0.62600285  0.96338203  1  0  -0.671641  0  0.972855  0  0  -0.581613  0  1.21405  0  0  -0.607225  0  1.181073  0  0  -0.32817  -0.563012  0  1.236586  0
