# generated using pymatgen
data_Al3H24C49O15
_symmetry_space_group_name_H-M   'P 1'
_cell_length_a   13.10139471
_cell_length_b   12.62540371
_cell_length_c   27.66020209
_cell_angle_alpha   89.01265663
_cell_angle_beta   89.91838491
_cell_angle_gamma   60.27930593
_symmetry_Int_Tables_number   1
_chemical_formula_structural   Al3H24C49O15
_chemical_formula_sum   'Al6 H48 C98 O30'
_cell_volume   3972.69429986
_cell_formula_units_Z   2
loop_
 _symmetry_equiv_pos_site_id
 _symmetry_equiv_pos_as_xyz
  1  'x, y, z'
loop_
 _atom_site_type_symbol
 _atom_site_label
 _atom_site_symmetry_multiplicity
 _atom_site_fract_x
 _atom_site_fract_y
 _atom_site_fract_z
 _atom_site_occupancy
 _atom_site_pbe_bader_charge
 _atom_site_pbe_bader_spin_density
 _atom_site_pbe_cm5_charge
 _atom_site_pbe_ddec_charge
 _atom_site_pbe_ddec_spin_density
 _atom_site_pbe_ddec_sum_bond_order
 _atom_site_pbe_magmom
Al  Al0  1  0.59723751  0.81120972  0.50143339  1  2.494701  0  0.397239  1.686351  0  2.555162  0
Al  Al1  1  0.35593660  0.06576121  0.50044472  1  2.480426  0  0.500174  1.657788  0  2.525096  0
Al  Al2  1  0.58072277  0.07301585  0.49980158  1  2.484874  0  0.505592  1.660234  0  2.506671  0
Al  Al3  1  0.08522730  0.83996188  0.01456494  1  2.489225  0  0.396207  1.69061  0  2.550323  0
Al  Al4  1  0.09635686  0.58096096  0.01761071  1  2.483214  0  0.505747  1.661316  0  2.508819  0
Al  Al5  1  0.32488528  0.58108088  0.01727568  1  2.47886  0  0.502983  1.65942  0  2.511101  0
H  H6  1  0.17777466  0.29251556  0.78803829  1  0.05257  0  0.105684  0.095754  0  0.985009  0
H  H7  1  0.69937814  0.77161835  0.79566701  1  0.055082  0  0.102465  0.091989  0  0.99551  0
H  H8  1  0.86809335  0.64201434  0.72332908  1  0.063928  0  0.103965  0.09287  0  0.987887  0
H  H9  1  0.03757159  0.67135907  0.77654280  1  0.07833  0  0.09893  0.085706  0  1.009177  0
H  H10  1  0.54128194  0.66058485  0.78640246  1  0.086196  0  0.103637  0.092731  0  0.989491  0
H  H11  1  0.39286565  0.63318512  0.71887557  1  0.076099  0  0.102666  0.09143  0  0.995786  0
H  H12  1  0.49212463  0.88153328  0.73831275  1  0.060235  0  0.099887  0.086481  0  1.008108  0
H  H13  1  0.29830719  0.01158579  0.80137686  1  0.072911  0  0.10371  0.093775  0  0.992178  0
H  H14  1  0.15012679  0.98420905  0.73384439  1  0.095386  0  0.103461  0.092212  0  0.989771  0
H  H15  1  0.19896146  0.76376398  0.78192266  1  0.056156  0  0.100675  0.087073  0  1.005295  0
H  H16  1  0.13775769  0.40850507  0.13854013  1  0.105848  0  0.110014  0.116067  0  1.008603  0
H  H17  1  0.14693739  0.46676525  0.71497681  1  0.073067  0  0.105299  0.095878  0  0.989318  0
H  H18  1  0.05172649  0.39674899  0.21626435  1  0.063372  0  0.09957  0.096453  0  1.022152  0
H  H19  1  0.06036332  0.38437674  0.30494859  1  0.130222  0  0.104592  0.10439  0  1.054641  0
H  H20  1  0.49303599  0.34065755  0.13311504  1  0.125835  0  0.111254  0.11834  0  0.992935  0
H  H21  1  0.61989190  0.26878195  0.20803915  1  0.05318  0  0.102639  0.103018  0  0.997816  0
H  H22  1  0.63634609  0.23414372  0.29654079  1  0.043412  0  0.098413  0.094853  0  1.026472  0
H  H23  1  0.54846786  0.22117223  0.37488184  1  0.095323  0  0.109649  0.11606  0  1.010047  0
H  H24  1  0.92293861  0.94532700  0.13759812  1  0.122879  0  0.113228  0.12165  0  0.998813  0
H  H25  1  0.77143808  0.04442961  0.37457068  1  0.072325  0  0.106158  0.110193  0  1.007421  0
H  H26  1  0.88058774  0.07376622  0.21100178  1  0.055038  0  0.101725  0.099942  0  1.001086  0
H  H27  1  0.38634990  0.11859178  0.74197382  1  0.096385  0  0.100759  0.087978  0  1.013417  0
H  H28  1  0.83371366  0.10578266  0.29802905  1  0.047679  0  0.10082  0.099158  0  0.999711  0
H  H29  1  0.92457619  0.60502236  0.14728852  1  0.08787  0  0.106491  0.113649  0  1.003881  0
H  H30  1  0.88133402  0.53470544  0.22625875  1  0.06149  0  0.106922  0.121418  0  1.002306  0
H  H31  1  0.79114216  0.69528824  0.38558177  1  0.129328  0  0.120251  0.132463  0  0.996262  0
H  H32  1  0.43633979  0.58631644  0.15212594  1  0.090462  0  0.106886  0.113183  0  1.01072  0
H  H33  1  0.49982875  0.67368196  0.38869100  1  0.126942  0  0.114731  0.124536  0  0.993091  0
H  H34  1  0.52543443  0.49929928  0.23323032  1  0.08239  0  0.096066  0.095419  0  1.035741  0
H  H35  1  0.54310665  0.52845442  0.32027927  1  0.061503  0  0.10377  0.10363  0  1.002886  0
H  H36  1  0.14527289  0.95119640  0.13968943  1  0.08364  0  0.110815  0.118341  0  0.998543  0
H  H37  1  0.51814294  0.19431649  0.79907761  1  0.059597  0  0.105501  0.095774  0  0.98983  0
H  H38  1  0.07348265  0.08273422  0.21232847  1  0.032075  0  0.10188  0.100636  0  0.998108  0
H  H39  1  0.09338227  0.11322693  0.29911410  1  0.04749  0  0.098547  0.09815  0  1.015583  0
H  H40  1  0.20899337  0.03807395  0.37644756  1  0.094071  0  0.103306  0.103115  0  1.051347  0
H  H41  1  0.48742100  0.36839541  0.72598610  1  0.058679  0  0.105167  0.094489  0  0.98716  0
H  H42  1  0.27880286  0.54236949  0.77199748  1  0.057272  0  0.100132  0.085751  0  1.020125  0
H  H43  1  0.80210908  0.02185318  0.79665914  1  0.069116  0  0.106145  0.096367  0  0.985086  0
H  H44  1  0.97073093  0.89232900  0.72430757  1  0.067615  0  0.102291  0.090983  0  0.993939  0
H  H45  1  0.63256774  0.99261213  0.74343475  1  0.055191  0  0.098538  0.08479  0  1.011663  0
H  H46  1  0.13198127  0.21255030  0.41816416  1  0.058187  0  0.102149  0.106007  0  1.007167  0
H  H47  1  0.10937008  0.23402973  0.35399996  1  0.051488  0  0.09315  0.081291  0  1.052013  0
H  H48  1  0.00524800  0.34652483  0.39372803  1  0.116201  0  0.110629  0.120976  0  0.972391  0
H  H49  1  0.67732250  0.62917558  0.33721411  1  0.062573  0  0.099489  0.099595  0  1.013297  0
H  H50  1  0.75841936  0.46798320  0.34898909  1  0.050005  0  0.106527  0.111321  0  0.976015  0
H  H51  1  0.71811172  0.52603036  0.28784794  1  0.056719  0  0.089153  0.083185  0  1.021434  0
H  H52  1  0.69186184  0.61050013  0.53193223  1  0.598743  0  0.291761  0.382618  0  0.923768  0
H  H53  1  0.03809534  0.04085114  0.03060636  1  0.566583  0  0.287549  0.374901  0  0.935915  0
C  C54  1  0.39029622  0.89085472  0.56968420  1  1.66282  0  0.275328  0.71245  0  4.168411  0
C  C55  1  0.37379899  0.25912102  0.61536282  1  0.323069  0  -0.042624  -0.206512  0  3.966609  0
C  C56  1  0.30273887  0.44805883  0.76474423  1  -0.003266  0  -0.067791  -0.074707  0  3.627663  0
C  C57  1  0.31954329  0.35126042  0.80596975  1  0.122337  0  0.00953  0.118493  0  3.789971  0
C  C58  1  0.41859870  0.35176664  0.74018465  1  -0.019087  0  -0.069088  -0.079517  0  3.633182  0
C  C59  1  0.34554629  0.30983362  0.70805675  1  0.141321  0  0.009626  0.118423  0  3.790035  0
C  C60  1  0.43594674  0.25455704  0.77989657  1  -0.000767  0  -0.06693  -0.076425  0  3.626101  0
C  C61  1  0.36240690  0.21292312  0.74927213  1  -0.053916  0  -0.067079  -0.075495  0  3.625427  0
C  C62  1  0.30579060  0.37696214  0.85590606  1  -0.513231  0  -0.019293  -0.027294  0  4.065704  0
C  C63  1  0.35967363  0.28438256  0.65811878  1  -0.605613  0  -0.017088  -0.022993  0  4.061765  0
C  C64  1  0.91065190  0.86549721  0.74061186  1  -0.017962  0  -0.06929  -0.078207  0  3.630683  0
C  C65  1  0.40006589  0.20843139  0.56788256  1  1.632787  0  0.2823  0.72287  0  4.150823  0
C  C66  1  0.81652619  0.93788169  0.77982074  1  -0.022889  0  -0.069093  -0.079824  0  3.630969  0
C  C67  1  0.90569732  0.77843663  0.90193380  1  0.277863  0  -0.040653  -0.198572  0  3.972189  0
C  C68  1  0.76652084  0.88224118  0.61778083  1  0.145611  0  -0.044795  -0.201614  0  3.977919  0
C  C69  1  0.94745924  0.74291117  0.76847565  1  -0.045884  0  -0.068282  -0.075517  0  3.630757  0
C  C70  1  0.85365266  0.81504590  0.80909772  1  0.10975  0  0.009522  0.123386  0  3.795047  0
C  C71  1  0.85362573  0.72601849  0.74015738  1  -0.019919  0  -0.070198  -0.079982  0  3.635108  0
C  C72  1  0.81646358  0.84878968  0.71085411  1  0.140934  0  0.008871  0.123241  0  3.795521  0
C  C73  1  0.75947651  0.79840735  0.77935035  1  -0.004379  0  -0.069835  -0.080649  0  3.633631  0
C  C74  1  0.72266101  0.92102103  0.75146071  1  -0.018245  0  -0.069199  -0.076713  0  3.63281  0
C  C75  1  0.87856771  0.79515357  0.85920441  1  -0.539955  0  -0.024485  -0.038127  0  4.075803  0
C  C76  1  0.71695081  0.90026260  0.56994685  1  1.641575  0  0.275276  0.713919  0  4.162044  0
C  C77  1  0.79225808  0.86756682  0.66066323  1  -0.446241  0  -0.026998  -0.042109  0  4.083162  0
C  C78  1  0.37207321  0.71671670  0.73784091  1  -0.03023  0  -0.069308  -0.077618  0  3.629286  0
C  C79  1  0.45456055  0.73242544  0.77427898  1  -0.036952  0  -0.070826  -0.08239  0  3.639404  0
C  C80  1  0.33301356  0.77296260  0.90264120  1  0.22166  0  -0.041415  -0.197032  0  3.975306  0
C  C81  1  0.36136207  0.86888953  0.61753833  1  -0.086507  0  -0.044634  -0.201212  0  3.982324  0
C  C82  1  0.26426395  0.78966799  0.77145088  1  -0.023891  0  -0.067868  -0.075166  0  3.627694  0
C  C83  1  0.34723270  0.80456411  0.80922591  1  0.11091  0  0.009683  0.121994  0  3.806376  0
C  C84  1  0.23693185  0.91235177  0.74590717  1  -0.053131  0  -0.07045  -0.081698  0  3.63612  0
C  C85  1  0.34442359  0.83992876  0.71097720  1  0.144127  0  0.008161  0.123139  0  3.804255  0
C  C86  1  0.31936302  0.92802079  0.78238714  1  -0.021745  0  -0.068241  -0.077778  0  3.629245  0
C  C87  1  0.39140282  0.88842929  0.43348629  1  1.550521  0  0.272595  0.639869  0  4.086035  0
C  C88  1  0.42714460  0.85520136  0.74877919  1  -0.018803  0  -0.068627  -0.077498  0  3.632106  0
C  C89  1  0.34299344  0.78714219  0.85956220  1  -0.501646  0  -0.025293  -0.038131  0  4.082591  0
C  C90  1  0.34985575  0.85630723  0.66061619  1  -0.216698  0  -0.026153  -0.040618  0  4.087388  0
C  C91  1  0.25772097  0.31107796  0.36058270  1  0.552159  0  0.104671  0.20874  0  3.98092  0
C  C92  1  0.24724716  0.32734046  0.30964377  1  0.007863  0  -0.011138  -0.027538  0  4.002892  0
C  C93  1  0.23085741  0.35745591  0.20705767  1  -0.067454  0  -0.005291  0.079969  0  4.04588  0
C  C94  1  0.13327165  0.37265277  0.23527209  1  0.041454  0  -0.088152  -0.123641  0  4.006105  0
C  C95  1  0.13902125  0.36316342  0.28450672  1  -0.137418  0  -0.089406  -0.115127  0  4.000703  0
C  C96  1  0.22076329  0.38061598  0.15711559  1  -0.035492  0  -0.075578  -0.135979  0  3.921762  0
C  C97  1  0.31401313  0.37677479  0.13098807  1  -0.073746  0  -0.01652  -0.047372  0  4.021109  0
C  C98  1  0.39224635  0.21790057  0.43377771  1  1.551016  0  0.281799  0.672499  0  4.053485  0
C  C99  1  0.46468656  0.25353867  0.35620995  1  -0.026561  0  -0.075931  -0.120924  0  3.941469  0
C  C100  1  0.45632699  0.27463395  0.30618087  1  -0.013779  0  -0.011462  0.060999  0  4.058788  0
C  C101  1  0.34761680  0.30796202  0.28230259  1  -0.022482  0  0.009548  0.024161  0  3.916663  0
C  C102  1  0.55369966  0.26082369  0.27785243  1  -0.022365  0  -0.086916  -0.117953  0  4.008333  0
C  C103  1  0.54452204  0.28008622  0.22894707  1  -0.078238  0  -0.090997  -0.137989  0  4.017965  0
C  C104  1  0.43626710  0.31502506  0.20382252  1  -0.024635  0  -0.003167  0.078517  0  4.02963  0
C  C105  1  0.33869083  0.32593196  0.23117580  1  0.071498  0  0.010401  0.010867  0  3.888433  0
C  C106  1  0.42153545  0.34269918  0.15405971  1  0.044635  0  -0.075479  -0.139688  0  3.918661  0
C  C107  1  0.36839816  0.26755452  0.38338204  1  0.006456  0  -0.0213  -0.151542  0  3.979223  0
C  C108  1  0.78990565  0.95969041  0.35743820  1  0.007288  0  -0.078629  -0.141413  0  3.931801  0
C  C109  1  0.71815139  0.90189736  0.43245103  1  1.552758  0  0.273072  0.635955  0  4.089414  0
C  C110  1  0.82569699  0.93923585  0.30902428  1  -0.0616  0  -0.005493  0.075552  0  4.032895  0
C  C111  1  0.88223930  0.90109168  0.20866773  1  0.026475  0  -0.00541  0.078109  0  4.040456  0
C  C112  1  0.86869889  0.00734857  0.23238925  1  -0.110803  0  -0.086937  -0.125246  0  4.013437  0
C  C113  1  0.84233464  0.02515320  0.28036491  1  0.025517  0  -0.090039  -0.132628  0  4.025185  0
C  C114  1  0.91063227  0.88011834  0.15959817  1  -0.064184  0  -0.074659  -0.13616  0  3.914159  0
C  C115  1  0.92666667  0.77339719  0.13805529  1  -0.000955  0  -0.016203  -0.039976  0  4.014078  0
C  C116  1  0.80040589  0.76219937  0.36353816  1  -0.008128  0  -0.070799  -0.116239  0  3.915086  0
C  C117  1  0.83354585  0.73989097  0.31507905  1  0.013449  0  -0.008366  -0.014513  0  4.024546  0
C  C118  1  0.84299587  0.83024027  0.28666557  1  0.000926  0  0.00855  0.02126  0  3.916875  0
C  C119  1  0.85336316  0.63036445  0.29173222  1  0.437777  0  0.083236  0.209836  0  4.054068  0
C  C120  1  0.22915986  0.40645360  0.73413771  1  -0.01957  0  -0.06726  -0.077933  0  3.628301  0
C  C121  1  0.87181589  0.61640917  0.24313008  1  0.044779  0  -0.097467  -0.25262  0  3.999748  0
C  C122  1  0.88292568  0.70493374  0.21409082  1  -0.005953  0  -0.005356  0.094954  0  4.056622  0
C  C123  1  0.86940887  0.81219618  0.23661448  1  0.006213  0  0.005225  -0.001883  0  3.909943  0
C  C124  1  0.91143908  0.68736895  0.16489366  1  -0.040999  0  -0.079776  -0.143422  0  3.926856  0
C  C125  1  0.77400142  0.87357152  0.38392853  1  -0.044618  0  -0.015208  -0.040624  0  4.01062  0
C  C126  1  0.42806694  0.74351177  0.36678755  1  -0.025674  0  -0.074261  -0.140622  0  3.9235  0
C  C127  1  0.40884268  0.72000216  0.31931671  1  -0.021544  0  -0.005765  0.073519  0  4.042155  0
C  C128  1  0.38570244  0.68521439  0.21916886  1  0.025742  0  -0.005897  0.078344  0  4.038651  0
C  C129  1  0.46973214  0.58763288  0.24946552  1  -0.13139  0  -0.091248  -0.130343  0  4.01076  0
C  C130  1  0.47966009  0.60380643  0.29750122  1  0.015138  0  -0.088131  -0.129447  0  4.015833  0
C  C131  1  0.24653915  0.30923158  0.77385113  1  -0.002617  0  -0.067982  -0.078785  0  3.631385  0
C  C132  1  0.37732455  0.67225595  0.16935777  1  -0.034252  0  -0.078036  -0.136571  0  3.923875  0
C  C133  1  0.29177705  0.76853022  0.14123430  1  0.024799  0  -0.017575  -0.045658  0  4.021416  0
C  C134  1  0.26351716  0.95028683  0.35982992  1  -0.009754  0  -0.081042  -0.141984  0  3.931887  0
C  C135  1  0.24329864  0.93188341  0.31178281  1  -0.055002  0  -0.006304  0.078055  0  4.040469  0
C  C136  1  0.31914976  0.81660513  0.29059449  1  -0.012107  0  0.007753  0.008075  0  3.906557  0
C  C137  1  0.15262501  0.02636969  0.28244430  1  0.053185  0  -0.090243  -0.130387  0  4.015535  0
C  C138  1  0.14144201  0.00964583  0.23457466  1  -0.115649  0  -0.088438  -0.127066  0  4.021945  0
C  C139  1  0.21937862  0.89671972  0.21187173  1  0.069652  0  -0.00627  0.075449  0  4.042351  0
C  C140  1  0.30751763  0.79924171  0.24074077  1  -0.054722  0  0.007827  0.007187  0  3.905406  0
C  C141  1  0.21252223  0.87904644  0.16242701  1  -0.061653  0  -0.075328  -0.136365  0  3.927408  0
C  C142  1  0.29259672  0.40266918  0.89861807  1  0.242109  0  -0.041686  -0.203316  0  3.96848  0
C  C143  1  0.35789547  0.85894918  0.38632525  1  -0.041215  0  -0.017152  -0.039324  0  4.020946  0
C  C144  1  0.95802899  0.75790613  0.94930907  1  1.655098  0  0.280601  0.708807  0  4.166961  0
C  C145  1  0.26981128  0.45096232  0.94655580  1  1.633157  0  0.280463  0.721786  0  4.152186  0
C  C146  1  0.29956340  0.75341148  0.94998839  1  1.665306  0  0.277681  0.708754  0  4.168572  0
C  C147  1  0.97006612  0.74874500  0.08735506  1  1.546812  0  0.270962  0.638173  0  4.085077  0
C  C148  1  0.29027538  0.42611319  0.08062626  1  1.522746  0  0.280671  0.651883  0  4.066695  0
C  C149  1  0.27825984  0.75113724  0.08907440  1  1.563733  0  0.270654  0.647722  0  4.087398  0
C  C150  1  0.09839034  0.28043699  0.38841884  1  0.353925  0  -0.132128  -0.164183  0  3.88617  0
C  C151  1  0.74567524  0.54101561  0.32345406  1  0.37359  0  -0.140124  -0.175777  0  3.93817  0
O  O152  1  0.69080428  0.82204256  0.55584371  1  -1.214179  0  -0.211707  -0.562624  0  2.293171  0
O  O153  1  0.32145403  0.18721884  0.45292967  1  -1.264093  0  -0.228722  -0.59681  0  2.344497  0
O  O154  1  0.48867892  0.19738013  0.45385969  1  -1.264876  0  -0.23681  -0.602773  0  2.294597  0
O  O155  1  0.68908042  0.00743949  0.45000762  1  -1.277593  0  -0.24912  -0.614627  0  2.28055  0
O  O156  1  0.51047042  0.98487619  0.50102632  1  -1.61168  0  -0.390455  -1.267233  0  2.296045  0
O  O157  1  0.19697664  0.82848174  0.96324442  1  -1.211152  0  -0.204246  -0.549983  0  2.294688  0
O  O158  1  0.98826353  0.83342018  0.96274362  1  -1.202619  0  -0.197365  -0.524224  0  2.28016  0
O  O159  1  0.97390063  0.66210287  0.97322829  1  -1.260108  0  -0.243882  -0.609525  0  2.234887  0
O  O160  1  0.17309711  0.47170067  0.96607010  1  -1.241298  0  -0.230251  -0.589586  0  2.243158  0
O  O161  1  0.34562642  0.47438933  0.96499173  1  -1.238403  0  -0.227994  -0.589658  0  2.254278  0
O  O162  1  0.37558365  0.65751256  0.97402941  1  -1.261751  0  -0.245906  -0.608481  0  2.218333  0
O  O163  1  0.48941809  0.81431805  0.55335251  1  -1.227193  0  -0.21269  -0.56456  0  2.288982  0
O  O164  1  0.18948949  0.83400354  0.06674417  1  -1.256479  0  -0.226011  -0.592742  0  2.359545  0
O  O165  1  0.98499585  0.82843756  0.06550620  1  -1.24086  0  -0.215678  -0.567088  0  2.360447  0
O  O166  1  0.99479055  0.64426140  0.06978841  1  -1.281547  0  -0.251247  -0.615718  0  2.271953  0
O  O167  1  0.19146320  0.45221460  0.06142551  1  -1.267272  0  -0.234742  -0.601792  0  2.312132  0
O  O168  1  0.36584023  0.44839529  0.06028101  1  -1.256915  0  -0.234336  -0.592294  0  2.28378  0
O  O169  1  0.35596638  0.65013731  0.07049160  1  -1.276108  0  -0.247593  -0.611692  0  2.293988  0
O  O170  1  0.17008267  0.66545990  0.01657909  1  -1.609538  0  -0.391424  -1.269022  0  2.295411  0
O  O171  1  0.31349597  0.99064348  0.54834173  1  -1.258025  0  -0.243965  -0.604527  0  2.237892  0
O  O172  1  0.32570984  0.18404603  0.54853752  1  -1.239797  0  -0.227806  -0.5875  0  2.250601  0
O  O173  1  0.49837849  0.18617082  0.54960129  1  -1.248413  0  -0.228591  -0.588275  0  2.245039  0
O  O174  1  0.69927642  0.99696705  0.54620460  1  -1.252358  0  -0.245062  -0.608358  0  2.231361  0
O  O175  1  0.69736494  0.82378597  0.45222129  1  -1.242914  0  -0.209354  -0.550445  0  2.353732  0
O  O176  1  0.49270915  0.81576990  0.45008668  1  -1.24721  0  -0.21172  -0.554336  0  2.346254  0
O  O177  1  0.31624501  0.98978294  0.45301351  1  -1.278021  0  -0.249535  -0.619601  0  2.305665  0
O  O178  1  0.16018130  0.34786930  0.38835665  1  -1.08768  0  -0.195786  -0.167181  0  2.558296  0
O  O179  1  0.85660208  0.53752373  0.32014677  1  -1.087721  0  -0.208152  -0.198943  0  2.549047  0
O  O180  1  0.67785109  0.65119274  0.50073849  1  -1.386886  0  -0.580703  -0.998728  0  1.794184  0
O  O181  1  0.00593288  0.99982174  0.01215709  1  -1.360328  0  -0.582058  -0.997297  0  1.801892  0
