# generated using pymatgen
data_Zr6H29C52Cl5O32
_symmetry_space_group_name_H-M   'P 1'
_cell_length_a   14.77417877
_cell_length_b   14.79859960
_cell_length_c   14.82346888
_cell_angle_alpha   60.42552190
_cell_angle_beta   59.86190677
_cell_angle_gamma   60.08808029
_symmetry_Int_Tables_number   1
_chemical_formula_structural   Zr6H29C52Cl5O32
_chemical_formula_sum   'Zr6 H29 C52 Cl5 O32'
_cell_volume   2298.09171845
_cell_formula_units_Z   1
loop_
 _symmetry_equiv_pos_site_id
 _symmetry_equiv_pos_as_xyz
  1  'x, y, z'
loop_
 _atom_site_type_symbol
 _atom_site_label
 _atom_site_symmetry_multiplicity
 _atom_site_fract_x
 _atom_site_fract_y
 _atom_site_fract_z
 _atom_site_occupancy
 _atom_site_pbe_bader_charge
 _atom_site_pbe_bader_spin_density
 _atom_site_pbe_cm5_charge
 _atom_site_pbe_ddec_charge
 _atom_site_pbe_ddec_spin_density
 _atom_site_pbe_ddec_sum_bond_order
 _atom_site_pbe_magmom
Zr  Zr0  1  0.87498612  0.88359728  0.61789694  1  2.633819  0  1.621271  2.369941  0  2.740619  0
Zr  Zr1  1  0.11650316  0.11865452  0.38203833  1  2.637436  0  1.64039  2.376877  0  2.785725  0
Zr  Zr2  1  0.11286272  0.88377559  0.61756684  1  2.631473  0  1.634771  2.372066  0  2.778693  0
Zr  Zr3  1  0.87707891  0.12267595  0.37833182  1  2.635307  0  1.622675  2.372325  0  2.73653  0
Zr  Zr4  1  0.11422603  0.88320492  0.37787882  1  2.633334  0  1.625834  2.378216  0  2.746007  0
Zr  Zr5  1  0.87446810  0.12369552  0.61764220  1  2.630213  0  1.626156  2.377876  0  2.747004  0
H  H6  1  0.08690753  0.72168277  0.59203874  1  0.592116  0  0.332093  0.423994  0  0.855568  0
H  H7  1  0.09209276  0.09473469  0.21744401  1  0.601703  0  0.332326  0.424959  0  0.853388  0
H  H8  1  0.08934385  0.09433957  0.59453169  1  0.590938  0  0.332746  0.42637  0  0.850476  0
H  H9  1  0.71143419  0.09840756  0.59225951  1  0.617203  0  0.329899  0.421457  0  0.860091  0
H  H10  1  0.83333418  0.60117230  0.62535726  1  0.080919  0  0.111354  0.118121  0  0.991024  0
H  H11  1  0.15629016  0.57375407  0.37528984  1  0.119365  0  0.106962  0.122716  0  1.016852  0
H  H12  1  0.84333931  0.42842091  0.62146159  1  0.150449  0  0.111048  0.118478  0  0.996364  0
H  H13  1  0.57592474  0.85856567  0.91563422  1  0.080445  0  0.110962  0.11698  0  0.994171  0
H  H14  1  0.61266805  0.11791277  0.93547776  1  0.106781  0  0.106069  0.122632  0  1.022329  0
H  H15  1  0.40808786  0.86314979  0.08792700  1  0.116331  0  0.109688  0.116396  0  1.002538  0
H  H16  1  0.13287738  0.85250230  0.08301787  1  0.084284  0  0.1116  0.119207  0  0.989047  0
H  H17  1  0.84497913  0.14437401  0.09428090  1  0.148353  0  0.110758  0.127902  0  1.003654  0
H  H18  1  0.12461562  0.86112457  0.91358022  1  0.119589  0  0.110318  0.116478  0  1.006007  0
H  H19  1  0.58371780  0.43405768  0.63211014  1  0.092847  0  0.111444  0.118717  0  0.989333  0
H  H20  1  0.59121985  0.41570550  0.34798314  1  0.132254  0  0.11085  0.127337  0  1.006048  0
H  H21  1  0.41340507  0.60263405  0.62477112  1  0.119924  0  0.108347  0.114471  0  1.012293  0
H  H22  1  0.74842150  0.63092078  0.96328030  1  0.057165  0  0.095307  0.105781  0  0.988788  0
H  H23  1  0.83249469  0.54588505  0.87757298  1  0.042085  0  0.09491  0.104571  0  0.986871  0
H  H24  1  0.83388111  0.37629661  0.04641316  1  0.038094  0  0.094213  0.104484  0  0.989682  0
H  H25  1  0.74950322  0.46115676  0.13229562  1  0.061088  0  0.094401  0.105754  0  0.991838  0
H  H26  1  0.58278683  0.13818222  0.34763725  1  0.123465  0  0.112232  0.121058  0  0.985211  0
H  H27  1  0.59280274  0.85186616  0.63714675  1  0.11236  0  0.110582  0.128338  0  1.000262  0
H  H28  1  0.41300508  0.12857914  0.35712668  1  0.144148  0  0.101889  0.107847  0  1.031028  0
H  H29  1  0.18328413  0.47398299  0.10603892  1  0.0439  0  0.086454  0.122013  0  1.01352  0
H  H30  1  0.17994586  0.33869349  0.16045637  1  0.101928  0  0.08989  0.138345  0  1.079576  0
H  H31  1  0.26428549  0.38846247  0.02310934  1  0.017854  0  0.085546  0.119508  0  1.017963  0
H  H32  1  0.26402337  0.52572621  0.88758232  1  0.036379  0  0.090021  0.124936  0  1.006914  0
H  H33  1  0.18392591  0.66097792  0.82666721  1  0.096747  0  0.093152  0.139129  0  1.072358  0
H  H34  1  0.18034589  0.61853079  0.96262912  1  0.028077  0  0.091343  0.126973  0  0.997032  0
C  C35  1  0.99005587  0.70243474  0.49636662  1  1.575944  0  0.238139  0.640633  0  4.096205  0
C  C36  1  0.30799783  0.99572155  0.20333891  1  1.574469  0  0.23543  0.649478  0  4.097268  0
C  C37  1  0.99854739  0.30548612  0.49740673  1  1.56383  0  0.235141  0.6478  0  4.099  0
C  C38  1  0.69696217  0.99608383  0.80724467  1  1.545102  0  0.238503  0.641903  0  4.091854  0
C  C39  1  0.99481691  0.70202505  0.80444799  1  1.540415  0  0.239016  0.652976  0  4.0802  0
C  C40  1  0.69622184  0.99980814  0.49288780  1  1.566171  0  0.238782  0.642388  0  4.093428  0
C  C41  1  0.99802415  0.30674626  0.19908093  1  1.517656  0  0.239679  0.653793  0  4.075654  0
C  C42  1  0.30378477  0.99154151  0.50031676  1  1.582332  0  0.234784  0.64939  0  4.094059  0
C  C43  1  0.30193623  0.70251865  0.49005376  1  1.565012  0  0.234976  0.648787  0  4.097162  0
C  C44  1  0.98588387  0.00389381  0.80613323  1  1.578949  0  0.233809  0.645756  0  4.098832  0
C  C45  1  0.69697623  0.31215158  0.49341893  1  1.538792  0  0.240038  0.643698  0  4.09114  0
C  C46  1  0.99254366  0.99827922  0.19790752  1  1.559164  0  0.239001  0.640328  0  4.094659  0
C  C47  1  0.00364753  0.40437173  0.49679928  1  0.007416  0  -0.013879  -0.095161  0  3.907441  0
C  C48  1  0.99345679  0.59881623  0.49844333  1  0.056282  0  -0.009435  -0.00971  0  3.963081  0
C  C49  1  0.09374824  0.44499200  0.42846650  1  0.025448  0  0.026643  0.144592  0  3.995296  0
C  C50  1  0.90532544  0.55738106  0.56997838  1  -0.033375  0  -0.082182  -0.100277  0  3.973681  0
C  C51  1  0.08730383  0.54208448  0.42888551  1  -0.007802  0  -0.086874  -0.165006  0  3.954  0
C  C52  1  0.91111796  0.46189169  0.56789560  1  -0.053252  0  -0.076267  -0.075602  0  3.970241  0
C  C53  1  0.41463470  0.99316185  0.10762874  1  -0.013942  0  -0.013539  -0.096292  0  3.905537  0
C  C54  1  0.60217087  0.99033662  0.91393582  1  0.04208  0  -0.009536  -0.00935  0  3.961147  0
C  C55  1  0.47528392  0.06354743  0.06535986  1  0.042669  0  0.026555  0.144274  0  3.993251  0
C  C56  1  0.54678027  0.91586979  0.95787752  1  -0.006366  0  -0.081835  -0.100555  0  3.976113  0
C  C57  1  0.56738690  0.06228318  0.96879850  1  0.024781  0  -0.086056  -0.164027  0  3.951578  0
C  C58  1  0.45424809  0.91843779  0.05302684  1  -0.037233  0  -0.077635  -0.07504  0  3.97105  0
C  C59  1  0.98117688  0.00604201  0.90857624  1  -0.027251  0  -0.01357  -0.093917  0  3.899455  0
C  C60  1  0.98930616  0.99846656  0.09851496  1  0.05331  0  -0.009302  -0.010792  0  3.962297  0
C  C61  1  0.90138338  0.08644928  0.96092622  1  0.052628  0  0.025961  0.145342  0  3.992829  0
C  C62  1  0.06850712  0.91758238  0.04828313  1  -0.003914  0  -0.08119  -0.09788  0  3.973384  0
C  C63  1  0.90630557  0.08199225  0.05468327  1  -0.066715  0  -0.08615  -0.165169  0  3.954148  0
C  C64  1  0.06366621  0.92237642  0.95484592  1  -0.021333  0  -0.077052  -0.076418  0  3.96841  0
C  C65  1  0.40560009  0.60369319  0.48416193  1  0.006377  0  -0.014411  -0.095386  0  3.900803  0
C  C66  1  0.59744767  0.41466160  0.49033592  1  0.027468  0  -0.009537  -0.01248  0  3.963082  0
C  C67  1  0.45741938  0.55026387  0.40487360  1  0.061775  0  0.026487  0.146073  0  3.992368  0
C  C68  1  0.54792031  0.46720803  0.56882203  1  -0.024715  0  -0.081231  -0.097227  0  3.971307  0
C  C69  1  0.55224374  0.45690065  0.40869792  1  0.002267  0  -0.08609  -0.164934  0  3.95497  0
C  C70  1  0.45369068  0.56016581  0.56478909  1  -0.055909  0  -0.076595  -0.07526  0  3.968242  0
C  C71  1  0.00406436  0.60101522  0.90324981  1  -0.097554  0  -0.015002  -0.149256  0  3.931313  0
C  C72  1  0.00536747  0.40628020  0.09824194  1  -0.003598  0  -0.01442  -0.147106  0  3.923837  0
C  C73  1  0.92406306  0.55022132  0.95581214  1  0.058649  0  -0.010376  0.056355  0  3.933335  0
C  C74  1  0.08963481  0.45503196  0.04603522  1  -0.055612  0  0.003335  0.109535  0  3.837494  0
C  C75  1  0.92472480  0.45685361  0.04907894  1  -0.030562  0  -0.01077  0.055219  0  3.92867  0
C  C76  1  0.08929147  0.55046579  0.94991466  1  0.016541  0  0.003362  0.105682  0  3.836424  0
C  C77  1  0.82050988  0.55669211  0.95149813  1  -0.025437  0  -0.153505  -0.196627  0  3.887467  0
C  C78  1  0.82130154  0.45048138  0.05734695  1  -0.003358  0  -0.153459  -0.195877  0  3.884865  0
C  C79  1  0.40701869  0.98648125  0.50127583  1  -0.017976  0  -0.014401  -0.0948  0  3.901698  0
C  C80  1  0.59731051  0.99556003  0.49263127  1  0.041634  0  -0.009711  -0.01118  0  3.963715  0
C  C81  1  0.45923702  0.90701394  0.58055437  1  0.020024  0  0.025425  0.145838  0  3.997065  0
C  C82  1  0.54767916  0.07394228  0.41243601  1  -0.087101  0  -0.081323  -0.096658  0  3.965881  0
C  C83  1  0.55324449  0.91245670  0.57557328  1  0.053696  0  -0.087762  -0.167086  0  3.95856  0
C  C84  1  0.45397005  0.06856345  0.41774872  1  -0.04528  0  -0.077554  -0.075491  0  3.974761  0
C  C85  1  0.18361411  0.41062653  0.08715177  1  -0.057243  0  -0.255603  -0.428579  0  3.992653  0
C  C86  1  0.18395729  0.59225620  0.90277073  1  -0.074836  0  -0.249886  -0.416266  0  3.976889  0
Cl  Cl87  1  0.21766549  0.38038294  0.34276938  1  -0.186164  0  0.004924  -0.06156  0  1.533998  0
Cl  Cl88  1  0.44424601  0.15452644  0.12599631  1  -0.186738  0  0.009959  -0.056489  0  1.545725  0
Cl  Cl89  1  0.79361811  0.19509675  0.91687046  1  -0.183415  0  -0.003357  -0.073257  0  1.511236  0
Cl  Cl90  1  0.41110618  0.59150534  0.29938648  1  -0.186072  0  -0.003196  -0.072589  0  1.506557  0
Cl  Cl91  1  0.41438713  0.79943083  0.68828243  1  -0.191839  0  -0.006853  -0.074175  0  1.497075  0
O  O92  1  0.91266220  0.74169330  0.57345905  1  -1.183001  0  -0.353577  -0.617065  0  2.278455  0
O  O93  1  0.26359427  0.07341128  0.24297099  1  -1.17908  0  -0.361191  -0.620829  0  2.367254  0
O  O94  1  0.07398011  0.26335121  0.42210608  1  -1.172532  0  -0.358378  -0.616467  0  2.365969  0
O  O95  1  0.73373955  0.92161785  0.76534428  1  -1.178946  0  -0.356139  -0.619768  0  2.28032  0
O  O96  1  0.06622691  0.75025473  0.75963857  1  -1.182855  0  -0.37334  -0.62108  0  2.391357  0
O  O97  1  0.73341532  0.07801414  0.41769921  1  -1.180084  0  -0.350058  -0.613725  0  2.26581  0
O  O98  1  0.91994357  0.27017136  0.23336103  1  -1.169146  0  -0.346314  -0.613037  0  2.237719  0
O  O99  1  0.25965270  0.91837703  0.57617329  1  -1.182407  0  -0.364775  -0.625946  0  2.373817  0
O  O100  1  0.25896586  0.74314450  0.41631635  1  -1.17824  0  -0.363256  -0.623988  0  2.38013  0
O  O101  1  0.91173915  0.07965198  0.76349805  1  -1.178266  0  -0.362389  -0.623781  0  2.378033  0
O  O102  1  0.73351519  0.27280246  0.57189035  1  -1.174903  0  -0.351354  -0.616959  0  2.260869  0
O  O103  1  0.07083652  0.92216755  0.23472942  1  -1.176987  0  -0.351665  -0.616774  0  2.261994  0
O  O104  1  0.06494762  0.92721173  0.76748265  1  -1.181442  0  -0.344147  -0.606943  0  2.263758  0
O  O105  1  0.73664606  0.27058035  0.41803671  1  -1.178527  0  -0.354029  -0.616562  0  2.288449  0
O  O106  1  0.91721238  0.07569090  0.23747326  1  -1.18242  0  -0.353952  -0.61514  0  2.292281  0
O  O107  1  0.26270600  0.73835461  0.56952765  1  -1.175969  0  -0.34474  -0.608832  0  2.264918  0
O  O108  1  0.91711698  0.73582931  0.76832683  1  -1.170523  0  -0.337114  -0.605739  0  2.222156  0
O  O109  1  0.26554913  0.07011000  0.42448444  1  -1.178819  0  -0.347313  -0.614185  0  2.294822  0
O  O110  1  0.06987140  0.26189710  0.24597238  1  -1.178405  0  -0.361874  -0.605207  0  2.372818  0
O  O111  1  0.73452235  0.92522789  0.57025216  1  -1.181676  0  -0.355895  -0.615766  0  2.295912  0
O  O112  1  0.73239099  0.07614272  0.76507645  1  -1.173318  0  -0.349694  -0.608627  0  2.284684  0
O  O113  1  0.06586397  0.74274806  0.41863281  1  -1.185575  0  -0.351977  -0.611638  0  2.284471  0
O  O114  1  0.26670849  0.92218900  0.23638891  1  -1.179447  0  -0.348256  -0.614068  0  2.266579  0
O  O115  1  0.91847854  0.27029469  0.57316492  1  -1.176547  0  -0.350188  -0.617907  0  2.266982  0
O  O116  1  0.79193144  0.07165291  0.56537179  1  -1.245146  0  -0.689634  -1.065704  0  2.346415  0
O  O117  1  0.06196775  0.06874802  0.56722194  1  -1.21719  0  -0.698038  -1.070272  0  2.370448  0
O  O118  1  0.06402410  0.06761943  0.29736403  1  -1.227551  0  -0.69577  -1.072875  0  2.366415  0
O  O119  1  0.06048387  0.80156013  0.56469887  1  -1.217464  0  -0.695438  -1.071346  0  2.370484  0
O  O120  1  0.14414798  0.95108569  0.44932803  1  -1.200229  0  -0.795035  -1.148922  0  2.137167  0
O  O121  1  0.94473801  0.95375357  0.44876219  1  -1.197268  0  -0.786726  -1.146268  0  2.11341  0
O  O122  1  0.94601200  0.15022381  0.45004759  1  -1.197232  0  -0.793768  -1.150808  0  2.138721  0
O  O123  1  0.94330371  0.95483167  0.64663426  1  -1.193469  0  -0.791877  -1.14839  0  2.137686  0
