# generated using pymatgen
data_ZnH15C19(NO)4
_symmetry_space_group_name_H-M   'P 1'
_cell_length_a   9.89095160
_cell_length_b   9.89088815
_cell_length_c   10.96757336
_cell_angle_alpha   86.38100897
_cell_angle_beta   86.38121812
_cell_angle_gamma   64.10533627
_symmetry_Int_Tables_number   1
_chemical_formula_structural   ZnH15C19(NO)4
_chemical_formula_sum   'Zn2 H30 C38 N8 O8'
_cell_volume   962.55366207
_cell_formula_units_Z   2
loop_
 _symmetry_equiv_pos_site_id
 _symmetry_equiv_pos_as_xyz
  1  'x, y, z'
loop_
 _atom_site_type_symbol
 _atom_site_label
 _atom_site_symmetry_multiplicity
 _atom_site_fract_x
 _atom_site_fract_y
 _atom_site_fract_z
 _atom_site_occupancy
 _atom_site_pbe_bader_spin_density
 _atom_site_pbe_cm5_charge
 _atom_site_pbe_ddec_charge
 _atom_site_pbe_ddec_spin_density
 _atom_site_pbe_ddec_sum_bond_order
 _atom_site_pbe_magmom
Zn  Zn0  1  0.65658484  0.69046800  0.98347391  1  0  0.69697  0.787574  0  2.323631  0
Zn  Zn1  1  0.30953185  0.34341874  0.01652580  1  0  0.696946  0.787504  0  2.323766  0
H  H2  1  0.89623468  0.24620930  0.02713312  1  0  0.100901  0.10537  0  1.02465  0
H  H3  1  0.75379716  0.10377770  0.97287353  1  0  0.100896  0.105391  0  1.024585  0
H  H4  1  0.54385876  0.69983239  0.27085303  1  0  0.120159  0.131947  0  1.024964  0
H  H5  1  0.30016317  0.45614499  0.72914754  1  0  0.120144  0.131945  0  1.024916  0
H  H6  1  0.75767804  0.61705044  0.45148859  1  0  0.120562  0.122197  0  1.018417  0
H  H7  1  0.38294818  0.24232852  0.54851317  1  0  0.120563  0.122194  0  1.018366  0
H  H8  1  0.97884097  0.52043933  0.10257223  1  0  0.137207  0.122555  0  1.049871  0
H  H9  1  0.47955755  0.02115891  0.89742850  1  0  0.1372  0.122573  0  1.049856  0
H  H10  1  0.05319252  0.57146665  0.41276202  1  0  0.109346  0.094499  0  0.999324  0
H  H11  1  0.42852941  0.94681180  0.58723703  1  0  0.109355  0.094484  0  0.999311  0
H  H12  1  0.13993004  0.47875195  0.27557666  1  0  0.123305  0.121875  0  0.97511  0
H  H13  1  0.52124239  0.86007032  0.72442378  1  0  0.123303  0.121883  0  0.975108  0
H  H14  1  0.97615071  0.43988731  0.58391742  1  0  0.100491  0.102729  0  1.024707  0
H  H15  1  0.56010620  0.02385561  0.41608423  1  0  0.100477  0.102694  0  1.024751  0
H  H16  1  0.15497358  0.95790547  0.58118589  1  0  0.104148  0.10632  0  1.000023  0
H  H17  1  0.04208834  0.84501706  0.41880871  1  0  0.104175  0.106301  0  1.00008  0
H  H18  1  0.25495118  0.96384662  0.36577266  1  0  0.105606  0.10968  0  0.990229  0
H  H19  1  0.03614843  0.74503627  0.63422033  1  0  0.105602  0.109672  0  0.990273  0
H  H20  1  0.21650852  0.20580709  0.26267318  1  0  0.100187  0.107502  0  1.066361  0
H  H21  1  0.79419397  0.78348621  0.73732505  1  0  0.100156  0.107445  0  1.066435  0
H  H22  1  0.00071042  0.08731915  0.75162778  1  0  0.117211  0.107724  0  0.974725  0
H  H23  1  0.91267598  0.99928759  0.24837404  1  0  0.117179  0.107702  0  0.974784  0
H  H24  1  0.10122412  0.18843142  0.78716918  1  0  0.122022  0.115835  0  0.970999  0
H  H25  1  0.81155970  0.89877673  0.21283176  1  0  0.122068  0.115895  0  0.970988  0
H  H26  1  0.70438455  0.26296179  0.70027680  1  0  0.123047  0.126485  0  1.002073  0
H  H27  1  0.73703285  0.29561814  0.29972571  1  0  0.123056  0.126497  0  1.002052  0
H  H28  1  0.51401335  0.52117704  0.82353928  1  0  0.118681  0.13264  0  1.042638  0
H  H29  1  0.47881769  0.48599435  0.17646143  1  0  0.118668  0.132653  0  1.042639  0
H  H30  1  0.96536286  0.44143827  0.86419016  1  0  0.14142  0.12767  0  1.014395  0
H  H31  1  0.55856140  0.03463985  0.13580500  1  0  0.1414  0.127679  0  1.014405  0
C  C32  1  0.35225943  0.80574609  0.03250953  1  0  0.202132  0.593462  0  4.237906  0
C  C33  1  0.19425553  0.64774520  0.96749307  1  0  0.202131  0.5935  0  4.23777  0
C  C34  1  0.19821050  0.13525199  0.05417389  1  0  0.193741  0.548262  0  4.247705  0
C  C35  1  0.86475071  0.80179981  0.94582747  1  0  0.19382  0.548369  0  4.247458  0
C  C36  1  0.95375850  0.12546154  0.01477638  1  0  -0.095452  -0.117091  0  4.023994  0
C  C37  1  0.87454363  0.04624954  0.98522984  1  0  -0.095457  -0.117164  0  4.024076  0
C  C38  1  0.10972929  0.05077613  0.02850478  1  0  -0.018596  -0.061122  0  3.972263  0
C  C39  1  0.94922645  0.89027698  0.97149854  1  0  -0.018597  -0.061062  0  3.972337  0
C  C40  1  0.18578124  0.89463774  0.01404882  1  0  -0.000499  -0.048712  0  3.89523  0
C  C41  1  0.10536396  0.81422353  0.98595154  1  0  -0.000479  -0.048701  0  3.895173  0
C  C42  1  0.66564890  0.64916824  0.26449178  1  0  -0.004805  -0.037119  0  3.990787  0
C  C43  1  0.35083033  0.33434998  0.73550731  1  0  -0.004778  -0.037128  0  3.990707  0
C  C44  1  0.76979870  0.60827890  0.35311678  1  0  -0.007781  -0.125435  0  3.954639  0
C  C45  1  0.39171976  0.23020151  0.64688432  1  0  -0.007758  -0.125406  0  3.954694  0
C  C46  1  0.88781834  0.55640219  0.17129502  1  0  0.143976  0.09671  0  3.871053  0
C  C47  1  0.44359621  0.11218109  0.82870639  1  0  0.143978  0.096651  0  3.870728  0
C  C48  1  0.05610221  0.48866913  0.34918932  1  0  -0.043559  -0.109286  0  3.868953  0
C  C49  1  0.51132588  0.94390109  0.65081267  1  0  -0.043571  -0.109232  0  3.868965  0
C  C50  1  0.08984490  0.33951692  0.41530180  1  0  -0.01535  0.09241  0  4.00077  0
C  C51  1  0.66048089  0.91015328  0.58469966  1  0  -0.015415  0.092258  0  4.000869  0
C  C52  1  0.03590325  0.33527654  0.53579321  1  0  -0.096462  -0.203073  0  3.977596  0
C  C53  1  0.66471780  0.96409889  0.46420724  1  0  -0.096398  -0.202959  0  3.977666  0
C  C54  1  0.05983570  0.19845998  0.59617327  1  0  -0.01391  0.095798  0  3.998914  0
C  C55  1  0.80153178  0.94016411  0.40382487  1  0  -0.013921  0.095723  0  3.999108  0
C  C56  1  0.13760214  0.06466004  0.53434016  1  0  -0.094123  -0.151162  0  4.006549  0
C  C57  1  0.93533299  0.86239029  0.46565762  1  0  -0.094187  -0.151109  0  4.006566  0
C  C58  1  0.19385177  0.06766782  0.41459989  1  0  -0.092813  -0.078184  0  4.02979  0
C  C59  1  0.93232944  0.80613773  0.58539520  1  0  -0.092802  -0.078229  0  4.029701  0
C  C60  1  0.17096595  0.20478399  0.35555523  1  0  -0.095573  -0.142934  0  3.964556  0
C  C61  1  0.79521379  0.82902734  0.64444400  1  0  -0.095539  -0.142825  0  3.964546  0
C  C62  1  0.01320318  0.19118241  0.72915844  1  0  -0.040946  -0.108202  0  3.884521  0
C  C63  1  0.80881033  0.98679836  0.27084228  1  0  -0.040964  -0.108292  0  3.884879  0
C  C64  1  0.72846950  0.33973600  0.75127220  1  0  -0.003072  -0.112614  0  3.925292  0
C  C65  1  0.66026169  0.27153243  0.24872923  1  0  -0.003086  -0.112628  0  3.925327  0
C  C66  1  0.63596935  0.46724556  0.81170308  1  0  -0.003672  -0.033384  0  3.964463  0
C  C67  1  0.53275167  0.36403517  0.18829702  1  0  -0.003694  -0.033474  0  3.964413  0
C  C68  1  0.86778458  0.43104685  0.83521074  1  0  0.146673  0.096579  0  3.905125  0
C  C69  1  0.56895086  0.13222032  0.16478702  1  0  0.146688  0.09654  0  3.904779  0
N  N70  1  0.74089826  0.61592677  0.15137647  1  0  -0.359024  -0.291525  0  3.591984  0
N  N71  1  0.38406934  0.25910273  0.84862828  1  0  -0.359031  -0.291506  0  3.591816  0
N  N72  1  0.90941983  0.55080386  0.29256164  1  0  -0.23946  0.054123  0  3.755925  0
N  N73  1  0.44919531  0.09058440  0.70743596  1  0  -0.239452  0.054175  0  3.755759  0
N  N74  1  0.87445485  0.31841940  0.76747365  1  0  -0.243998  0.039459  0  3.796594  0
N  N75  1  0.68157997  0.12554887  0.23252701  1  0  -0.243953  0.039603  0  3.796457  0
N  N76  1  0.72484862  0.52309240  0.86350339  1  0  -0.358911  -0.295278  0  3.597778  0
N  N77  1  0.47690290  0.27515855  0.13649399  1  0  -0.358907  -0.295259  0  3.597556  0
O  O78  1  0.39135511  0.72657455  0.12871598  1  0  -0.320424  -0.55602  0  2.164717  0
O  O79  1  0.27342948  0.60864728  0.87128406  1  0  -0.320441  -0.556076  0  2.164511  0
O  O80  1  0.44274717  0.80902091  0.94292027  1  0  -0.335787  -0.559027  0  2.324609  0
O  O81  1  0.19097901  0.55725770  0.05707887  1  0  -0.335751  -0.558944  0  2.324645  0
O  O82  1  0.32712862  0.06491257  0.09544635  1  0  -0.309215  -0.536809  0  2.19828  0
O  O83  1  0.93509354  0.67287813  0.90454803  1  0  -0.309288  -0.536917  0  2.19798  0
O  O84  1  0.13759718  0.27893256  0.02876026  1  0  -0.334358  -0.572442  0  2.305758  0
O  O85  1  0.72107486  0.86240215  0.97124099  1  0  -0.334331  -0.572404  0  2.305687  0
