# generated using pymatgen
data_ZnH6(CO)8
_symmetry_space_group_name_H-M   'P 1'
_cell_length_a   9.66046846
_cell_length_b   11.30766079
_cell_length_c   12.30811518
_cell_angle_alpha   90.01701374
_cell_angle_beta   89.96664747
_cell_angle_gamma   92.80783210
_symmetry_Int_Tables_number   1
_chemical_formula_structural   ZnH6(CO)8
_chemical_formula_sum   'Zn4 H24 C32 O32'
_cell_volume   1342.89085532
_cell_formula_units_Z   4
loop_
 _symmetry_equiv_pos_site_id
 _symmetry_equiv_pos_as_xyz
  1  'x, y, z'
loop_
 _atom_site_type_symbol
 _atom_site_label
 _atom_site_symmetry_multiplicity
 _atom_site_fract_x
 _atom_site_fract_y
 _atom_site_fract_z
 _atom_site_occupancy
 _atom_site_pbe_bader_charge
 _atom_site_pbe_bader_spin_density
 _atom_site_pbe_cm5_charge
 _atom_site_pbe_ddec_charge
 _atom_site_pbe_ddec_spin_density
 _atom_site_pbe_ddec_sum_bond_order
 _atom_site_pbe_magmom
Zn  Zn0  1  0.74687758  0.24760547  0.26544252  1  1.266601  0  0.723613  0.912826  0  1.93985  0
Zn  Zn1  1  0.76388376  0.26153799  0.75836839  1  1.289853  0  0.699232  0.901169  0  2.029704  0
Zn  Zn2  1  0.24625584  0.74679617  0.73456532  1  1.267305  0  0.723735  0.912386  0  1.939531  0
Zn  Zn3  1  0.26440146  0.76212010  0.24119394  1  1.289099  0  0.698996  0.900472  0  2.030277  0
H  H4  1  0.43334406  0.50632846  0.20212603  1  0.110459  0  0.113166  0.151218  0  0.963575  0
H  H5  1  0.38516375  0.38179467  0.12440973  1  0.111493  0  0.115324  0.142745  0  0.951677  0
H  H6  1  0.59026971  0.58669065  0.04938937  1  0.084352  0  0.101435  0.103227  0  0.990018  0
H  H7  1  0.00682548  0.58809031  0.67464618  1  0.075541  0  0.105068  0.131037  0  0.981408  0
H  H8  1  0.12321735  0.47726058  0.63272715  1  0.097753  0  0.106881  0.134096  0  0.973141  0
H  H9  1  0.86640784  0.55866752  0.50521108  1  0.095252  0  0.100785  0.105315  0  1.004198  0
H  H10  1  0.05651751  0.97913372  0.22525997  1  0.087037  0  0.112141  0.145856  0  0.966349  0
H  H11  1  0.11687920  0.10133208  0.14674765  1  0.087482  0  0.110205  0.13562  0  0.962576  0
H  H12  1  0.90525331  0.90081313  0.07287200  1  0.098321  0  0.102835  0.106972  0  0.992735  0
H  H13  1  0.50936366  0.92727295  0.73715253  1  0.091535  0  0.104704  0.134864  0  0.985879  0
H  H14  1  0.38706168  0.03172160  0.69150859  1  0.060782  0  0.106271  0.130918  0  0.967193  0
H  H15  1  0.63927190  0.94586883  0.56068039  1  0.063735  0  0.102274  0.105294  0  0.997133  0
H  H16  1  0.55590368  0.47836154  0.77472042  1  0.08007  0  0.112315  0.14608  0  0.966482  0
H  H17  1  0.61666361  0.60091863  0.85253851  1  0.091422  0  0.110069  0.135627  0  0.962307  0
H  H18  1  0.40513579  0.40098088  0.92787022  1  0.099466  0  0.10239  0.106312  0  0.992751  0
H  H19  1  0.00874562  0.42855184  0.26279301  1  0.099141  0  0.104999  0.135453  0  0.985229  0
H  H20  1  0.88702288  0.53339051  0.30886740  1  0.057567  0  0.106536  0.131619  0  0.966231  0
H  H21  1  0.13905511  0.44669353  0.43915870  1  0.072289  0  0.102363  0.105316  0  0.997861  0
H  H22  1  0.93180417  0.00479711  0.79819802  1  0.103501  0  0.113176  0.150807  0  0.964459  0
H  H23  1  0.88451081  0.88049872  0.87652442  1  0.098685  0  0.115181  0.142294  0  0.951247  0
H  H24  1  0.08952287  0.08612360  0.95002574  1  0.092188  0  0.101544  0.103746  0  0.989987  0
H  H25  1  0.50754425  0.08846565  0.32588535  1  0.07849  0  0.104745  0.130239  0  0.981231  0
H  H26  1  0.62381724  0.97726304  0.36727332  1  0.09532  0  0.107158  0.134418  0  0.97315  0
H  H27  1  0.36679686  0.05812242  0.49520249  1  0.098476  0  0.100477  0.104902  0  1.004423  0
C  C28  1  0.58648882  0.37931127  0.19146923  1  1.488454  0  0.209977  0.635043  0  4.082172  0
C  C29  1  0.47216396  0.44592027  0.14010459  1  -0.060238  0  -0.153933  -0.292579  0  3.960985  0
C  C30  1  0.51757759  0.51028499  0.03888850  1  -0.11033  0  -0.102721  -0.081722  0  4.000777  0
C  C31  1  0.82777281  0.43043991  0.95277629  1  2.128778  0  0.376771  0.742316  0  4.107558  0
C  C32  1  0.92295307  0.41185931  0.68619336  1  1.502879  0  0.201645  0.631615  0  4.106746  0
C  C33  1  0.01576722  0.50414870  0.63034360  1  -0.041028  0  -0.157231  -0.287528  0  3.947424  0
C  C34  1  0.96660949  0.51890408  0.51527383  1  -0.049032  0  -0.097009  -0.076464  0  3.96623  0
C  C35  1  0.98799968  0.16947395  0.49834461  1  2.10691  0  0.35635  0.723206  0  4.157178  0
C  C36  1  0.91460311  0.11364210  0.21101531  1  1.492929  0  0.210228  0.635477  0  4.07992  0
C  C37  1  0.02592185  0.04168965  0.16199308  1  -0.011591  0  -0.15589  -0.292127  0  3.958531  0
C  C38  1  0.97777958  0.97703775  0.06133618  1  -0.039292  0  -0.102131  -0.085825  0  3.994188  0
C  C39  1  0.63938795  0.03132421  0.98925662  1  2.060693  0  0.355259  0.714397  0  4.157406  0
C  C40  1  0.58983245  0.10664706  0.72820670  1  1.495596  0  0.202569  0.62937  0  4.108888  0
C  C41  1  0.49501078  0.00628074  0.68714230  1  -0.016493  0  -0.158436  -0.295151  0  3.9525  0
C  C42  1  0.53855354  0.98456614  0.57140137  1  -0.050965  0  -0.097828  -0.077845  0  3.966634  0
C  C43  1  0.51598573  0.36050047  0.53023518  1  2.131716  0  0.367621  0.731927  0  4.118582  0
C  C44  1  0.41409657  0.61299168  0.78894602  1  1.499523  0  0.209203  0.633017  0  4.08396  0
C  C45  1  0.52559375  0.54125304  0.83785004  1  -0.009875  0  -0.156173  -0.292623  0  3.959663  0
C  C46  1  0.47782729  0.47717504  0.93889916  1  -0.03835  0  -0.101862  -0.085059  0  3.992845  0
C  C47  1  0.13923108  0.53125291  0.01119190  1  2.061112  0  0.355417  0.715887  0  4.157043  0
C  C48  1  0.09003126  0.60766505  0.27194259  1  1.489098  0  0.202641  0.62905  0  4.107946  0
C  C49  1  0.99482606  0.50752317  0.31302226  1  -0.025224  0  -0.159035  -0.296622  0  3.952564  0
C  C50  1  0.03834026  0.48543466  0.42862136  1  -0.056165  0  -0.097746  -0.077611  0  3.967963  0
C  C51  1  0.01797161  0.86132704  0.47054574  1  2.144681  0  0.36575  0.727616  0  4.123291  0
C  C52  1  0.08544689  0.87822503  0.80858466  1  1.481422  0  0.209566  0.633609  0  4.083135  0
C  C53  1  0.97118451  0.94477074  0.86024857  1  -0.034891  0  -0.15366  -0.290531  0  3.958882  0
C  C54  1  0.01704421  0.00966902  0.96108215  1  -0.109104  0  -0.103132  -0.082903  0  4.002155  0
C  C55  1  0.32758110  0.93067424  0.04643910  1  2.132201  0  0.377277  0.742714  0  4.106934  0
C  C56  1  0.42362206  0.91225367  0.31346016  1  1.505583  0  0.201584  0.631248  0  4.106859  0
C  C57  1  0.51640032  0.00425310  0.36971566  1  -0.042597  0  -0.156681  -0.286365  0  3.946571  0
C  C58  1  0.46700170  0.01840466  0.48487058  1  -0.049016  0  -0.096758  -0.076564  0  3.966169  0
C  C59  1  0.48806285  0.66904414  0.50076793  1  2.110362  0  0.35625  0.722927  0  4.156299  0
O  O60  1  0.55757874  0.30924625  0.27266421  1  -1.126454  0  -0.324574  -0.552767  0  2.180588  0
O  O61  1  0.84610821  0.53194819  0.96882894  1  -1.028135  0  -0.151382  -0.327919  0  2.199882  0
O  O62  1  0.81315636  0.32802021  0.93425465  1  -1.101706  0  -0.172104  -0.368227  0  2.343165  0
O  O63  1  0.96300518  0.30696443  0.70179755  1  -1.149779  0  -0.32451  -0.55191  0  2.150901  0
O  O64  1  0.79965494  0.43738032  0.71452094  1  -1.158061  0  -0.327527  -0.572249  0  2.18907  0
O  O65  1  0.86781042  0.18161137  0.49417951  1  -1.089937  0  -0.181995  -0.375321  0  2.248016  0
O  O66  1  0.10758136  0.15531623  0.50250804  1  -1.036623  0  -0.17903  -0.355672  0  2.159508  0
O  O67  1  0.71048332  0.38790970  0.15603331  1  -1.155535  0  -0.31091  -0.547998  0  2.197959  0
O  O68  1  0.94878064  0.20996166  0.26294999  1  -1.135892  0  -0.317376  -0.54945  0  2.191123  0
O  O69  1  0.63695948  0.92724380  0.98402675  1  -1.061797  0  -0.183791  -0.363222  0  2.164117  0
O  O70  1  0.63820252  0.13495356  0.99378112  1  -1.01702  0  -0.176844  -0.352106  0  2.240608  0
O  O71  1  0.55183276  0.21302154  0.73053127  1  -1.158231  0  -0.319312  -0.550573  0  2.151085  0
O  O72  1  0.71588189  0.08500815  0.75372758  1  -1.142586  0  -0.322854  -0.560562  0  2.196722  0
O  O73  1  0.62044351  0.31709880  0.50828366  1  -1.075346  0  -0.177147  -0.365638  0  2.252002  0
O  O74  1  0.41215043  0.40545954  0.55181476  1  -1.070603  0  -0.176786  -0.357427  0  2.164281  0
O  O75  1  0.78620214  0.08307609  0.20013563  1  -1.148046  0  -0.3125  -0.543625  0  2.184893  0
O  O76  1  0.44811585  0.70906234  0.73659744  1  -1.137472  0  -0.316716  -0.547828  0  2.192343  0
O  O77  1  0.13698628  0.42719523  0.01654669  1  -1.062329  0  -0.184067  -0.363675  0  2.162686  0
O  O78  1  0.13784765  0.63486794  0.00653873  1  -1.017174  0  -0.177025  -0.353305  0  2.241394  0
O  O79  1  0.05249987  0.71421046  0.27002927  1  -1.14361  0  -0.319481  -0.550581  0  2.149588  0
O  O80  1  0.21581079  0.58560516  0.24593158  1  -1.144623  0  -0.322311  -0.559919  0  2.197703  0
O  O81  1  0.12293359  0.81897610  0.49277088  1  -1.080987  0  -0.176629  -0.364022  0  2.253319  0
O  O82  1  0.91361856  0.90530001  0.44878207  1  -1.078242  0  -0.175818  -0.355004  0  2.164916  0
O  O83  1  0.28574623  0.58249995  0.80031264  1  -1.151068  0  -0.312215  -0.542565  0  2.185077  0
O  O84  1  0.05640325  0.80758477  0.72784005  1  -1.133745  0  -0.324025  -0.551777  0  2.181131  0
O  O85  1  0.34575816  0.03214155  0.03012917  1  -1.03106  0  -0.151685  -0.327842  0  2.197247  0
O  O86  1  0.31310902  0.82830429  0.06518636  1  -1.102631  0  -0.172202  -0.368568  0  2.344464  0
O  O87  1  0.46323721  0.80715246  0.29804582  1  -1.149262  0  -0.324341  -0.551695  0  2.152022  0
O  O88  1  0.30071400  0.93818932  0.28467177  1  -1.159503  0  -0.327895  -0.572182  0  2.187651  0
O  O89  1  0.36783005  0.68097686  0.50502245  1  -1.088347  0  -0.181806  -0.37544  0  2.249488  0
O  O90  1  0.60769275  0.65507874  0.49657977  1  -1.041558  0  -0.179509  -0.355683  0  2.157535  0
O  O91  1  0.20966177  0.88749402  0.84342766  1  -1.153601  0  -0.311132  -0.547978  0  2.197756  0
