# generated using pymatgen
data_CdH17C20N3O4
_symmetry_space_group_name_H-M   'P 1'
_cell_length_a   7.54189501
_cell_length_b   10.67878803
_cell_length_c   12.16690705
_cell_angle_alpha   102.19986565
_cell_angle_beta   107.35324883
_cell_angle_gamma   90.96891158
_symmetry_Int_Tables_number   1
_chemical_formula_structural   CdH17C20N3O4
_chemical_formula_sum   'Cd2 H34 C40 N6 O8'
_cell_volume   910.81610293
_cell_formula_units_Z   2
loop_
 _symmetry_equiv_pos_site_id
 _symmetry_equiv_pos_as_xyz
  1  'x, y, z'
loop_
 _atom_site_type_symbol
 _atom_site_label
 _atom_site_symmetry_multiplicity
 _atom_site_fract_x
 _atom_site_fract_y
 _atom_site_fract_z
 _atom_site_occupancy
 _atom_site_hle17_bader_spin_density
 _atom_site_hle17_ddec_charge
 _atom_site_hle17_ddec_spin_density
 _atom_site_hle17_ddec_sum_bond_order
 _atom_site_hle17_magmom
 _atom_site_hse06_10hf_bader_spin_density
 _atom_site_hse06_10hf_ddec_charge
 _atom_site_hse06_10hf_ddec_spin_density
 _atom_site_hse06_10hf_ddec_sum_bond_order
 _atom_site_hse06_10hf_magmom
 _atom_site_hse06_bader_spin_density
 _atom_site_hse06_ddec_charge
 _atom_site_hse06_ddec_spin_density
 _atom_site_hse06_ddec_sum_bond_order
 _atom_site_hse06_magmom
 _atom_site_pbe_bader_spin_density
 _atom_site_pbe_cm5_charge
 _atom_site_pbe_ddec_charge
 _atom_site_pbe_ddec_spin_density
 _atom_site_pbe_ddec_sum_bond_order
 _atom_site_pbe_magmom
Cd  Cd0  1  0.28983884  0.53311060  0.06161832  1  0  1.185409  0  1.63859  0  0  1.006608  0  2.079173  0  0  1.063094  0  2.024382  0  0  0.785522  0.966259  0  2.116852  0
Cd  Cd1  1  0.71015967  0.46688710  0.93838005  1  0  1.185386  0  1.638598  0  0  1.006586  0  2.079178  0  0  1.063074  0  2.024387  0  0  0.785509  0.966239  0  2.116856  0
H  H2  1  0.12685346  0.94554315  0.11219896  1  0  0.095894  0  0.958851  0  0  0.104807  0  1.023736  0  0  0.108376  0  1.021065  0  0  0.101865  0.102314  0  1.02553  0
H  H3  1  0.87314654  0.05445551  0.88779904  1  0  0.095884  0  0.958846  0  0  0.104828  0  1.023698  0  0  0.108383  0  1.021042  0  0  0.101864  0.102336  0  1.025489  0
H  H4  1  0.97701334  0.15180202  0.13997584  1  0  0.095565  0  0.959728  0  0  0.102948  0  1.023204  0  0  0.105743  0  1.02295  0  0  0.098432  0.100974  0  1.023423  0
H  H5  1  0.02299075  0.84819569  0.86002518  1  0  0.095657  0  0.959672  0  0  0.103047  0  1.023129  0  0  0.105838  0  1.022888  0  0  0.098482  0.101067  0  1.02335  0
H  H6  1  0.65346160  0.14888327  0.15167784  1  0  0.086448  0  0.958404  0  0  0.098604  0  1.018176  0  0  0.101268  0  1.016705  0  0  0.100033  0.096586  0  1.019524  0
H  H7  1  0.34654249  0.85111443  0.84832318  1  0  0.086423  0  0.958392  0  0  0.0986  0  1.018134  0  0  0.101264  0  1.016664  0  0  0.100035  0.096583  0  1.019482  0
H  H8  1  0.48072783  0.94116391  0.13472744  1  0  0.099354  0  0.943399  0  0  0.112019  0  1.000524  0  0  0.115074  0  0.999444  0  0  0.10553  0.109738  0  1.001533  0
H  H9  1  0.51927353  0.05883476  0.86526833  1  0  0.099422  0  0.943221  0  0  0.112067  0  1.000367  0  0  0.115121  0  0.999289  0  0  0.105587  0.109786  0  1.001376  0
H  H10  1  0.03322260  0.50623230  0.25210172  1  0  0.111202  0  0.957996  0  0  0.118918  0  1.023284  0  0  0.121529  0  1.020372  0  0  0.137545  0.116998  0  1.025301  0
H  H11  1  0.96677819  0.49377213  0.74790326  1  0  0.11122  0  0.95803  0  0  0.11898  0  1.023266  0  0  0.121594  0  1.020345  0  0  0.137575  0.117062  0  1.025283  0
H  H12  1  0.35396432  0.20157995  0.35199464  1  0  0.119321  0  0.974249  0  0  0.117649  0  1.05281  0  0  0.122227  0  1.048971  0  0  0.121897  0.11444  0  1.055428  0
H  H13  1  0.64603960  0.79842737  0.64801143  1  0  0.11932  0  0.974216  0  0  0.117621  0  1.052808  0  0  0.122217  0  1.048953  0  0  0.121858  0.114411  0  1.055428  0
H  H14  1  0.46047917  0.28929295  0.17714805  1  0  0.109604  0  0.973198  0  0  0.117057  0  1.037002  0  0  0.12016  0  1.034935  0  0  0.115828  0.114801  0  1.038615  0
H  H15  1  0.53952010  0.71071052  0.82285565  1  0  0.109722  0  0.973308  0  0  0.117155  0  1.037118  0  0  0.120257  0  1.035052  0  0  0.115861  0.114899  0  1.038732  0
H  H16  1  0.80680824  0.39603179  0.30315170  1  0  0.108936  0  0.938686  0  0  0.124125  0  0.991205  0  0  0.126832  0  0.990259  0  0  0.111379  0.122178  0  0.991943  0
H  H17  1  0.19318904  0.60397840  0.69685125  1  0  0.108888  0  0.938719  0  0  0.124069  0  0.991261  0  0  0.126774  0  0.990319  0  0  0.111368  0.122124  0  0.992  0
H  H18  1  0.62931849  0.34598387  0.43177468  1  0  0.086415  0  0.98203  0  0  0.097437  0  1.044271  0  0  0.099769  0  1.04377  0  0  0.096262  0.095738  0  1.0447  0
H  H19  1  0.37068333  0.65401768  0.56822912  1  0  0.086429  0  0.98204  0  0  0.097413  0  1.044312  0  0  0.099774  0  1.043785  0  0  0.096275  0.095716  0  1.044739  0
H  H20  1  0.12094221  0.22224121  0.65392629  1  0  0.102665  0  0.958519  0  0  0.111365  0  1.022366  0  0  0.11393  0  1.021776  0  0  0.102151  0.109498  0  1.022873  0
H  H21  1  0.87905367  0.77775745  0.34607426  1  0  0.102663  0  0.958444  0  0  0.111292  0  1.022375  0  0  0.113851  0  1.021786  0  0  0.102141  0.109425  0  1.022881  0
H  H22  1  0.30181254  0.27635742  0.52841311  1  0  0.111565  0  0.960787  0  0  0.12017  0  1.024384  0  0  0.12358  0  1.02217  0  0  0.109842  0.11767  0  1.026151  0
H  H23  1  0.69818476  0.72364124  0.47158934  1  0  0.111638  0  0.960706  0  0  0.120204  0  1.024349  0  0  0.123609  0  1.022149  0  0  0.109858  0.117703  0  1.026113  0
H  H24  1  0.83646960  0.18609301  0.68637456  1  0  0.04934  0  0.949172  0  0  0.064314  0  1.019292  0  0  0.064461  0  1.019706  0  0  0.090565  0.063925  0  1.019268  0
H  H25  1  0.16352756  0.81390469  0.31362603  1  0  0.049355  0  0.949203  0  0  0.06432  0  1.019322  0  0  0.064468  0  1.019735  0  0  0.090562  0.063929  0  1.019296  0
H  H26  1  0.67648954  0.30419502  0.65781363  1  0  0.074016  0  0.92219  0  0  0.090892  0  0.984477  0  0  0.091221  0  0.984287  0  0  0.103444  0.090554  0  0.984624  0
H  H27  1  0.32350612  0.69580172  0.34218734  1  0  0.07406  0  0.922159  0  0  0.090942  0  0.984422  0  0  0.09127  0  0.984231  0  0  0.10346  0.090602  0  0.98457  0
H  H28  1  0.76922142  0.97381687  0.53412686  1  0  0.040212  0  0.931203  0  0  0.055318  0  1.001472  0  0  0.056231  0  1.000955  0  0  0.086668  0.054727  0  1.001669  0
H  H29  1  0.23077742  0.02618372  0.46587047  1  0  0.040187  0  0.931169  0  0  0.0553  0  1.001459  0  0  0.056209  0  1.000941  0  0  0.086654  0.05471  0  1.001653  0
H  H30  1  0.73879472  0.05462241  0.41660866  1  0  0.064058  0  0.937182  0  0  0.083887  0  0.993231  0  0  0.083472  0  0.995321  0  0  0.100208  0.084111  0  0.991839  0
H  H31  1  0.26120402  0.94537722  0.58339012  1  0  0.064051  0  0.937219  0  0  0.083898  0  0.993261  0  0  0.08348  0  0.99535  0  0  0.100218  0.084122  0  0.991869  0
H  H32  1  0.44039046  0.15903738  0.65711821  1  0  0.077922  0  0.96643  0  0  0.093664  0  1.030476  0  0  0.094523  0  1.030355  0  0  0.102117  0.092977  0  1.030641  0
H  H33  1  0.55960795  0.84095936  0.34288161  1  0  0.07788  0  0.966469  0  0  0.093632  0  1.030502  0  0  0.094489  0  1.030379  0  0  0.102112  0.092945  0  1.030665  0
H  H34  1  0.58875658  0.03286357  0.67242332  1  0  0.034171  0  0.928109  0  0  0.050295  0  1.00081  0  0  0.051157  0  0.999378  0  0  0.085949  0.049536  0  1.001947  0
H  H35  1  0.41124041  0.96713317  0.32757378  1  0  0.034164  0  0.928063  0  0  0.050281  0  1.000776  0  0  0.05114  0  0.999344  0  0  0.085929  0.049521  0  1.001913  0
C  C36  1  0.98343489  0.70723053  0.08751263  1  0  0.645725  0  3.934721  0  0  0.590866  0  4.236332  0  0  0.626193  0  4.229357  0  0  0.200806  0.566878  0  4.240201  0
C  C37  1  0.01656786  0.29276814  0.91248423  1  0  0.645815  0  3.93439  0  0  0.59098  0  4.235966  0  0  0.626307  0  4.228994  0  0  0.200924  0.566992  0  4.23984  0
C  C38  1  0.88864714  0.82857013  0.10555855  1  0  -0.099028  0  3.749808  0  0  -0.084961  0  3.986526  0  0  -0.093082  0  4.00899  0  0  -0.02233  -0.079615  0  3.97143  0
C  C39  1  0.11135582  0.17143047  0.89443705  1  0  -0.099047  0  3.749732  0  0  -0.084974  0  3.986443  0  0  -0.093101  0  4.00891  0  0  -0.022322  -0.079631  0  3.97135  0
C  C40  1  0.98542955  0.94655882  0.11773278  1  0  -0.068088  0  3.752914  0  0  -0.092893  0  4.005781  0  0  -0.091893  0  4.024632  0  0  -0.084867  -0.093165  0  3.992594  0
C  C41  1  0.01457182  0.05343984  0.88226382  1  0  -0.068028  0  3.752826  0  0  -0.092858  0  4.005692  0  0  -0.091844  0  4.024547  0  0  -0.084842  -0.093129  0  3.992506  0
C  C42  1  0.90211009  0.06138995  0.13429797  1  0  -0.074903  0  3.765033  0  0  -0.089764  0  4.021326  0  0  -0.092317  0  4.041299  0  0  -0.094017  -0.087919  0  4.007502  0
C  C43  1  0.09789394  0.93860776  0.86569893  1  0  -0.075086  0  3.765054  0  0  -0.089958  0  4.021371  0  0  -0.092512  0  4.041334  0  0  -0.094055  -0.088106  0  4.00755  0
C  C44  1  0.72026575  0.05945459  0.14058919  1  0  -0.044609  0  3.756765  0  0  -0.061138  0  4.009375  0  0  -0.060358  0  4.028502  0  0  -0.083958  -0.061682  0  3.996592  0
C  C45  1  0.27973562  0.94054408  0.85940741  1  0  -0.044563  0  3.756755  0  0  -0.061102  0  4.009359  0  0  -0.060319  0  4.028481  0  0  -0.083958  -0.061644  0  3.996571  0
C  C46  1  0.62319177  0.94326010  0.13062599  1  0  -0.092701  0  3.734124  0  0  -0.113085  0  3.980537  0  0  -0.116392  0  4.001702  0  0  -0.086303  -0.110941  0  3.966679  0
C  C47  1  0.37680972  0.05673953  0.86937082  1  0  -0.092811  0  3.733928  0  0  -0.113171  0  3.980358  0  0  -0.116479  0  4.00152  0  0  -0.086386  -0.11103  0  3.966501  0
C  C48  1  0.70553048  0.82710386  0.11246638  1  0  -0.041535  0  3.70456  0  0  -0.025835  0  3.936781  0  0  -0.028447  0  3.956498  0  0  -0.004819  -0.024464  0  3.924025  0
C  C49  1  0.29446806  0.17289481  0.88752643  1  0  -0.041338  0  3.70434  0  0  -0.025657  0  3.936592  0  0  -0.028266  0  3.956308  0  0  -0.00479  -0.024279  0  3.923824  0
C  C50  1  0.58546829  0.70720244  0.09761409  1  0  0.662602  0  3.90455  0  0  0.607595  0  4.202667  0  0  0.642985  0  4.194203  0  0  0.200435  0.583467  0  4.207711  0
C  C51  1  0.41453288  0.29279430  0.90238458  1  0  0.662523  0  3.904506  0  0  0.607485  0  4.202686  0  0  0.642874  0  4.194228  0  0  0.200439  0.583357  0  4.20773  0
C  C52  1  0.13565296  0.43601906  0.25548221  1  0  0.175818  0  3.62952  0  0  0.112186  0  3.898145  0  0  0.127392  0  3.909502  0  0  0.146211  0.102316  0  3.890078  0
C  C53  1  0.86434783  0.56398537  0.74452276  1  0  0.17586  0  3.629781  0  0  0.112179  0  3.898417  0  0  0.127385  0  3.909777  0  0  0.146173  0.102307  0  3.890354  0
C  C54  1  0.30528166  0.27672738  0.30537155  1  0  -0.061662  0  3.660464  0  0  -0.093901  0  3.915224  0  0  -0.092663  0  3.93148  0  0  0.004565  -0.094528  0  3.904192  0
C  C55  1  0.69471960  0.72328090  0.69463505  1  0  -0.06145  0  3.660452  0  0  -0.093665  0  3.915187  0  0  -0.092446  0  3.93143  0  0  0.004695  -0.094291  0  3.904154  0
C  C56  1  0.35768156  0.32077585  0.22070873  1  0  0.005347  0  3.743146  0  0  -0.02765  0  4.002268  0  0  -0.025945  0  4.022987  0  0  -0.001271  -0.028823  0  3.988231  0
C  C57  1  0.64231623  0.67922665  0.77929616  1  0  0.005227  0  3.743189  0  0  -0.027749  0  4.002301  0  0  -0.026043  0  4.023022  0  0  -0.001311  -0.02892  0  3.988266  0
C  C58  1  0.06404007  0.33457083  0.40581058  1  0  0.169474  0  3.799276  0  0  0.160873  0  4.047619  0  0  0.165249  0  4.071975  0  0  0.091051  0.157939  0  4.031233  0
C  C59  1  0.93596059  0.66543264  0.59419337  1  0  0.169642  0  3.799402  0  0  0.161057  0  4.047678  0  0  0.165433  0  4.072032  0  0  0.091073  0.158121  0  4.031294  0
C  C60  1  0.87605717  0.35853028  0.38039558  1  0  -0.149009  0  3.758914  0  0  -0.169691  0  4.013779  0  0  -0.174101  0  4.03648  0  0  -0.090264  -0.166678  0  3.998428  0
C  C61  1  0.12394218  0.64147415  0.61960584  1  0  -0.149016  0  3.759044  0  0  -0.169708  0  4.013883  0  0  -0.174118  0  4.036591  0  0  -0.090331  -0.166697  0  3.998537  0
C  C62  1  0.77665729  0.33004667  0.45300506  1  0  -0.096357  0  3.751601  0  0  -0.118775  0  4.00197  0  0  -0.120518  0  4.023826  0  0  -0.09109  -0.11748  0  3.987213  0
C  C63  1  0.22334208  0.66995776  0.54699719  1  0  -0.096378  0  3.751666  0  0  -0.11875  0  4.002062  0  0  -0.120514  0  4.023892  0  0  -0.091067  -0.117456  0  3.987311  0
C  C64  1  0.85971785  0.27486430  0.54877884  1  0  0.061663  0  3.758997  0  0  0.081159  0  3.997955  0  0  0.079911  0  4.022313  0  0  -0.011179  0.081946  0  3.981362  0
C  C65  1  0.14027975  0.72513724  0.45122091  1  0  0.061614  0  3.759058  0  0  0.081069  0  3.99802  0  0  0.07982  0  4.022384  0  0  -0.011223  0.081856  0  3.981425  0
C  C66  1  0.05070231  0.25937308  0.57671725  1  0  -0.093319  0  3.724773  0  0  -0.111805  0  3.968394  0  0  -0.113589  0  3.989306  0  0  -0.085205  -0.110409  0  3.954053  0
C  C67  1  0.94929762  0.74062462  0.42328385  1  0  -0.093175  0  3.724662  0  0  -0.111581  0  3.968291  0  0  -0.113354  0  3.989192  0  0  -0.085145  -0.110185  0  3.953945  0
C  C68  1  0.15349933  0.28996192  0.50645823  1  0  -0.141047  0  3.735083  0  0  -0.160262  0  3.984572  0  0  -0.163318  0  4.003856  0  0  -0.089169  -0.158301  0  3.971645  0
C  C69  1  0.84650005  0.71004251  0.49354485  1  0  -0.141228  0  3.73511  0  0  -0.16043  0  3.984603  0  0  -0.163487  0  4.003879  0  0  -0.089215  -0.158464  0  3.971672  0
C  C70  1  0.74353659  0.22584573  0.61496249  1  0  -0.041934  0  3.694012  0  0  -0.103738  0  3.952011  0  0  -0.099524  0  3.963586  0  0  -0.066928  -0.106309  0  3.943911  0
C  C71  1  0.25646367  0.77415486  0.38503756  1  0  -0.0421  0  3.694215  0  0  -0.103864  0  3.952157  0  0  -0.099653  0  3.963734  0  0  -0.066961  -0.106432  0  3.944048  0
C  C72  1  0.66627390  0.01985128  0.47187580  1  0  -0.020881  0  3.697731  0  0  -0.077056  0  3.958066  0  0  -0.074056  0  3.970368  0  0  -0.074841  -0.078849  0  3.949347  0
C  C73  1  0.33372461  0.98014642  0.52812257  1  0  -0.020947  0  3.697848  0  0  -0.077189  0  3.958295  0  0  -0.074176  0  3.970577  0  0  -0.074917  -0.078981  0  3.949576  0
C  C74  1  0.49261559  0.07871765  0.60644010  1  0  -0.032276  0  3.699568  0  0  -0.090032  0  3.965317  0  0  -0.087028  0  3.977596  0  0  -0.076489  -0.091894  0  3.956804  0
C  C75  1  0.50738429  0.92128005  0.39355770  1  0  -0.032237  0  3.699413  0  0  -0.090003  0  3.965143  0  0  -0.08699  0  3.977415  0  0  -0.076468  -0.091863  0  3.956624  0
N  N76  1  0.25174080  0.41992905  0.19097834  1  0  -0.396401  0  3.280733  0  0  -0.317893  0  3.568658  0  0  -0.340479  0  3.585728  0  0  -0.360917  -0.302356  0  3.556463  0
N  N77  1  0.74825835  0.58007346  0.80902516  1  0  -0.396379  0  3.280771  0  0  -0.317881  0  3.568726  0  0  -0.340468  0  3.585796  0  0  -0.360954  -0.302345  0  3.556533  0
N  N78  1  0.16469604  0.35107087  0.32707632  1  0  -0.086245  0  3.599451  0  0  0.003367  0  3.808966  0  0  -0.011149  0  3.834001  0  0  -0.222865  0.01292  0  3.791912  0
N  N79  1  0.83530348  0.64893452  0.67292943  1  0  -0.086619  0  3.599947  0  0  0.003017  0  3.809451  0  0  -0.011499  0  3.834483  0  0  -0.222888  0.012571  0  3.792397  0
N  N80  1  0.59411965  0.12812608  0.53673581  1  0  -0.242573  0  3.209346  0  0  -0.162883  0  3.468767  0  0  -0.178152  0  3.48797  0  0  -0.343753  -0.152393  0  3.455211  0
N  N81  1  0.40588037  0.87187258  0.46326302  1  0  -0.242365  0  3.209407  0  0  -0.162666  0  3.468796  0  0  -0.177936  0  3.487998  0  0  -0.343672  -0.152177  0  3.455236  0
O  O82  1  0.13410542  0.71333848  0.06124452  1  0  -0.619306  0  1.997517  0  0  -0.55458  0  2.249862  0  0  -0.583883  0  2.239919  0  0  -0.320683  -0.534366  0  2.256172  0
O  O83  1  0.86589299  0.28665923  0.93874726  1  0  -0.619378  0  1.997188  0  0  -0.554676  0  2.249556  0  0  -0.583979  0  2.23961  0  0  -0.320813  -0.534463  0  2.255867  0
O  O84  1  0.91060327  0.60471068  0.10142673  1  0  -0.679455  0  2.040194  0  0  -0.611815  0  2.299455  0  0  -0.639692  0  2.286017  0  0  -0.338911  -0.592116  0  2.307896  0
O  O85  1  0.08940644  0.39528800  0.89857137  1  0  -0.679478  0  2.040147  0  0  -0.611848  0  2.299396  0  0  -0.639713  0  2.285925  0  0  -0.338915  -0.592148  0  2.30784  0
O  O86  1  0.50500547  0.64010177  0.99168288  1  0  -0.684593  0  1.974667  0  0  -0.610134  0  2.220941  0  0  -0.641905  0  2.208464  0  0  -0.337299  -0.587568  0  2.228859  0
O  O87  1  0.49499757  0.35989882  0.00831767  1  0  -0.684575  0  1.974571  0  0  -0.610132  0  2.220892  0  0  -0.641899  0  2.208409  0  0  -0.337316  -0.58756  0  2.228797  0
O  O88  1  0.55153196  0.68323164  0.18693239  1  0  -0.606808  0  1.945654  0  0  -0.548206  0  2.17994  0  0  -0.575871  0  2.170299  0  0  -0.311128  -0.528618  0  2.185849  0
O  O89  1  0.44846899  0.31676318  0.81306671  1  0  -0.606829  0  1.945689  0  0  -0.548186  0  2.179964  0  0  -0.575853  0  2.170326  0  0  -0.311128  -0.528598  0  2.185875  0
