# generated using pymatgen
data_CuH12C12SN3O5
_symmetry_space_group_name_H-M   'P 1'
_cell_length_a   7.72020381
_cell_length_b   9.29869776
_cell_length_c   10.80582678
_cell_angle_alpha   99.48881595
_cell_angle_beta   96.71371103
_cell_angle_gamma   94.13576571
_symmetry_Int_Tables_number   1
_chemical_formula_structural   CuH12C12SN3O5
_chemical_formula_sum   'Cu2 H24 C24 S2 N6 O10'
_cell_volume   756.55217283
_cell_formula_units_Z   2
loop_
 _symmetry_equiv_pos_site_id
 _symmetry_equiv_pos_as_xyz
  1  'x, y, z'
loop_
 _atom_site_type_symbol
 _atom_site_label
 _atom_site_symmetry_multiplicity
 _atom_site_fract_x
 _atom_site_fract_y
 _atom_site_fract_z
 _atom_site_occupancy
 _atom_site_hle17_ddec_charge
 _atom_site_hle17_ddec_spin_density
 _atom_site_hle17_ddec_sum_bond_order
 _atom_site_hle17_magmom
 _atom_site_hse06_10hf_ddec_charge
 _atom_site_hse06_10hf_ddec_spin_density
 _atom_site_hse06_10hf_ddec_sum_bond_order
 _atom_site_hse06_10hf_magmom
 _atom_site_hse06_ddec_charge
 _atom_site_hse06_ddec_spin_density
 _atom_site_hse06_ddec_sum_bond_order
 _atom_site_hse06_magmom
 _atom_site_pbe_cm5_charge
 _atom_site_pbe_ddec_charge
 _atom_site_pbe_ddec_spin_density
 _atom_site_pbe_ddec_sum_bond_order
 _atom_site_pbe_magmom
Cu  Cu0  1  0.72722874  0.79513068  0.94272028  1  0.829056  0.725316  1.854877  0.504  0.79807  0.806328  2.244313  0.62  0.881534  0.884447  2.184923  0.706  0.757656  0.74739  0.745223  2.285248  0.56
Cu  Cu1  1  0.27276831  0.20486926  0.05727875  1  0.829058  -0.725328  1.854993  -0.504  0.798069  -0.806329  2.244432  -0.62  0.881497  -0.884453  2.185022  -0.706  0.75768  0.747372  -0.745229  2.285352  -0.56
H  H2  1  0.98518394  0.38544537  0.07182706  1  0.098676  -0.001128  0.954878  -0.002  0.098315  -0.001029  1.030735  -0.001  0.10177  -0.000773  1.026638  -0.001  0.121323  0.096027  -0.001217  1.032784  -0.001
H  H3  1  0.01481073  0.61455675  0.92817301  1  0.098592  0.001128  0.954982  0.002  0.098329  0.001029  1.030732  0.001  0.101788  0.000773  1.026629  0.001  0.121339  0.096038  0.001218  1.032781  0.001
H  H4  1  0.15709083  0.76584742  0.35922528  1  0.102422  -0.000275  0.932156  0.0  0.113995  1.6e-05  0.989562  0.0  0.116816  3.1e-05  0.98732  0.0  0.112663  0.112023  -2.2e-05  0.991264  0.0
H  H5  1  0.84291665  0.23415256  0.64077461  1  0.102371  0.000273  0.932146  0.0  0.113972  -1.6e-05  0.989533  0.0  0.116793  -3.1e-05  0.98729  0.0  0.11266  0.112001  2.2e-05  0.991236  0.0
H  H6  1  0.45859470  0.67516976  0.37360184  1  0.106372  -0.000356  0.968258  0.0  0.113704  -0.000445  1.030954  -0.001  0.116373  -0.000318  1.031535  0.0  0.107501  0.11198  -0.000561  1.030328  -0.001
H  H7  1  0.54140405  0.32482142  0.62640718  1  0.106433  0.000353  0.968243  0.0  0.113739  0.000445  1.030973  0.001  0.116406  0.000318  1.031559  0.0  0.107502  0.112016  0.000561  1.030347  0.001
H  H8  1  0.50365049  0.44217059  0.23687692  1  0.094711  -0.001119  0.930307  -0.002  0.100674  -0.000987  0.994327  -0.001  0.103441  -0.00072  0.990936  -0.001  0.124524  0.09871  -0.001207  0.996256  -0.002
H  H9  1  0.49634673  0.55781840  0.76313352  1  0.094642  0.001122  0.930415  0.002  0.100652  0.000988  0.994359  0.001  0.103423  0.00072  0.99097  0.001  0.12456  0.098686  0.001208  0.996287  0.002
H  H10  1  0.09190545  0.92127120  0.16468842  1  0.095042  0.000874  0.937241  0.001  0.105935  0.000235  1.003979  0.0  0.106388  0.000165  1.00491  0.0  0.102901  0.105119  0.000301  1.003638  0.0
H  H11  1  0.90809320  0.07873204  0.83529547  1  0.095023  -0.000875  0.93715  -0.001  0.105937  -0.000235  1.003911  0.0  0.106396  -0.000166  1.004842  0.0  0.102863  0.105124  -0.000301  1.003572  0.0
H  H12  1  0.94024731  0.93120568  0.27726474  1  0.08395  0.000705  0.935664  0.001  0.098292  0.000926  0.997127  0.001  0.099738  0.00073  0.996057  0.001  0.104517  0.096945  0.001095  0.998195  0.001
H  H13  1  0.05976595  0.06879980  0.72273085  1  0.083967  -0.000707  0.935636  -0.001  0.098286  -0.000926  0.997155  -0.001  0.099737  -0.000729  0.996086  -0.001  0.104512  0.096943  -0.001095  0.998225  -0.001
H  H14  1  0.81566093  0.74670579  0.67344739  1  0.098191  0.000771  0.939204  0.001  0.106911  0.000674  0.99649  0.001  0.109369  0.000521  0.994501  0.001  0.123684  0.104688  0.000693  0.998102  0.001
H  H15  1  0.18434895  0.25329200  0.32655978  1  0.098223  -0.000773  0.939307  -0.001  0.106879  -0.000675  0.996642  -0.001  0.109349  -0.000522  0.99464  -0.001  0.123709  0.104664  -0.000694  0.998245  -0.001
H  H16  1  0.72026981  0.83305356  0.47548362  1  0.12719  0.000279  0.983463  0.0  0.136753  0.000336  1.04296  0.0  0.140783  0.000252  1.040384  0.0  0.110081  0.133617  0.000454  1.045373  0.001
H  H17  1  0.27974658  0.16694426  0.52451947  1  0.127248  -0.000278  0.983358  0.0  0.136814  -0.000336  1.042838  0.0  0.140843  -0.000251  1.040264  0.0  0.110089  0.133682  -0.000454  1.045252  -0.001
H  H18  1  0.36930928  0.09667707  0.68214975  1  0.117908  0.000291  0.977095  0.0  0.126037  0.000346  1.039763  0.0  0.129355  0.000249  1.038888  0.0  0.110573  0.123545  0.00037  1.040387  0.0
H  H19  1  0.63069215  0.90331522  0.31784484  1  0.117877  -0.000293  0.977126  0.0  0.126022  -0.000346  1.039774  0.0  0.129337  -0.000249  1.038904  0.0  0.110574  0.123536  -0.00037  1.040369  0.0
H  H20  1  0.47326963  0.99178734  0.86771247  1  0.095252  0.001127  0.967109  0.002  0.103192  0.00089  1.028218  0.001  0.104954  0.000664  1.026902  0.001  0.123355  0.101395  0.001056  1.029672  0.002
H  H21  1  0.52672421  0.00820712  0.13228274  1  0.095181  -0.001128  0.967092  -0.002  0.103143  -0.00089  1.028185  -0.001  0.104909  -0.000664  1.026858  -0.001  0.123335  0.101347  -0.001056  1.029637  -0.002
H  H22  1  0.38253226  0.65676037  0.96246725  1  0.431894  2.6e-05  0.859603  0.0  0.409705  -0.0  0.90924  0.0  0.419649  0.0  0.894686  0.0  0.293447  0.403244  4e-06  0.918569  0.0
H  H23  1  0.61746255  0.34324284  0.03753669  1  0.43181  -2.4e-05  0.8597  0.0  0.409621  1e-06  0.909337  0.0  0.419562  -0.0  0.894788  0.0  0.293404  0.403159  -4e-06  0.918671  0.0
H  H24  1  0.35766353  0.82476041  0.98548800  1  0.408386  -0.0002  0.894407  0.0  0.3819  -0.000339  0.956577  0.0  0.394651  -0.000243  0.937743  0.0  0.282228  0.373181  -0.000392  0.969338  0.0
H  H25  1  0.64232627  0.17524498  0.01450843  1  0.408377  0.000201  0.894285  0.0  0.381872  0.000339  0.956578  0.0  0.394623  0.000243  0.937742  0.0  0.282211  0.373154  0.000392  0.969336  0.0
C  C26  1  0.08624759  0.45440197  0.13819454  1  0.135473  0.009885  3.6687  0.01  0.095579  0.002185  3.926049  0.003  0.107259  0.002922  3.941076  0.004  0.054713  0.088172  0.001613  3.915888  0.002
C  C27  1  0.91374673  0.54559686  0.86180411  1  0.135543  -0.009881  3.668761  -0.01  0.095636  -0.002184  3.926057  -0.003  0.107315  -0.002922  3.941084  -0.004  0.054725  0.088227  -0.001613  3.915888  -0.002
C  C28  1  0.05061425  0.58444075  0.21071227  1  -0.150607  -0.003077  3.687258  -0.003  -0.120517  -0.000595  3.929206  -0.001  -0.131432  -0.001266  3.948447  -0.002  -0.011949  -0.113239  -0.00021  3.916416  -0.001
C  C29  1  0.94938585  0.41556358  0.78928300  1  -0.150574  0.003066  3.68722  0.003  -0.120499  0.000591  3.92919  0.001  -0.131413  0.001267  3.94843  0.002  -0.01197  -0.113225  0.00021  3.916404  0.001
C  C30  1  0.18363652  0.66600057  0.29888632  1  -0.000109  0.009743  3.691836  0.009  -0.029349  0.003068  3.935271  0.003  -0.021232  0.003249  3.949467  0.003  -0.059856  -0.035005  0.003066  3.925688  0.003
C  C31  1  0.81636552  0.33399720  0.70111280  1  -8.8e-05  -0.009734  3.691926  -0.009  -0.029353  -0.003067  3.935359  -0.003  -0.02124  -0.003244  3.949562  -0.003  -0.059867  -0.035004  -0.003066  3.925772  -0.003
C  C32  1  0.34923921  0.61556598  0.30827677  1  -0.102354  -0.010525  3.711794  -0.011  -0.111292  -0.00397  3.962002  -0.005  -0.119381  -0.003742  3.981238  -0.004  -0.077072  -0.106397  -0.004079  3.948473  -0.005
C  C33  1  0.65076107  0.38442740  0.69172621  1  -0.102488  0.010534  3.711853  0.011  -0.111404  0.003972  3.962093  0.005  -0.119494  0.003736  3.981331  0.004  -0.077045  -0.106507  0.00408  3.948566  0.005
C  C34  1  0.37597450  0.48500664  0.23234532  1  0.144656  0.008653  3.652004  0.009  0.107261  0.001273  3.915114  0.002  0.119222  0.002211  3.930151  0.003  0.055496  0.099669  0.000797  3.904786  0.002
C  C35  1  0.62402113  0.51499220  0.76765807  1  0.144928  -0.008668  3.65223  -0.009  0.107531  -0.001275  3.91535  -0.002  0.119487  -0.002208  3.930393  -0.003  0.055543  0.099936  -0.000798  3.905017  -0.002
C  C36  1  0.95119528  0.91384977  0.17527316  1  -0.10893  0.000798  3.7451  -0.001  -0.162011  0.001624  4.01381  0.0  -0.160173  0.001048  4.024288  0.0  -0.083488  -0.162752  0.001935  4.006449  0.0
C  C37  1  0.04880351  0.08615456  0.82471923  1  -0.108804  -0.000792  3.744805  0.001  -0.161953  -0.001625  4.013617  0.0  -0.160136  -0.001051  4.024117  0.0  -0.083446  -0.162711  -0.001935  4.00628  0.0
C  C38  1  0.87438863  0.04161065  0.12321309  1  0.660103  -0.003264  3.851672  -0.005  0.618617  0.001053  4.164019  0.0  0.653027  0.000715  4.158812  0.0  0.202897  0.594978  0.001202  4.166106  0.0
C  C39  1  0.12560922  0.95839696  0.87678432  1  0.659937  0.003271  3.851872  0.005  0.61845  -0.001048  4.164281  0.0  0.652866  -0.000713  4.159079  0.0  0.202781  0.594812  -0.001203  4.166369  0.0
C  C40  1  0.71262766  0.82033403  0.66956521  1  0.124892  -0.00808  3.704867  -0.008  0.098392  -0.001069  3.959395  -0.002  0.107444  -0.002032  3.977452  -0.003  0.048311  0.092708  -0.000432  3.947141  -0.001
C  C41  1  0.28737710  0.17966484  0.33043522  1  0.124931  0.008079  3.705015  0.008  0.098468  0.00107  3.959549  0.002  0.10751  0.002035  3.977603  0.003  0.048298  0.092782  0.000432  3.947302  0.001
C  C42  1  0.65971671  0.87241242  0.55922018  1  -0.166914  0.011319  3.688247  0.011  -0.182505  0.004011  3.927955  0.005  -0.190538  0.00393  3.947282  0.004  -0.083228  -0.17761  0.0039  3.915856  0.004
C  C43  1  0.34029019  0.12758208  0.44077888  1  -0.167022  -0.011327  3.688271  -0.011  -0.182628  -0.004009  3.927937  -0.005  -0.190663  -0.003935  3.947272  -0.004  -0.083243  -0.177735  -0.003901  3.915843  -0.004
C  C44  1  0.53092888  0.97189484  0.55808672  1  0.090098  -0.009661  3.760293  -0.01  0.101456  -0.002962  3.991333  -0.003  0.105626  -0.003229  4.013099  -0.004  0.011949  0.098196  -0.002799  3.977457  -0.003
C  C45  1  0.46907671  0.02809965  0.44191131  1  0.090026  0.009668  3.760436  0.01  0.101468  0.00296  3.9914  0.003  0.105633  0.00323  4.013169  0.004  0.012042  0.098211  0.002798  3.977524  0.003
C  C46  1  0.46477014  0.01619663  0.67254322  1  -0.148845  0.011821  3.66412  0.012  -0.165034  0.004309  3.904717  0.005  -0.173396  0.004151  3.925284  0.005  -0.07782  -0.159983  0.004104  3.891533  0.005
C  C47  1  0.53522976  0.98379347  0.32745187  1  -0.148826  -0.011823  3.664049  -0.012  -0.165033  -0.004307  3.904625  -0.005  -0.173392  -0.004153  3.925189  -0.005  -0.077894  -0.159977  -0.004105  3.89144  -0.005
C  C48  1  0.52364995  0.95858226  0.77872618  1  0.14785  -0.00824  3.659265  -0.009  0.120784  -0.00112  3.909037  -0.002  0.130958  -0.00222  3.925707  -0.003  0.051258  0.113522  -0.000266  3.899212  -0.001
C  C49  1  0.47634639  0.04141111  0.22127001  1  0.147977  0.00824  3.659093  0.009  0.120895  0.001122  3.908852  0.002  0.131066  0.002221  3.925522  0.003  0.051299  0.113633  0.000266  3.899024  0.001
S  S50  1  0.83802609  0.64758364  0.18552755  1  1.212658  0.005373  5.552185  0.002  1.122567  0.00546  6.067227  0.003  1.170194  0.004107  6.052917  0.002  0.542905  1.090802  0.006565  6.07564  0.003
S  S51  1  0.16197676  0.35242179  0.81447366  1  1.212579  -0.005365  5.552251  -0.002  1.122426  -0.005467  6.067317  -0.003  1.170058  -0.004107  6.053007  -0.002  0.54285  1.090667  -0.006566  6.075727  -0.003
N  N52  1  0.64423224  0.86110676  0.77777024  1  -0.304484  0.073861  3.337209  0.09  -0.254948  0.052916  3.630488  0.069  -0.283989  0.044583  3.651113  0.061  -0.344033  -0.23802  0.056936  3.618493  0.072
N  N53  1  0.35576969  0.13888991  0.22223243  1  -0.304547  -0.073858  3.337279  -0.09  -0.255018  -0.052925  3.630553  -0.069  -0.284049  -0.044585  3.651164  -0.061  -0.344047  -0.23808  -0.056941  3.618546  -0.072
N  N54  1  0.86139334  0.77500559  0.10698096  1  -0.635646  0.078915  3.173065  0.093  -0.597142  0.047591  3.526236  0.059  -0.637868  0.038256  3.537775  0.05  -0.467284  -0.571955  0.052019  3.519436  0.063
N  N55  1  0.13860418  0.22499873  0.89301873  1  -0.635701  -0.07892  3.173029  -0.093  -0.597093  -0.047592  3.526159  -0.059  -0.637802  -0.038259  3.53768  -0.05  -0.467255  -0.571893  -0.052019  3.519349  -0.063
N  N56  1  0.24586528  0.40556294  0.15031065  1  -0.286433  -0.075585  3.346091  -0.092  -0.234518  -0.055948  3.644286  -0.073  -0.264977  -0.047163  3.664987  -0.065  -0.341986  -0.216715  -0.060212  3.63209  -0.076
N  N57  1  0.75412716  0.59443041  0.84968984  1  -0.286573  0.075586  3.346381  0.092  -0.234774  0.055948  3.644732  0.073  -0.265245  0.047165  3.665452  0.065  -0.342101  -0.216959  0.060215  3.632524  0.076
O  O58  1  0.44444506  0.75349031  0.99712516  1  -0.838014  -0.001973  1.831557  -0.001  -0.807147  -0.001521  2.012692  -0.001  -0.826829  -0.001445  1.976355  -0.001  -0.603863  -0.793147  -0.001487  2.036451  -0.001
O  O59  1  0.55554327  0.24651287  0.00289305  1  -0.837919  0.001969  1.831575  0.001  -0.807037  0.001521  2.012846  0.001  -0.826722  0.001446  1.976527  0.001  -0.603815  -0.793028  0.001487  2.036599  0.001
O  O60  1  0.75994805  0.00712459  0.02129786  1  -0.621557  0.087594  2.077002  0.115  -0.573883  0.056608  2.341922  0.081  -0.617196  0.044103  2.335576  0.066  -0.326408  -0.544995  0.064056  2.346281  0.089
O  O61  1  0.24004980  0.99288302  0.97869770  1  -0.621407  -0.087581  2.077069  -0.115  -0.573756  -0.056604  2.34202  -0.081  -0.617067  -0.044099  2.335667  -0.066  -0.326349  -0.544865  -0.064048  2.34637  -0.089
O  O62  1  0.91906704  0.16983751  0.17614415  1  -0.581112  0.028509  1.897176  0.034  -0.562509  0.011799  2.130631  0.015  -0.590364  0.005905  2.123282  0.008  -0.316613  -0.539377  0.019803  2.131842  0.025
O  O63  1  0.08093070  0.83016900  0.82385217  1  -0.581071  -0.028518  1.897156  -0.034  -0.562479  -0.011798  2.13066  -0.015  -0.590336  -0.005903  2.123312  -0.008  -0.316574  -0.539341  -0.019802  2.131861  -0.025
O  O64  1  0.72543068  0.52670017  0.10735798  1  -0.622643  -0.001684  2.027523  -0.002  -0.56885  -0.000596  2.270752  0.0  -0.59122  -0.000538  2.259097  0.0  -0.313007  -0.553828  -0.000657  2.277584  0.0
O  O65  1  0.27456579  0.47330633  0.89264934  1  -0.622579  0.001682  2.027573  0.002  -0.568792  0.000599  2.270836  0.0  -0.591175  0.000537  2.259191  0.0  -0.312925  -0.55377  0.000658  2.277672  0.0
O  O66  1  0.79568028  0.69856256  0.31295769  1  -0.63709  0.004586  1.937165  0.006  -0.588393  0.003541  2.175623  0.005  -0.609897  0.002352  2.162757  0.003  -0.335392  -0.572873  0.004277  2.18366  0.006
O  O67  1  0.20433133  0.30145166  0.68704548  1  -0.637169  -0.00458  1.937183  -0.006  -0.588432  -0.003539  2.175643  -0.005  -0.609922  -0.002354  2.162751  -0.003  -0.335429  -0.572909  -0.004277  2.183677  -0.006
