# generated using pymatgen
data_LiH5C7N2O7
_symmetry_space_group_name_H-M   'P 1'
_cell_length_a   4.97603608
_cell_length_b   6.03743886
_cell_length_c   15.79084644
_cell_angle_alpha   92.59813188
_cell_angle_beta   90.00029038
_cell_angle_gamma   89.99978657
_symmetry_Int_Tables_number   1
_chemical_formula_structural   LiH5C7N2O7
_chemical_formula_sum   'Li2 H10 C14 N4 O14'
_cell_volume   473.90906198
_cell_formula_units_Z   2
loop_
 _symmetry_equiv_pos_site_id
 _symmetry_equiv_pos_as_xyz
  1  'x, y, z'
loop_
 _atom_site_type_symbol
 _atom_site_label
 _atom_site_symmetry_multiplicity
 _atom_site_fract_x
 _atom_site_fract_y
 _atom_site_fract_z
 _atom_site_occupancy
 _atom_site_hle17_bader_spin_density
 _atom_site_hle17_ddec_charge
 _atom_site_hle17_ddec_spin_density
 _atom_site_hle17_ddec_sum_bond_order
 _atom_site_hle17_magmom
 _atom_site_hse06_10hf_bader_spin_density
 _atom_site_hse06_10hf_ddec_charge
 _atom_site_hse06_10hf_ddec_spin_density
 _atom_site_hse06_10hf_ddec_sum_bond_order
 _atom_site_hse06_10hf_magmom
 _atom_site_hse06_bader_spin_density
 _atom_site_hse06_ddec_charge
 _atom_site_hse06_ddec_spin_density
 _atom_site_hse06_ddec_sum_bond_order
 _atom_site_hse06_magmom
 _atom_site_pbe_bader_spin_density
 _atom_site_pbe_cm5_charge
 _atom_site_pbe_ddec_charge
 _atom_site_pbe_ddec_spin_density
 _atom_site_pbe_ddec_sum_bond_order
 _atom_site_pbe_magmom
Li  Li0  1  0.49669466  0.09753888  0.04004450  1  0  0.854206  0  0.402766  0  0  0.814711  0  0.508889  0  0  0.824325  0  0.49167  0  0  0.508534  0.807689  0  0.521335  0
Li  Li1  1  0.99669665  0.90247058  0.95995521  1  0  0.854199  0  0.402777  0  0  0.814685  0  0.508923  0  0  0.824304  0  0.491702  0  0  0.508524  0.807664  0  0.52137  0
H  H2  1  0.49445686  0.89970635  0.37800885  1  0  0.142678  0  0.955967  0  0  0.140715  0  1.030334  0  0  0.145534  0  1.025875  0  0  0.123201  0.137288  0  1.033504  0
H  H3  1  0.99446100  0.10029649  0.62198946  1  0  0.142684  0  0.955998  0  0  0.140737  0  1.030329  0  0  0.145556  0  1.025868  0  0  0.123202  0.137308  0  1.033498  0
H  H4  1  0.04506606  0.45263807  0.38316536  1  0  0.128598  0  0.95061  0  0  0.126624  0  1.027281  0  0  0.131618  0  1.022279  0  0  0.114711  0.123055  0  1.030838  0
H  H5  1  0.54505808  0.54735444  0.61683775  1  0  0.128628  0  0.95053  0  0  0.126675  0  1.027183  0  0  0.131673  0  1.02217  0  0  0.114722  0.123104  0  1.030739  0
H  H6  1  0.17869354  0.35073703  0.23461873  1  0  0.117038  0  0.966022  0  0  0.119709  0  1.033946  0  0  0.124774  0  1.030552  0  0  0.111825  0.115997  0  1.036712  0
H  H7  1  0.67868951  0.64926007  0.76538341  1  0  0.116995  0  0.96605  0  0  0.119675  0  1.033959  0  0  0.12474  0  1.030563  0  0  0.111804  0.115961  0  1.036725  0
H  H8  1  0.51609109  0.50535821  0.08703451  1  0  0.418747  0  0.878783  0  0  0.385664  0  0.945664  0  0  0.396258  0  0.929842  0  0  0.311264  0.378195  0  0.956855  0
H  H9  1  0.01609335  0.49464768  0.91296436  1  0  0.418701  0  0.878853  0  0  0.385615  0  0.94574  0  0  0.396208  0  0.92992  0  0  0.311253  0.378153  0  0.956921  0
H  H10  1  0.29108013  0.48749196  0.01576356  1  0  0.439383  0  0.846377  0  0  0.412158  0  0.902605  0  0  0.422116  0  0.887962  0  0  0.314833  0.40506  0  0.913063  0
H  H11  1  0.79108224  0.51251479  0.98423451  1  0  0.439271  0  0.846494  0  0  0.412032  0  0.902753  0  0  0.421992  0  0.888108  0  0  0.3148  0.404934  0  0.913211  0
C  C12  1  0.01940602  0.02172376  0.13204058  1  0  0.715002  0  3.932418  0  0  0.663476  0  4.24056  0  0  0.697638  0  4.227664  0  0  0.234596  0.640229  0  4.248442  0
C  C13  1  0.51941021  0.97828046  0.86795953  1  0  0.715133  0  3.932305  0  0  0.663554  0  4.240532  0  0  0.697711  0  4.227635  0  0  0.234639  0.640308  0  4.248414  0
C  C14  1  0.91680970  0.06776797  0.22146979  1  0  -0.031842  0  3.617314  0  0  -0.023963  0  3.859506  0  0  -0.022606  0  3.874516  0  0  0.026668  -0.025012  0  3.849239  0
C  C15  1  0.41681387  0.93223012  0.77852894  1  0  -0.031891  0  3.617405  0  0  -0.023996  0  3.859568  0  0  -0.022637  0  3.874575  0  0  0.026648  -0.025045  0  3.849297  0
C  C16  1  0.72521382  0.94350936  0.26429742  1  0  0.078761  0  3.663744  0  0  0.055379  0  3.915844  0  0  0.056701  0  3.939516  0  0  0.094813  0.05741  0  3.902326  0
C  C17  1  0.22521518  0.05648929  0.73570102  1  0  0.078833  0  3.663783  0  0  0.055458  0  3.915792  0  0  0.056771  0  3.939459  0  0  0.094852  0.057487  0  3.902268  0
C  C18  1  0.63882653  0.00225939  0.34612328  1  0  -0.102974  0  3.671094  0  0  -0.141818  0  3.934836  0  0  -0.138853  0  3.949633  0  0  -0.05905  -0.143173  0  3.924026  0
C  C19  1  0.13882841  0.99774117  0.65387569  1  0  -0.10307  0  3.671007  0  0  -0.141907  0  3.934752  0  0  -0.138938  0  3.949545  0  0  -0.059085  -0.14326  0  3.923936  0
C  C20  1  0.75548557  0.18636137  0.38696527  1  0  0.082591  0  3.689205  0  0  0.07805  0  3.943143  0  0  0.073873  0  3.965119  0  0  0.084802  0.080479  0  3.928461  0
C  C21  1  0.25548962  0.81363387  0.61303506  1  0  0.082738  0  3.689125  0  0  0.078135  0  3.943138  0  0  0.073955  0  3.965114  0  0  0.08485  0.080566  0  3.928446  0
C  C22  1  0.95145823  0.31283393  0.34838608  1  0  -0.043659  0  3.63613  0  0  -0.076851  0  3.898524  0  0  -0.073939  0  3.915255  0  0  -0.061222  -0.078428  0  3.887147  0
C  C23  1  0.45145543  0.68716238  0.65161584  1  0  -0.043679  0  3.636195  0  0  -0.076876  0  3.898559  0  0  -0.07396  0  3.915283  0  0  -0.061225  -0.078454  0  3.887177  0
C  C24  1  0.02687638  0.25325798  0.26559626  1  0  -0.06201  0  3.676507  0  0  -0.085543  0  3.932992  0  0  -0.091142  0  3.953177  0  0  -0.07291  -0.081989  0  3.919797  0
C  C25  1  0.52687543  0.74673791  0.73440561  1  0  -0.062085  0  3.676702  0  0  -0.085598  0  3.933142  0  0  -0.091197  0  3.953324  0  0  -0.072951  -0.082045  0  3.919942  0
N  N26  1  0.61622361  0.73806935  0.22647251  1  0  0.489637  0  3.941337  0  0  0.54216  0  4.201116  0  0  0.546957  0  4.236317  0  0  0.066425  0.52701  0  4.196666  0
N  N27  1  0.11622466  0.26193293  0.77352646  1  0  0.489316  0  3.941562  0  0  0.541981  0  4.201159  0  0  0.546803  0  4.236326  0  0  0.066287  0.526831  0  4.196711  0
N  N28  1  0.67821180  0.24023265  0.47500907  1  0  0.514629  0  3.893371  0  0  0.537962  0  4.197633  0  0  0.560433  0  4.203753  0  0  0.059613  0.522867  0  4.193561  0
N  N29  1  0.17821266  0.75976447  0.52499054  1  0  0.514513  0  3.8934  0  0  0.537821  0  4.197704  0  0  0.560294  0  4.203826  0  0  0.059593  0.52273  0  4.193631  0
O  O30  1  0.85965261  0.03738245  0.06982339  1  0  -0.771201  0  1.966944  0  0  -0.729487  0  2.210187  0  0  -0.75095  0  2.193952  0  0  -0.433188  -0.71397  0  2.220861  0
O  O31  1  0.35965909  0.96262574  0.93017797  1  0  -0.77127  0  1.966909  0  0  -0.729546  0  2.210194  0  0  -0.751009  0  2.193959  0  0  -0.433235  -0.714031  0  2.22087  0
O  O32  1  0.26820628  0.98652486  0.12614008  1  0  -0.699107  0  1.951804  0  0  -0.665272  0  2.196589  0  0  -0.690269  0  2.18665  0  0  -0.37563  -0.646565  0  2.202039  0
O  O33  1  0.76821084  0.01347864  0.87385852  1  0  -0.699142  0  1.951819  0  0  -0.665256  0  2.19658  0  0  -0.69027  0  2.186684  0  0  -0.375629  -0.646549  0  2.20203  0
O  O34  1  0.46555262  0.42545315  0.03352439  1  0  -0.874888  0  1.80709  0  0  -0.82257  0  1.963369  0  0  -0.839942  0  1.931197  0  0  -0.606151  -0.810347  0  1.986  0
O  O35  1  0.96555417  0.57455310  0.96647395  1  0  -0.87471  0  1.807245  0  0  -0.822388  0  1.963509  0  0  -0.839761  0  1.931345  0  0  -0.606086  -0.810167  0  1.986127  0
O  O36  1  0.73467299  0.65290590  0.16338273  1  0  -0.356924  0  1.82904  0  0  -0.33364  0  2.019325  0  0  -0.34168  0  2.023609  0  0  -0.094611  -0.324784  0  2.022859  0
O  O37  1  0.23467669  0.34709604  0.83661579  1  0  -0.35683  0  1.829138  0  0  -0.333569  0  2.019369  0  0  -0.341597  0  2.023625  0  0  -0.094562  -0.324717  0  2.022901  0
O  O38  1  0.41639231  0.65575719  0.25938520  1  0  -0.33122  0  1.791985  0  0  -0.321479  0  1.988728  0  0  -0.3277  0  1.993885  0  0  -0.106783  -0.313299  0  1.991418  0
O  O39  1  0.91639325  0.34424589  0.74061237  1  0  -0.33101  0  1.791937  0  0  -0.321426  0  1.9887  0  0  -0.327669  0  1.99387  0  0  -0.106741  -0.313249  0  1.991391  0
O  O40  1  0.83661711  0.35300844  0.51972240  1  0  -0.352655  0  1.78038  0  0  -0.334795  0  2.000912  0  0  -0.348391  0  1.996787  0  0  -0.11795  -0.325644  0  2.003862  0
O  O41  1  0.33662177  0.64698655  0.48027868  1  0  -0.352643  0  1.780452  0  0  -0.3347  0  2.000951  0  0  -0.3483  0  1.996833  0  0  -0.11792  -0.325554  0  2.003906  0
O  O42  1  0.46048665  0.16843050  0.50016039  1  0  -0.354775  0  1.785056  0  0  -0.341186  0  2.008439  0  0  -0.354751  0  2.006637  0  0  -0.12377  -0.332059  0  2.009737  0
O  O43  1  0.96049159  0.83156581  0.49983775  1  0  -0.354696  0  1.785006  0  0  -0.341111  0  2.008381  0  0  -0.354674  0  2.006578  0  0  -0.123761  -0.331985  0  2.009677  0
