# generated using pymatgen
data_CdH16C17(NO)4
_symmetry_space_group_name_H-M   'P 1'
_cell_length_a   8.74555145
_cell_length_b   10.40956882
_cell_length_c   11.85944612
_cell_angle_alpha   85.76787591
_cell_angle_beta   69.07516480
_cell_angle_gamma   67.34689398
_symmetry_Int_Tables_number   1
_chemical_formula_structural   CdH16C17(NO)4
_chemical_formula_sum   'Cd2 H32 C34 N8 O8'
_cell_volume   928.10255857
_cell_formula_units_Z   2
loop_
 _symmetry_equiv_pos_site_id
 _symmetry_equiv_pos_as_xyz
  1  'x, y, z'
loop_
 _atom_site_type_symbol
 _atom_site_label
 _atom_site_symmetry_multiplicity
 _atom_site_fract_x
 _atom_site_fract_y
 _atom_site_fract_z
 _atom_site_occupancy
 _atom_site_hle17_bader_spin_density
 _atom_site_hle17_ddec_charge
 _atom_site_hle17_ddec_spin_density
 _atom_site_hle17_ddec_sum_bond_order
 _atom_site_hle17_magmom
 _atom_site_hse06_10hf_bader_spin_density
 _atom_site_hse06_10hf_ddec_charge
 _atom_site_hse06_10hf_ddec_spin_density
 _atom_site_hse06_10hf_ddec_sum_bond_order
 _atom_site_hse06_10hf_magmom
 _atom_site_hse06_bader_spin_density
 _atom_site_hse06_ddec_charge
 _atom_site_hse06_ddec_spin_density
 _atom_site_hse06_ddec_sum_bond_order
 _atom_site_hse06_magmom
 _atom_site_pbe_bader_spin_density
 _atom_site_pbe_cm5_charge
 _atom_site_pbe_ddec_charge
 _atom_site_pbe_ddec_spin_density
 _atom_site_pbe_ddec_sum_bond_order
 _atom_site_pbe_magmom
Cd  Cd0  1  0.36063252  0.17556948  0.13993284  1  0  1.132178  0  1.697827  0  0  0.943783  0  2.148358  0  0  0.999747  0  2.096574  0  0  0.768939  0.900511  0  2.186011  0
Cd  Cd1  1  0.63936843  0.82443072  0.86006762  1  0  1.132145  0  1.697824  0  0  0.943731  0  2.148341  0  0  0.999698  0  2.096554  0  0  0.768922  0.900454  0  2.185988  0
H  H2  1  0.27126908  0.03828645  0.42089617  1  0  0.09983  0  0.941311  0  0  0.107934  0  1.006231  0  0  0.111089  0  1.002124  0  0  0.133802  0.105672  0  1.009  0
H  H3  1  0.72873188  0.96171894  0.57910479  1  0  0.099813  0  0.941327  0  0  0.107922  0  1.006239  0  0  0.111075  0  1.002134  0  0  0.133791  0.105648  0  1.009025  0
H  H4  1  0.94907322  0.41989489  0.33250882  1  0  0.098597  0  0.965691  0  0  0.108999  0  1.026275  0  0  0.111294  0  1.025332  0  0  0.114445  0.107221  0  1.027333  0
H  H5  1  0.05092049  0.58010750  0.66748839  1  0  0.098646  0  0.965701  0  0  0.109017  0  1.026319  0  0  0.111312  0  1.025376  0  0  0.114466  0.107234  0  1.027373  0
H  H6  1  0.77227697  0.37241496  0.56963104  1  0  0.109607  0  0.990248  0  0  0.117152  0  1.05646  0  0  0.11853  0  1.05806  0  0  0.115872  0.116034  0  1.055567  0
H  H7  1  0.22772096  0.62758114  0.43036712  1  0  0.109594  0  0.990261  0  0  0.117141  0  1.056472  0  0  0.118519  0  1.058073  0  0  0.115866  0.116024  0  1.05558  0
H  H8  1  0.06925541  0.01276379  0.62753404  1  0  0.078343  0  0.901578  0  0  0.097599  0  0.955148  0  0  0.098076  0  0.955383  0  0  0.116733  0.097133  0  0.955214  0
H  H9  1  0.93074971  0.98723532  0.37246451  1  0  0.078295  0  0.901622  0  0  0.097607  0  0.955175  0  0  0.098085  0  0.955411  0  0  0.116734  0.097143  0  0.955244  0
H  H10  1  0.84274762  0.12653384  0.67650362  1  0  0.070955  0  0.945364  0  0  0.085994  0  1.011212  0  0  0.085641  0  1.012598  0  0  0.108632  0.086127  0  1.01052  0
H  H11  1  0.15725755  0.87346007  0.32349779  1  0  0.070935  0  0.945377  0  0  0.085977  0  1.011245  0  0  0.085623  0  1.012634  0  0  0.108618  0.086113  0  1.01055  0
H  H12  1  0.91599839  0.30942083  0.74953510  1  0  0.089044  0  0.935425  0  0  0.10421  0  1.000581  0  0  0.105726  0  1.000251  0  0  0.099405  0.103048  0  1.000851  0
H  H13  1  0.08400578  0.69057517  0.25046560  1  0  0.089096  0  0.935383  0  0  0.104214  0  1.000571  0  0  0.10573  0  1.00024  0  0  0.099396  0.103052  0  1.000842  0
H  H14  1  0.14269502  0.19411645  0.70149334  1  0  0.078544  0  0.932888  0  0  0.096798  0  0.991545  0  0  0.097505  0  0.99183  0  0  0.097164  0.096106  0  0.991604  0
H  H15  1  0.85730647  0.80587751  0.29850990  1  0  0.078559  0  0.932868  0  0  0.096784  0  0.991547  0  0  0.097491  0  0.991831  0  0  0.097179  0.096095  0  0.991604  0
H  H16  1  0.83232143  0.14141082  0.89596697  1  0  0.090981  0  0.955287  0  0  0.104045  0  1.0206  0  0  0.105062  0  1.020315  0  0  0.11018  0.103188  0  1.021078  0
H  H17  1  0.16767714  0.85858939  0.10403835  1  0  0.090929  0  0.955331  0  0  0.103975  0  1.020647  0  0  0.104989  0  1.020362  0  0  0.110164  0.103122  0  1.021119  0
H  H18  1  0.05629267  0.01998548  0.84449141  1  0  0.083293  0  0.906206  0  0  0.102738  0  0.959409  0  0  0.103642  0  0.959124  0  0  0.117848  0.10197  0  0.959926  0
H  H19  1  0.94370522  0.98001368  0.15551754  1  0  0.083302  0  0.906175  0  0  0.102693  0  0.959416  0  0  0.103594  0  0.95913  0  0  0.117833  0.101925  0  0.959933  0
H  H20  1  0.23435856  0.02231662  0.96054803  1  0  0.109462  0  0.951789  0  0  0.117541  0  1.018624  0  0  0.120245  0  1.014972  0  0  0.137031  0.115418  0  1.021579  0
H  H21  1  0.76564242  0.97768357  0.03945410  1  0  0.109488  0  0.951814  0  0  0.117579  0  1.018626  0  0  0.120283  0  1.014974  0  0  0.137046  0.115459  0  1.021585  0
H  H22  1  0.81500424  0.40664151  0.96816410  1  0  0.130457  0  0.964975  0  0  0.139296  0  1.027232  0  0  0.142646  0  1.025099  0  0  0.122092  0.136762  0  1.028987  0
H  H23  1  0.18499751  0.59335970  0.03183945  1  0  0.13044  0  0.964984  0  0  0.139323  0  1.027197  0  0  0.142646  0  1.025097  0  0  0.12208  0.136791  0  1.028946  0
H  H24  1  0.98856122  0.43690283  0.11443266  1  0  0.097706  0  0.963406  0  0  0.109074  0  1.022119  0  0  0.110778  0  1.022466  0  0  0.115068  0.107782  0  1.022093  0
H  H25  1  0.01144616  0.56309936  0.88556761  1  0  0.097694  0  0.96349  0  0  0.10908  0  1.022174  0  0  0.110772  0  1.022557  0  0  0.115075  0.107779  0  1.022152  0
H  H26  1  0.57439428  0.35868492  0.90545219  1  0  0.108485  0  0.951563  0  0  0.115133  0  1.019907  0  0  0.119002  0  1.016866  0  0  0.106308  0.112325  0  1.022163  0
H  H27  1  0.42560589  0.64131427  0.09454602  1  0  0.108457  0  0.951572  0  0  0.115091  0  1.019938  0  0  0.118957  0  1.016903  0  0  0.106287  0.112283  0  1.022193  0
H  H28  1  0.39715112  0.63312978  0.64915656  1  0  0.097671  0  0.945372  0  0  0.105958  0  1.008723  0  0  0.109809  0  1.005893  0  0  0.102247  0.103155  0  1.010797  0
H  H29  1  0.60285173  0.36686627  0.35083943  1  0  0.097643  0  0.945435  0  0  0.105933  0  1.008784  0  0  0.109784  0  1.005951  0  0  0.102257  0.10313  0  1.010863  0
H  H30  1  0.35094644  0.44277486  0.56500942  1  0  0.087005  0  0.960889  0  0  0.101167  0  1.015103  0  0  0.10359  0  1.015137  0  0  0.099981  0.099326  0  1.015394  0
H  H31  1  0.64905104  0.55722227  0.43499133  1  0  0.086999  0  0.960927  0  0  0.101186  0  1.015115  0  0  0.10361  0  1.015153  0  0  0.099993  0.099344  0  1.015409  0
H  H32  1  0.41143835  0.21257598  0.65622582  1  0  0.094489  0  0.956551  0  0  0.103196  0  1.020168  0  0  0.107543  0  1.015959  0  0  0.09928  0.100157  0  1.023026  0
H  H33  1  0.58855620  0.78742222  0.34377649  1  0  0.094543  0  0.956516  0  0  0.103241  0  1.020144  0  0  0.107587  0  1.015935  0  0  0.099305  0.100202  0  1.023005  0
C  C34  1  0.16079944  0.13627674  0.42786908  1  0  0.147169  0  3.688657  0  0  0.086262  0  3.956075  0  0  0.099342  0  3.969622  0  0  0.132302  0.077796  0  3.946382  0
C  C35  1  0.83919850  0.86372454  0.57212959  1  0  0.147164  0  3.688716  0  0  0.086255  0  3.956134  0  0  0.099337  0  3.96968  0  0  0.132308  0.0778  0  3.946454  0
C  C36  1  0.98994113  0.33360436  0.38631744  1  0  0.000216  0  3.779478  0  0  -0.033426  0  4.044283  0  0  -0.031568  0  4.064711  0  0  -0.006752  -0.034954  0  4.031023  0
C  C37  1  0.01005879  0.66639794  0.61368063  1  0  2e-05  0  3.779638  0  0  -0.033602  0  4.044447  0  0  -0.031744  0  4.064875  0  0  -0.006865  -0.035119  0  4.031174  0
C  C38  1  0.90065083  0.31196801  0.50304886  1  0  -0.079573  0  3.6844  0  0  -0.116774  0  3.937585  0  0  -0.115978  0  3.958098  0  0  -0.007226  -0.117464  0  3.924049  0
C  C39  1  0.09934814  0.68803118  0.49695136  1  0  -0.079503  0  3.684465  0  0  -0.116695  0  3.937622  0  0  -0.115897  0  3.958133  0  0  -0.007216  -0.117396  0  3.924093  0
C  C40  1  0.97867743  0.12326907  0.64386522  1  0  0.012153  0  3.63366  0  0  -0.050654  0  3.897057  0  0  -0.046026  0  3.908782  0  0  -0.046705  -0.05386  0  3.889522  0
C  C41  1  0.02132078  0.87672910  0.35613442  1  0  0.012269  0  3.633716  0  0  -0.050667  0  3.897314  0  0  -0.046046  0  3.909046  0  0  -0.046702  -0.053878  0  3.889784  0
C  C42  1  0.00588943  0.19864293  0.73615823  1  0  -0.148363  0  3.672074  0  0  -0.192667  0  3.93686  0  0  -0.194882  0  3.950024  0  0  -0.160742  -0.191  0  3.928142  0
C  C43  1  0.99411353  0.80135308  0.26384448  1  0  -0.148486  0  3.672199  0  0  -0.192705  0  3.93695  0  0  -0.194917  0  3.950105  0  0  -0.160756  -0.191034  0  3.928241  0
C  C44  1  0.97114174  0.13171165  0.85675332  1  0  -0.005513  0  3.624033  0  0  -0.066318  0  3.88115  0  0  -0.062705  0  3.892955  0  0  -0.050975  -0.068846  0  3.873716  0
C  C45  1  0.02885898  0.86828647  0.14324818  1  0  -0.005481  0  3.624007  0  0  -0.066173  0  3.880998  0  0  -0.062547  0  3.892784  0  0  -0.050944  -0.068706  0  3.873563  0
C  C46  1  0.14386803  0.13019214  0.98542705  1  0  0.156111  0  3.672041  0  0  0.09066  0  3.943685  0  0  0.104688  0  3.957422  0  0  0.135525  0.081417  0  3.934038  0
C  C47  1  0.85613349  0.86980699  0.01457754  1  0  0.155954  0  3.671985  0  0  0.090487  0  3.943643  0  0  0.104513  0  3.957383  0  0  0.135469  0.081237  0  3.934005  0
C  C48  1  0.92536651  0.33226010  0.99072205  1  0  -0.061371  0  3.642694  0  0  -0.101668  0  3.89804  0  0  -0.100682  0  3.916625  0  0  0.001203  -0.102267  0  3.885777  0
C  C49  1  0.07463966  0.66774210  0.00927939  1  0  -0.061378  0  3.642575  0  0  -0.10173  0  3.89795  0  0  -0.10072  0  3.916552  0  0  0.001184  -0.102336  0  3.885681  0
C  C50  1  0.01276570  0.34528969  0.06246101  1  0  0.004641  0  3.759745  0  0  -0.02821  0  4.023657  0  0  -0.026338  0  4.045682  0  0  -0.004378  -0.029522  0  4.00887  0
C  C51  1  0.98723793  0.65471256  0.93753690  1  0  0.004652  0  3.759794  0  0  -0.028209  0  4.023685  0  0  -0.026344  0  4.045705  0  0  -0.004363  -0.029507  0  4.008894  0
C  C52  1  0.54044453  0.61474401  0.82103212  1  0  0.624561  0  3.954961  0  0  0.578172  0  4.243715  0  0  0.611946  0  4.238559  0  0  0.185927  0.555268  0  4.246024  0
C  C53  1  0.45954991  0.38525942  0.17896399  1  0  0.624621  0  3.954994  0  0  0.578236  0  4.243753  0  0  0.612009  0  4.23859  0  0  0.185944  0.555321  0  4.246076  0
C  C54  1  0.53240111  0.13329086  0.84107729  1  0  0.630122  0  3.953911  0  0  0.575634  0  4.252368  0  0  0.610466  0  4.245901  0  0  0.194888  0.551844  0  4.25588  0
C  C55  1  0.46759936  0.86671038  0.15892407  1  0  0.630065  0  3.953976  0  0  0.575565  0  4.252463  0  0  0.610395  0  4.245998  0  0  0.194837  0.55176  0  4.255992  0
C  C56  1  0.49292311  0.27269806  0.78793244  1  0  -0.075247  0  3.770851  0  0  -0.046839  0  4.003722  0  0  -0.056143  0  4.027438  0  0  -0.023826  -0.040941  0  3.988015  0
C  C57  1  0.50707830  0.72730111  0.21206627  1  0  -0.075223  0  3.770814  0  0  -0.046821  0  4.00369  0  0  -0.056123  0  4.027402  0  0  -0.023819  -0.040915  0  3.987978  0
C  C58  1  0.52508189  0.37761474  0.83104711  1  0  -0.065917  0  3.682825  0  0  -0.101001  0  3.928725  0  0  -0.098233  0  3.946858  0  0  -0.074666  -0.102588  0  3.917046  0
C  C59  1  0.47492072  0.62238442  0.16894959  1  0  -0.065935  0  3.682888  0  0  -0.101001  0  3.928791  0  0  -0.098234  0  3.946926  0  0  -0.074662  -0.102588  0  3.917102  0
C  C60  1  0.49320235  0.50656694  0.78006650  1  0  -0.060241  0  3.753893  0  0  -0.032959  0  3.984266  0  0  -0.04115  0  4.006275  0  0  -0.016578  -0.02787  0  3.969636  0
C  C61  1  0.50679678  0.49343434  0.21992932  1  0  -0.060197  0  3.753686  0  0  -0.032928  0  3.98407  0  0  -0.041115  0  4.006076  0  0  -0.016543  -0.027831  0  3.969434  0
C  C62  1  0.42510385  0.53125085  0.68645129  1  0  -0.068119  0  3.734792  0  0  -0.095799  0  3.986239  0  0  -0.093656  0  4.004411  0  0  -0.079687  -0.096574  0  3.973598  0
C  C63  1  0.57489949  0.46874415  0.31354464  1  0  -0.068012  0  3.73458  0  0  -0.095685  0  3.986029  0  0  -0.093538  0  4.004197  0  0  -0.079668  -0.09646  0  3.97339  0
C  C64  1  0.39729378  0.42540897  0.64087965  1  0  -0.095035  0  3.807042  0  0  -0.104087  0  4.060103  0  0  -0.108728  0  4.082101  0  0  -0.096452  -0.100973  0  4.044979  0
C  C65  1  0.60270489  0.57458816  0.35911825  1  0  -0.095153  0  3.807036  0  0  -0.104225  0  4.060118  0  0  -0.108875  0  4.082125  0  0  -0.096499  -0.101107  0  4.044993  0
C  C66  1  0.43138092  0.29658987  0.69098600  1  0  -0.072341  0  3.748917  0  0  -0.10092  0  3.999545  0  0  -0.098599  0  4.01753  0  0  -0.089542  -0.101926  0  3.98692  0
C  C67  1  0.56861679  0.70340934  0.30901287  1  0  -0.072378  0  3.748867  0  0  -0.100947  0  3.999511  0  0  -0.098624  0  4.017497  0  0  -0.089565  -0.101952  0  3.986887  0
N  N68  1  0.15122933  0.22338120  0.34048962  1  0  -0.380379  0  3.242522  0  0  -0.310496  0  3.523041  0  0  -0.330364  0  3.540483  0  0  -0.354833  -0.296464  0  3.51078  0
N  N69  1  0.84876834  0.77662321  0.65950723  1  0  -0.380285  0  3.242502  0  0  -0.310388  0  3.522985  0  0  -0.330258  0  3.540429  0  0  -0.354773  -0.296358  0  3.510716  0
N  N70  1  0.01089144  0.18570804  0.52786535  1  0  -0.06912  0  3.58863  0  0  0.025272  0  3.809383  0  0  0.010593  0  3.835836  0  0  -0.247898  0.035278  0  3.791243  0
N  N71  1  0.98910702  0.81429220  0.47213409  1  0  -0.069139  0  3.588542  0  0  0.025287  0  3.809326  0  0  0.01061  0  3.835777  0  0  -0.247874  0.035294  0  3.79119  0
N  N72  1  0.01046323  0.19507496  0.94290246  1  0  -0.055731  0  3.573343  0  0  0.038938  0  3.79447  0  0  0.02451  0  3.820756  0  0  -0.242979  0.048638  0  3.776693  0
N  N73  1  0.98953850  0.80492625  0.05710024  1  0  -0.055631  0  3.57336  0  0  0.039029  0  3.794467  0  0  0.024599  0  3.820748  0  0  -0.242967  0.048734  0  3.776682  0
N  N74  1  0.14849247  0.21877762  0.05852635  1  0  -0.401852  0  3.280418  0  0  -0.322897  0  3.565751  0  0  -0.345704  0  3.584132  0  0  -0.365557  -0.30664  0  3.552395  0
N  N75  1  0.85151123  0.78121942  0.94147609  1  0  -0.401744  0  3.280345  0  0  -0.322771  0  3.565655  0  0  -0.345576  0  3.58404  0  0  -0.365484  -0.306509  0  3.552291  0
O  O76  1  0.45375487  0.74310161  0.81123148  1  0  -0.636401  0  1.91133  0  0  -0.577786  0  2.139437  0  0  -0.6053  0  2.12904  0  0  -0.347242  -0.557394  0  2.14633  0
O  O77  1  0.54623949  0.25690184  0.18876043  1  0  -0.636436  0  1.911366  0  0  -0.577824  0  2.139474  0  0  -0.605346  0  2.12909  0  0  -0.34728  -0.557428  0  2.146374  0
O  O78  1  0.66866603  0.57293644  0.85996337  1  0  -0.649735  0  1.906119  0  0  -0.594227  0  2.139  0  0  -0.621532  0  2.13023  0  0  -0.338202  -0.574193  0  2.143704  0
O  O79  1  0.33131986  0.42707225  0.14003892  1  0  -0.649783  0  1.906268  0  0  -0.594273  0  2.139125  0  0  -0.621586  0  2.130374  0  0  -0.338194  -0.574232  0  2.143833  0
O  O80  1  0.52321956  0.03652730  0.78671944  1  0  -0.637924  0  2.012226  0  0  -0.573111  0  2.263002  0  0  -0.601927  0  2.252225  0  0  -0.327942  -0.552139  0  2.270294  0
O  O81  1  0.47677820  0.96347190  0.21328279  1  0  -0.637916  0  2.012283  0  0  -0.57311  0  2.263075  0  0  -0.601923  0  2.252297  0  0  -0.327939  -0.552135  0  2.270374  0
O  O82  1  0.57756515  0.11683110  0.93364767  1  0  -0.668727  0  2.033926  0  0  -0.605701  0  2.294075  0  0  -0.631922  0  2.280867  0  0  -0.332693  -0.586554  0  2.302631  0
O  O83  1  0.42243826  0.88316907  0.06635212  1  0  -0.668674  0  2.033932  0  0  -0.605615  0  2.294051  0  0  -0.631837  0  2.280844  0  0  -0.332636  -0.58646  0  2.302609  0
