# generated using pymatgen
data_ZnH16C25N3(ClO)3
_symmetry_space_group_name_H-M   'P 1'
_cell_length_a   9.18706117
_cell_length_b   10.54835181
_cell_length_c   13.84770000
_cell_angle_alpha   80.46784279
_cell_angle_beta   78.52940432
_cell_angle_gamma   65.83900985
_symmetry_Int_Tables_number   1
_chemical_formula_structural   ZnH16C25N3(ClO)3
_chemical_formula_sum   'Zn2 H32 C50 N6 Cl6 O6'
_cell_volume   1194.61336628
_cell_formula_units_Z   2
loop_
 _symmetry_equiv_pos_site_id
 _symmetry_equiv_pos_as_xyz
  1  'x, y, z'
loop_
 _atom_site_type_symbol
 _atom_site_label
 _atom_site_symmetry_multiplicity
 _atom_site_fract_x
 _atom_site_fract_y
 _atom_site_fract_z
 _atom_site_occupancy
 _atom_site_hle17_bader_spin_density
 _atom_site_hle17_ddec_charge
 _atom_site_hle17_ddec_spin_density
 _atom_site_hle17_ddec_sum_bond_order
 _atom_site_hle17_magmom
 _atom_site_hse06_10hf_bader_spin_density
 _atom_site_hse06_10hf_ddec_charge
 _atom_site_hse06_10hf_ddec_spin_density
 _atom_site_hse06_10hf_ddec_sum_bond_order
 _atom_site_hse06_10hf_magmom
 _atom_site_hse06_bader_spin_density
 _atom_site_hse06_ddec_charge
 _atom_site_hse06_ddec_spin_density
 _atom_site_hse06_ddec_sum_bond_order
 _atom_site_hse06_magmom
 _atom_site_pbe_bader_charge
 _atom_site_pbe_bader_spin_density
 _atom_site_pbe_cm5_charge
 _atom_site_pbe_ddec_charge
 _atom_site_pbe_ddec_spin_density
 _atom_site_pbe_ddec_sum_bond_order
 _atom_site_pbe_magmom
Zn  Zn0  1  0.30148913  0.11492312  0.40290691  1  0  1.012567  0  1.835848  0  0  0.823736  0  2.299296  0  0  0.871267  0  2.246074  0  1.281831  0  0.688612  0.790457  0  2.335849  0
Zn  Zn1  1  0.69851032  0.88507628  0.59709295  1  0  1.012627  0  1.835828  0  0  0.823776  0  2.299274  0  0  0.871308  0  2.24605  0  1.281834  0  0.688633  0.790493  0  2.335827  0
H  H2  1  0.46089634  0.58120328  0.18884886  1  0  0.114658  0  0.976498  0  0  0.124487  0  1.039834  0  0  0.126805  0  1.039255  0  0.096578  0  0.0987  0.122823  0  1.040196  0
H  H3  1  0.53910375  0.41879717  0.81115078  1  0  0.114658  0  0.976488  0  0  0.124487  0  1.039824  0  0  0.126804  0  1.039249  0  0.09659  0  0.098707  0.122824  0  1.040186  0
H  H4  1  0.59018636  0.12189800  0.26127838  1  0  0.092202  0  0.963641  0  0  0.100532  0  1.024702  0  0  0.103665  0  1.021693  0  0.127326  0  0.116193  0.098232  0  1.026822  0
H  H5  1  0.40981263  0.87810245  0.73872357  1  0  0.092169  0  0.963627  0  0  0.100495  0  1.024692  0  0  0.103631  0  1.021683  0  0.127339  0  0.116184  0.09819  0  1.026822  0
H  H6  1  0.65549154  0.26497423  0.10956583  1  0  0.110725  0  0.998496  0  0  0.110194  0  1.075475  0  0  0.114875  0  1.072745  0  0.134147  0  0.103129  0.10681  0  1.07759  0
H  H7  1  0.34450791  0.73502518  0.89043619  1  0  0.11071  0  0.99851  0  0  0.110186  0  1.075484  0  0  0.114868  0  1.072754  0  0.134129  0  0.103138  0.106802  0  1.077601  0
H  H8  1  0.14072657  0.50626853  0.12173828  1  0  0.107605  0  0.958757  0  0  0.113352  0  1.026861  0  0  0.116984  0  1.025421  0  0.102616  0  0.102553  0.110746  0  1.028036  0
H  H9  1  0.85927399  0.49373087  0.87826215  1  0  0.107605  0  0.958755  0  0  0.113353  0  1.026856  0  0  0.116987  0  1.025415  0  0.102614  0  0.10255  0.110747  0  1.02803  0
H  H10  1  0.09936701  0.35022361  0.26961450  1  0  0.065945  0  0.988196  0  0  0.067241  0  1.066664  0  0  0.069321  0  1.065339  0  0.119798  0  0.103679  0.065664  0  1.067708  0
H  H11  1  0.90063197  0.64977684  0.73038601  1  0  0.065957  0  0.988188  0  0  0.067255  0  1.066654  0  0  0.069334  0  1.06533  0  0.119813  0  0.103695  0.065677  0  1.067697  0
H  H12  1  0.31729823  0.58126382  0.99665780  1  0  0.096484  0  0.979903  0  0  0.100557  0  1.053593  0  0  0.104431  0  1.050882  0  0.107083  0  0.099955  0.097811  0  1.055524  0
H  H13  1  0.68270327  0.41873350  0.00334205  1  0  0.096441  0  0.979925  0  0  0.100506  0  1.053628  0  0  0.104381  0  1.050916  0  0.107062  0  0.099936  0.09776  0  1.055561  0
H  H14  1  0.46825617  0.38403552  0.46333199  1  0  0.10088  0  0.956652  0  0  0.111498  0  1.017967  0  0  0.114878  0  1.016098  0  0.08604  0  0.102873  0.109126  0  1.019291  0
H  H15  1  0.53174439  0.61596389  0.53666772  1  0  0.100862  0  0.956641  0  0  0.111476  0  1.017968  0  0  0.114856  0  1.016098  0  0.086055  0  0.102867  0.109104  0  1.019291  0
H  H16  1  0.77477327  0.51347614  0.51783480  1  0  0.110099  0  0.961051  0  0  0.120516  0  1.021781  0  0  0.124333  0  1.019456  0  0.102689  0  0.105181  0.11782  0  1.02354  0
H  H17  1  0.22522588  0.48652639  0.48216398  1  0  0.110111  0  0.961034  0  0  0.120532  0  1.021759  0  0  0.124349  0  1.019434  0  0.102674  0  0.10519  0.117836  0  1.023519  0
H  H18  1  0.06889095  0.37139454  0.48977001  1  0  0.074441  0  0.979996  0  0  0.081089  0  1.051099  0  0  0.083537  0  1.048879  0  0.108713  0  0.10728  0.079362  0  1.052626  0
H  H19  1  0.93110756  0.62860696  0.51022970  1  0  0.074402  0  0.980025  0  0  0.081061  0  1.051112  0  0  0.083509  0  1.048893  0  0.10871  0  0.107255  0.079333  0  1.05264  0
H  H20  1  0.00430792  0.05668820  0.38431404  1  0  0.088175  0  0.949034  0  0  0.091824  0  1.018967  0  0  0.095323  0  1.015684  0  0.094329  0  0.113779  0.089201  0  1.021424  0
H  H21  1  0.99569170  0.94331329  0.61568482  1  0  0.088182  0  0.949093  0  0  0.091831  0  1.019016  0  0  0.095329  0  1.015734  0  0.094318  0  0.113791  0.089208  0  1.021472  0
H  H22  1  0.70322239  0.18172348  0.41267902  1  0  0.120444  0  0.939708  0  0  0.129788  0  0.999901  0  0  0.133441  0  0.998269  0  0.106659  0  0.109721  0.127147  0  1.001253  0
H  H23  1  0.29677723  0.81827801  0.58731983  1  0  0.120449  0  0.939704  0  0  0.129792  0  0.999898  0  0  0.133445  0  0.998267  0  0.106732  0  0.109712  0.127152  0  1.00125  0
H  H24  1  0.97289061  0.21028049  0.89036024  1  0  0.054247  0  0.977972  0  0  0.055683  0  1.056984  0  0  0.05846  0  1.054526  0  0.074688  0  0.092425  0.053751  0  1.058611  0
H  H25  1  0.02711170  0.78971996  0.10963911  1  0  0.05424  0  0.977955  0  0  0.055677  0  1.056965  0  0  0.058453  0  1.054508  0  0.074689  0  0.092428  0.053745  0  1.058593  0
H  H26  1  0.26981813  0.10467424  0.87753413  1  0  0.099134  0  0.959132  0  0  0.109495  0  1.021032  0  0  0.11215  0  1.020905  0  0.087879  0  0.100495  0.107624  0  1.021189  0
H  H27  1  0.73018213  0.89532829  0.12246667  1  0  0.099124  0  0.959101  0  0  0.109479  0  1.021014  0  0  0.112136  0  1.020886  0  0.087926  0  0.100475  0.107606  0  1.021177  0
H  H28  1  0.21003377  0.04666684  0.19788867  1  0  0.103939  0  0.973372  0  0  0.109653  0  1.043972  0  0  0.11292  0  1.043092  0  0.090993  0  0.097745  0.107267  0  1.04478  0
H  H29  1  0.78996457  0.95333256  0.80211206  1  0  0.10394  0  0.973371  0  0  0.109657  0  1.043971  0  0  0.112923  0  1.043091  0  0.090994  0  0.097744  0.107271  0  1.044778  0
H  H30  1  0.91443984  0.15601361  0.19660771  1  0  0.058135  0  0.947868  0  0  0.067133  0  1.013514  0  0  0.069209  0  1.012163  0  0.042516  0  0.10154  0.065618  0  1.014521  0
H  H31  1  0.08556008  0.84398475  0.80339222  1  0  0.058138  0  0.947861  0  0  0.067147  0  1.013497  0  0  0.069224  0  1.012147  0  0.042513  0  0.10154  0.06563  0  1.014506  0
H  H32  1  0.47718105  0.96003399  0.11259861  1  0  0.090026  0  0.952783  0  0  0.102083  0  1.015346  0  0  0.103981  0  1.015615  0  0.056186  0  0.100492  0.10076  0  1.015157  0
H  H33  1  0.52281968  0.03996750  0.88740154  1  0  0.090001  0  0.952845  0  0  0.102047  0  1.015422  0  0  0.103952  0  1.015676  0  0.056191  0  0.100457  0.100695  0  1.015263  0
C  C34  1  0.57308720  0.79255458  0.34520526  1  0  -0.241089  0  3.739292  0  0  -0.230243  0  3.993089  0  0  -0.242515  0  4.013393  0  -0.02387  0  -0.044375  -0.222187  0  3.97943  0
C  C35  1  0.42691400  0.20744587  0.65479351  1  0  -0.240927  0  3.739344  0  0  -0.230061  0  3.993113  0  0  -0.242331  0  4.013415  0  -0.023887  0  -0.044284  -0.222008  0  3.979456  0
C  C36  1  0.69378619  0.68426714  0.29411687  1  0  0.071524  0  3.820526  0  0  0.063319  0  4.097008  0  0  0.069459  0  4.117979  0  0.125143  0  -0.00124  0.059217  0  4.082953  0
C  C37  1  0.30621612  0.31573331  0.70588176  1  0  0.071423  0  3.820683  0  0  0.063203  0  4.097169  0  0  0.06934  0  4.118142  0  0.125067  0  -0.001317  0.059096  0  4.083121  0
C  C38  1  0.65458979  0.60847762  0.23665908  1  0  0.04902  0  3.840515  0  0  0.054839  0  4.119517  0  0  0.053561  0  4.141076  0  0.02649  0  -0.016582  0.055387  0  4.10493  0
C  C39  1  0.34541141  0.39152283  0.76333969  1  0  0.048978  0  3.840553  0  0  0.054817  0  4.119535  0  0  0.053544  0  4.141087  0  0.025957  0  -0.016557  0.055366  0  4.104948  0
C  C40  1  0.49257614  0.64081064  0.23204652  1  0  -0.165991  0  3.798662  0  0  -0.201685  0  4.05541  0  0  -0.199174  0  4.07283  0  0.063059  0  -0.110396  -0.202833  0  4.043197  0
C  C41  1  0.50742395  0.35918981  0.76795240  1  0  -0.165943  0  3.798617  0  0  -0.201649  0  4.055357  0  0  -0.19914  0  4.072777  0  0.063678  0  -0.110401  -0.202798  0  4.043142  0
C  C42  1  0.37251417  0.75022734  0.28082142  1  0  0.024417  0  3.760213  0  0  0.034096  0  4.035032  0  0  0.03198  0  4.054373  0  0.027671  0  -0.010064  0.035221  0  4.022032  0
C  C43  1  0.62748592  0.24977311  0.71917822  1  0  0.024416  0  3.760162  0  0  0.034102  0  4.034968  0  0  0.031985  0  4.054311  0  0.027674  0  -0.010058  0.035233  0  4.021959  0
C  C44  1  0.40723869  0.83509682  0.33560505  1  0  0.298836  0  3.917419  0  0  0.272747  0  4.184172  0  0  0.288949  0  4.199867  0  0.777272  0  0.076085  0.26175  0  4.173131  0
C  C45  1  0.59276140  0.16490363  0.66439459  1  0  0.298786  0  3.917485  0  0  0.272691  0  4.184225  0  0  0.288892  0  4.199919  0  0.777269  0  0.076068  0.261692  0  4.173183  0
C  C46  1  0.61222211  0.86489893  0.41514891  1  0  0.694365  0  3.895758  0  0  0.638024  0  4.19376  0  0  0.675034  0  4.181776  0  1.600715  0  0.206976  0.612715  0  4.201337  0
C  C47  1  0.38777798  0.13510152  0.58485074  1  0  0.694335  0  3.895891  0  0  0.63797  0  4.193927  0  0  0.674981  0  4.181945  0  1.600733  0  0.206931  0.612668  0  4.201491  0
C  C48  1  0.49581474  0.20875359  0.22689177  1  0  0.122801  0  3.695791  0  0  0.093509  0  3.94007  0  0  0.100175  0  3.958735  0  0.413487  0  0.041374  0.089012  0  3.927654  0
C  C49  1  0.50418582  0.79124581  0.77310939  1  0  0.122847  0  3.695703  0  0  0.093561  0  3.939987  0  0  0.100221  0  3.958658  0  0.413505  0  0.041423  0.089072  0  3.927554  0
C  C50  1  0.53000186  0.28996187  0.14345008  1  0  -0.154742  0  3.67294  0  0  -0.167937  0  3.913952  0  0  -0.176855  0  3.935266  0  -0.008214  0  -0.079279  -0.162121  0  3.899799  0
C  C51  1  0.46999759  0.71003754  0.85655122  1  0  -0.154678  0  3.672857  0  0  -0.167876  0  3.913879  0  0  -0.176797  0  3.935194  0  -0.008417  0  -0.079284  -0.162064  0  3.899732  0
C  C52  1  0.40236711  0.40284983  0.10392958  1  0  0.141589  0  3.785971  0  0  0.159063  0  4.008579  0  0  0.165121  0  4.030516  0  -0.018961  0  0.011321  0.155243  0  3.993768  0
C  C53  1  0.59763392  0.59714853  0.89607165  1  0  0.141459  0  3.786105  0  0  0.158919  0  4.008736  0  0  0.164983  0  4.030666  0  -0.018773  0  0.011255  0.1551  0  3.993927  0
C  C54  1  0.24469861  0.42237071  0.14977246  1  0  -0.159384  0  3.693126  0  0  -0.177813  0  3.938544  0  0  -0.186179  0  3.959155  0  -0.038606  0  -0.083215  -0.172645  0  3.925064  0
C  C55  1  0.75530037  0.57762974  0.85022805  1  0  -0.15944  0  3.693347  0  0  -0.177864  0  3.938778  0  0  -0.186231  0  3.959385  0  -0.038621  0  -0.083239  -0.172697  0  3.925298  0
C  C56  1  0.22067970  0.33559338  0.23278599  1  0  0.123222  0  3.735896  0  0  0.091661  0  3.989109  0  0  0.099037  0  4.00835  0  0.457512  0  0.039331  0.08696  0  3.976104  0
C  C57  1  0.77931975  0.66440602  0.76721531  1  0  0.123244  0  3.73595  0  0  0.091677  0  3.989161  0  0  0.099053  0  4.008403  0  0.457508  0  0.039322  0.086976  0  3.976157  0
C  C58  1  0.42687658  0.50065983  0.02164914  1  0  -0.092934  0  3.685715  0  0  -0.110453  0  3.929425  0  0  -0.113697  0  3.94834  0  -0.096225  0  -0.076686  -0.108351  0  3.916657  0
C  C59  1  0.57312445  0.49933853  0.97835064  1  0  -0.092736  0  3.685685  0  0  -0.110234  0  3.929376  0  0  -0.113479  0  3.948289  0  0.01042  0  -0.076609  -0.108133  0  3.916607  0
C  C60  1  0.53811884  0.43679219  0.48193404  1  0  -0.090821  0  3.684519  0  0  -0.114002  0  3.941082  0  0  -0.117171  0  3.961406  0  0.061123  0  -0.079908  -0.111993  0  3.927506  0
C  C61  1  0.46188219  0.56320617  0.51806646  1  0  -0.090663  0  3.684431  0  0  -0.113849  0  3.94098  0  0  -0.117014  0  3.961308  0  -0.1505  0  -0.079843  -0.111841  0  3.927403  0
C  C62  1  0.71173946  0.36099224  0.46628932  1  0  0.142662  0  3.782288  0  0  0.156595  0  4.015806  0  0  0.162577  0  4.037348  0  -0.019719  0  0.008875  0.152697  0  4.001451  0
C  C63  1  0.28825952  0.63900821  0.53371119  1  0  0.142572  0  3.78234  0  0  0.156531  0  4.015832  0  0  0.162504  0  4.037391  0  -0.019696  0  0.008873  0.152637  0  4.001473  0
C  C64  1  0.81904079  0.41261548  0.48852085  1  0  -0.161364  0  3.714234  0  0  -0.182092  0  3.968147  0  0  -0.189835  0  3.988422  0  0.052351  0  -0.08838  -0.177196  0  3.95473  0
C  C65  1  0.18095819  0.58738496  0.51147894  1  0  -0.161344  0  3.714274  0  0  -0.182092  0  3.96819  0  0  -0.189832  0  3.988465  0  0.051906  0  -0.088398  -0.177198  0  3.954774  0
C  C66  1  0.98295978  0.33538361  0.47187495  1  0  0.106903  0  3.758674  0  0  0.070655  0  4.020431  0  0  0.077763  0  4.03834  0  0.382222  0  0.028702  0.065771  0  4.008806  0
C  C67  1  0.01703984  0.66461789  0.52812462  1  0  0.106953  0  3.758748  0  0  0.070712  0  4.020509  0  0  0.07782  0  4.038419  0  0.382695  0  0.028735  0.065833  0  4.00887  0
C  C68  1  0.94656490  0.15872403  0.41319771  1  0  0.133001  0  3.685234  0  0  0.102691  0  3.938053  0  0  0.110337  0  3.954092  0  0.477179  0  0.0448  0.097743  0  3.927232  0
C  C69  1  0.05343473  0.84127746  0.58680186  1  0  0.133063  0  3.685218  0  0  0.102762  0  3.938035  0  0  0.11041  0  3.954074  0  0.47715  0  0.044817  0.097814  0  3.927215  0
C  C70  1  0.78005068  0.22957385  0.42852424  1  0  -0.145365  0  3.657709  0  0  -0.164328  0  3.906589  0  0  -0.171006  0  3.924786  0  0.001424  0  -0.078464  -0.160296  0  3.894709  0
C  C71  1  0.21994830  0.77042660  0.57147555  1  0  -0.145387  0  3.657756  0  0  -0.164356  0  3.906637  0  0  -0.171031  0  3.924834  0  0.001357  0  -0.078469  -0.160328  0  3.894761  0
C  C72  1  0.02969450  0.17410153  0.95747776  1  0  0.112606  0  3.767413  0  0  0.089103  0  4.027895  0  0  0.094312  0  4.045997  0  0.528389  0  0.030632  0.085765  0  4.015464  0
C  C73  1  0.97030495  0.82589788  0.04252210  1  0  0.112588  0  3.767354  0  0  0.089088  0  4.027836  0  0  0.094298  0  4.045938  0  0.528399  0  0.030617  0.085751  0  4.015405  0
C  C74  1  0.19693446  0.11452444  0.95049143  1  0  -0.159464  0  3.693623  0  0  -0.174885  0  3.931708  0  0  -0.18216  0  3.953763  0  -0.093991  0  -0.087608  -0.17014  0  3.916859  0
C  C75  1  0.80306627  0.88547705  0.04950871  1  0  -0.159434  0  3.693594  0  0  -0.174857  0  3.931683  0  0  -0.182134  0  3.953738  0  -0.094076  0  -0.087596  -0.170113  0  3.916837  0
C  C76  1  0.26861977  0.06717712  0.03759537  1  0  0.132239  0  3.803289  0  0  0.148758  0  4.029283  0  0  0.153277  0  4.052065  0  -0.066899  0  0.002378  0.145995  0  4.013663  0
C  C77  1  0.73137985  0.93282437  0.96240492  1  0  0.132275  0  3.803278  0  0  0.148799  0  4.02926  0  0  0.153319  0  4.052041  0  -0.066879  0  0.00241  0.146038  0  4.013631  0
C  C78  1  0.16292128  0.08248782  0.12760198  1  0  -0.172516  0  3.716057  0  0  -0.188969  0  3.961441  0  0  -0.197  0  3.98419  0  -0.00185  0  -0.092156  -0.183738  0  3.94609  0
C  C79  1  0.83707817  0.91751158  0.87239860  1  0  -0.172538  0  3.716201  0  0  -0.188999  0  3.961588  0  0  -0.197031  0  3.984339  0  -0.001849  0  -0.092166  -0.183767  0  3.946235  0
C  C80  1  0.99707993  0.14344986  0.12680943  1  0  0.108068  0  3.783113  0  0  0.084218  0  4.041483  0  0  0.089548  0  4.059985  0  0.506403  0  0.028708  0.080849  0  4.028729  0
C  C81  1  0.00291888  0.85654850  0.87318992  1  0  0.10807  0  3.783151  0  0  0.084214  0  4.041518  0  0  0.089541  0  4.060022  0  0.506397  0  0.028697  0.080845  0  4.028763  0
C  C82  1  0.44213728  0.00391691  0.03943974  1  0  -0.09646  0  3.717073  0  0  -0.11444  0  3.961771  0  0  -0.117075  0  3.98252  0  0.030084  0  -0.082826  -0.112571  0  3.947558  0
C  C83  1  0.55786234  0.99608458  0.96056128  1  0  -0.096453  0  3.717103  0  0  -0.114426  0  3.961789  0  0  -0.117061  0  3.982538  0  -0.048666  0  -0.082817  -0.112536  0  3.947595  0
N  N84  1  0.34372507  0.23140967  0.27239821  1  0  -0.331176  0  3.282284  0  0  -0.245354  0  3.552659  0  0  -0.264821  0  3.567824  0  -1.242015  0  -0.329776  -0.232238  0  3.542198  0
N  N85  1  0.65627438  0.76858974  0.72760237  1  0  -0.331169  0  3.282244  0  0  -0.245342  0  3.552616  0  0  -0.264809  0  3.567782  0  -1.241995  0  -0.329778  -0.232226  0  3.542157  0
N  N86  1  0.04769471  0.21063429  0.43399644  1  0  -0.339703  0  3.276714  0  0  -0.257344  0  3.546521  0  0  -0.275379  0  3.560749  0  -1.25353  0  -0.334962  -0.245201  0  3.536767  0
N  N87  1  0.95230585  0.78936511  0.56600399  1  0  -0.339741  0  3.276658  0  0  -0.257418  0  3.546513  0  0  -0.275453  0  3.56074  0  -1.253531  0  -0.334989  -0.24527  0  3.536755  0
N  N88  1  0.92873438  0.19027639  0.04378762  1  0  -0.327648  0  3.095517  0  0  -0.283913  0  3.357253  0  0  -0.295625  0  3.373063  0  -1.206293  0  -0.326942  -0.275761  0  3.346193  0
N  N89  1  0.07126665  0.80972197  0.95621144  1  0  -0.327672  0  3.095442  0  0  -0.283946  0  3.357187  0  0  -0.295657  0  3.372997  0  -1.206266  0  -0.326943  -0.275793  0  3.346127  0
Cl  Cl90  1  0.17257172  0.78526452  0.27640468  1  0  -0.078642  0  1.4171  0  0  -0.058237  0  1.656649  0  0  -0.061757  0  1.652433  0  -0.226025  0  0.003367  -0.055548  0  1.659704  0
Cl  Cl91  1  0.82742995  0.21473489  0.72359489  1  0  -0.078638  0  1.417047  0  0  -0.058237  0  1.656588  0  0  -0.061758  0  1.652376  0  -0.226036  0  0.003367  -0.055551  0  1.659639  0
Cl  Cl92  1  0.80188262  0.47580369  0.17153604  1  0  -0.07999  0  1.425027  0  0  -0.062301  0  1.665069  0  0  -0.065867  0  1.662699  0  -0.21425  0  0.010313  -0.05939  0  1.666637  0
Cl  Cl93  1  0.19811748  0.52419676  0.82846361  1  0  -0.079962  0  1.425027  0  0  -0.062278  0  1.665062  0  0  -0.065844  0  1.66269  0  -0.214241  0  0.01032  -0.059366  0  1.666628  0
Cl  Cl94  1  0.89382534  0.64862254  0.29864370  1  0  -0.076834  0  1.48671  0  0  -0.05761  0  1.749096  0  0  -0.060442  0  1.74415  0  -0.220614  0  0.018216  -0.0554  0  1.752582  0
Cl  Cl95  1  0.10617428  0.35137895  0.70135515  1  0  -0.076818  0  1.486656  0  0  -0.057589  0  1.749042  0  0  -0.060421  0  1.744097  0  -0.220603  0  0.018221  -0.055377  0  1.75253  0
O  O96  1  0.58068221  0.99392209  0.39788993  1  0  -0.632194  0  1.996994  0  0  -0.573316  0  2.242446  0  0  -0.598379  0  2.228141  0  -1.182833  0  -0.312105  -0.555575  0  2.251718  0
O  O97  1  0.41931788  0.00607836  0.60210972  1  0  -0.632247  0  1.997081  0  0  -0.573314  0  2.242514  0  0  -0.598379  0  2.228215  0  -1.182891  0  -0.312102  -0.555575  0  2.251783  0
O  O98  1  0.67043923  0.78878378  0.49164808  1  0  -0.628205  0  2.06838  0  0  -0.55581  0  2.338573  0  0  -0.585632  0  2.324638  0  -1.162957  0  -0.313426  -0.534775  0  2.347339  0
O  O99  1  0.32956087  0.21121666  0.50835156  1  0  -0.628149  0  2.06838  0  0  -0.555801  0  2.338622  0  0  -0.585624  0  2.32469  0  -1.162965  0  -0.3134  -0.534768  0  2.347384  0
O  O100  1  0.29123278  0.94147747  0.37642217  1  0  -0.626526  0  2.160727  0  0  -0.557489  0  2.450991  0  0  -0.586222  0  2.442741  0  -1.181879  0  -0.347061  -0.536661  0  2.455609  0
O  O101  1  0.70876667  0.05852193  0.62357768  1  0  -0.626597  0  2.160787  0  0  -0.557537  0  2.451028  0  0  -0.58627  0  2.442777  0  -1.181874  0  -0.347088  -0.536707  0  2.45564  0
