# generated using pymatgen
data_ZnH22C42N3O8
_symmetry_space_group_name_H-M   'P 1'
_cell_length_a   11.02669040
_cell_length_b   14.67685979
_cell_length_c   15.76473264
_cell_angle_alpha   87.85552298
_cell_angle_beta   84.76727213
_cell_angle_gamma   88.38544214
_symmetry_Int_Tables_number   1
_chemical_formula_structural   ZnH22C42N3O8
_chemical_formula_sum   'Zn2 H44 C84 N6 O16'
_cell_volume   2538.12174044
_cell_formula_units_Z   2
loop_
 _symmetry_equiv_pos_site_id
 _symmetry_equiv_pos_as_xyz
  1  'x, y, z'
loop_
 _atom_site_type_symbol
 _atom_site_label
 _atom_site_symmetry_multiplicity
 _atom_site_fract_x
 _atom_site_fract_y
 _atom_site_fract_z
 _atom_site_occupancy
 _atom_site_pbe_bader_charge
 _atom_site_pbe_bader_spin_density
 _atom_site_pbe_cm5_charge
 _atom_site_pbe_ddec_charge
 _atom_site_pbe_ddec_spin_density
 _atom_site_pbe_ddec_sum_bond_order
 _atom_site_pbe_magmom
Zn  Zn0  1  0.49126905  0.59214972  0.50328464  1  1.322  0  0.712384  0.902418  0  2.447034  0
Zn  Zn1  1  0.50124643  0.39805354  0.49821199  1  1.322998  0  0.698882  0.891473  0  2.399016  0
H  H2  1  0.76838462  0.66278250  0.56364970  1  0.200715  0  0.125095  0.152396  0  1.029779  0
H  H3  1  0.21356269  0.33106663  0.43429612  1  0.199099  0  0.129517  0.150474  0  0.987903  0
H  H4  1  0.21088451  0.66970067  0.47564378  1  0.231261  0  0.124266  0.151575  0  1.041543  0
H  H5  1  0.78818820  0.32344903  0.56854173  1  0.1764  0  0.129775  0.150145  0  0.987083  0
H  H6  1  0.39532392  0.68408135  0.11906265  1  0.053174  0  0.101301  0.102362  0  0.996683  0
H  H7  1  0.39248345  0.84340080  0.16744864  1  0.054826  0  0.101355  0.097427  0  0.989851  0
H  H8  1  0.57997424  0.93537653  0.14360030  1  0.03787  0  0.098099  0.091782  0  1.026636  0
H  H9  1  0.77145499  0.86529938  0.07685978  1  0.047741  0  0.102028  0.097378  0  0.989495  0
H  H10  1  0.77300810  0.70697599  0.02638703  1  0.082134  0  0.101578  0.101794  0  0.995816  0
H  H11  1  0.49247175  0.33981555  0.80864338  1  0.092611  0  0.097957  0.103871  0  1.030286  0
H  H12  1  0.58398688  0.20206227  0.74375697  1  0.084805  0  0.098333  0.100385  0  1.010176  0
H  H13  1  0.73922273  0.10835806  0.81587487  1  0.053923  0  0.099566  0.097985  0  0.996754  0
H  H14  1  0.79986760  0.15559068  0.95659995  1  0.024423  0  0.097296  0.092931  0  1.000009  0
H  H15  1  0.71366696  0.29815182  0.01919424  1  0.052867  0  0.096088  0.093709  0  1.020219  0
H  H16  1  0.79657985  0.59647677  0.83339914  1  0.034987  0  0.099318  0.100132  0  0.997543  0
H  H17  1  0.87987366  0.73067759  0.74925569  1  0.053955  0  0.094425  0.090804  0  1.013479  0
H  H18  1  0.76431561  0.87899264  0.75181469  1  0.097683  0  0.097529  0.096103  0  1.02528  0
H  H19  1  0.56379319  0.89134657  0.83862813  1  0.065909  0  0.100398  0.09626  0  0.997218  0
H  H20  1  0.48291180  0.75832361  0.92423812  1  0.071509  0  0.102131  0.101638  0  1.003625  0
H  H21  1  0.59358242  0.35251727  0.20088786  1  0.059155  0  0.098495  0.101464  0  1.016528  0
H  H22  1  0.47778921  0.23639744  0.28709861  1  0.069267  0  0.096176  0.096412  0  1.014012  0
H  H23  1  0.30101457  0.16350130  0.23142636  1  0.081493  0  0.095586  0.094564  0  1.009028  0
H  H24  1  0.24308475  0.20919490  0.08561428  1  0.05131  0  0.096504  0.092074  0  1.000574  0
H  H25  1  0.35647744  0.32965187  0.00040692  1  0.060904  0  0.096226  0.095242  0  1.01167  0
H  H26  1  0.55468896  0.00902852  0.27020084  1  0.09004  0  0.102687  0.101154  0  1.010826  0
H  H27  1  0.66317413  0.08668037  0.14396293  1  0.046755  0  0.103091  0.098383  0  0.999383  0
H  H28  1  0.80971608  0.20850591  0.16343425  1  0.02489  0  0.102021  0.095873  0  0.994758  0
H  H29  1  0.84295202  0.25483672  0.31008605  1  0.050279  0  0.101527  0.098959  0  0.990478  0
H  H30  1  0.73465912  0.17754455  0.43553630  1  0.102292  0  0.094904  0.09183  0  1.06569  0
H  H31  1  0.19144969  0.97591916  0.62580575  1  0.096162  0  0.105237  0.115323  0  0.99029  0
H  H32  1  0.06593713  0.88628641  0.73442707  1  0.094128  0  0.101827  0.107566  0  1.003874  0
H  H33  1  0.15776652  0.75428192  0.81243602  1  0.033123  0  0.099295  0.093906  0  0.997525  0
H  H34  1  0.37871427  0.71406627  0.78073627  1  0.080122  0  0.101949  0.102619  0  1.004568  0
H  H35  1  0.50584975  0.80681147  0.67613027  1  0.094559  0  0.102178  0.106497  0  1.013614  0
H  H36  1  0.27266639  0.18630702  0.56025719  1  0.102197  0  0.093455  0.088752  0  1.071334  0
H  H37  1  0.17395548  0.27657107  0.67793112  1  0.059799  0  0.100119  0.097745  0  0.994317  0
H  H38  1  0.21758184  0.23882480  0.82804696  1  0.061076  0  0.102272  0.095359  0  0.99391  0
H  H39  1  0.36433827  0.11198339  0.85827288  1  0.072557  0  0.104976  0.102088  0  0.988548  0
H  H40  1  0.46370170  0.02227863  0.74013914  1  0.070895  0  0.103445  0.103178  0  1.003795  0
H  H41  1  0.52020208  0.80061550  0.34368365  1  0.050017  0  0.102924  0.105444  0  1.000152  0
H  H42  1  0.66543203  0.70285231  0.25888153  1  0.107005  0  0.100643  0.102703  0  1.012383  0
H  H43  1  0.88757212  0.73483552  0.24667152  1  0.049409  0  0.098946  0.093483  0  0.996297  0
H  H44  1  0.96170618  0.86639214  0.32272427  1  0.05254  0  0.098594  0.100334  0  1.003803  0
H  H45  1  0.81684379  0.96188065  0.41066506  1  0.067876  0  0.104323  0.114738  0  0.989494  0
C  C46  1  0.52626338  0.52101653  0.24768804  1  0.201576  0  -0.040815  -0.184542  0  3.938166  0
C  C47  1  0.53404296  0.49810867  0.74401615  1  -0.142977  0  -0.03913  -0.177525  0  3.930284  0
C  C48  1  0.52415940  0.51155116  0.33893298  1  1.639555  0  0.217771  0.66258  0  4.249932  0
C  C49  1  0.49334968  0.48951688  0.66061334  1  1.643332  0  0.21326  0.65867  0  4.266606  0
C  C50  1  0.72917710  0.49325366  0.51549487  1  1.623773  0  0.220609  0.586723  0  4.17244  0
C  C51  1  0.26386654  0.49344052  0.49066193  1  1.573458  0  0.221686  0.589977  0  4.16424  0
C  C52  1  0.58153355  0.50306294  0.90369529  1  0.087565  0  0.006516  0.04479  0  4.055936  0
C  C53  1  0.54653876  0.51566046  0.08042997  1  0.066791  0  0.003526  0.038964  0  4.05811  0
C  C54  1  0.49484934  0.80469026  0.51151400  1  0.864378  0  0.254764  0.35316  0  3.965658  0
C  C55  1  0.50475709  0.18369707  0.49704085  1  0.807333  0  0.251707  0.341998  0  3.959981  0
C  C56  1  0.56762566  0.50092491  0.81548737  1  -0.148636  0  -0.021417  -0.025432  0  4.107651  0
C  C57  1  0.53169874  0.52185287  0.17010017  1  -0.450567  0  -0.022274  -0.024591  0  4.122923  0
C  C58  1  0.86459899  0.66380455  0.54191722  1  0.087224  0  -0.06163  -0.136249  0  3.87676  0
C  C59  1  0.12281089  0.33050245  0.46748152  1  -0.005035  0  -0.054511  -0.120186  0  3.883275  0
C  C60  1  0.11487722  0.66692521  0.49758317  1  0.029382  0  -0.062414  -0.132726  0  3.875361  0
C  C61  1  0.87887477  0.32665468  0.53538307  1  0.064301  0  -0.05209  -0.113212  0  3.876225  0
C  C62  1  0.92439781  0.74429653  0.53996826  1  0.174658  0  0.088162  0.030039  0  3.956213  0
C  C63  1  0.06315571  0.25007353  0.47723465  1  0.270466  0  0.082683  0.019041  0  3.957729  0
C  C64  1  0.05056136  0.74664886  0.51200776  1  0.165763  0  0.086674  0.030768  0  3.939249  0
C  C65  1  0.94370861  0.24733766  0.52062284  1  0.145999  0  0.082405  0.017181  0  3.952818  0
C  C66  1  0.05837155  0.58021206  0.50547871  1  0.008648  0  0.014618  0.075854  0  3.917859  0
C  C67  1  0.93361436  0.41331693  0.51512763  1  0.024752  0  0.015156  0.073683  0  3.937213  0
C  C68  1  0.92697064  0.57952015  0.52155165  1  0.028647  0  0.015643  0.076838  0  3.916811  0
C  C69  1  0.06334930  0.41436529  0.49400301  1  -0.018612  0  0.014089  0.071887  0  3.938902  0
C  C70  1  0.12616212  0.49712978  0.49362441  1  0.048551  0  0.014829  -0.07964  0  3.79934  0
C  C71  1  0.86510404  0.49604900  0.52105837  1  0.030678  0  0.014774  -0.079518  0  3.805562  0
C  C72  1  0.50099816  0.90105218  0.50963171  1  0.106611  0  0.021888  -0.028138  0  4.004605  0
C  C73  1  0.50427775  0.08703228  0.50150683  1  0.142379  0  0.019747  -0.03002  0  4.002334  0
C  C74  1  0.57498113  0.94333428  0.44202632  1  0.090301  0  0.025034  0.029015  0  3.90395  0
C  C75  1  0.43668509  0.04428139  0.57221914  1  0.066857  0  0.025568  0.029763  0  3.898473  0
C  C76  1  0.43218416  0.94847977  0.57502508  1  0.017852  0  0.026283  0.030862  0  3.90732  0
C  C77  1  0.57250184  0.03929275  0.43577639  1  -0.026002  0  0.024302  0.02634  0  3.902728  0
C  C78  1  0.59509111  0.58848921  0.94057480  1  -0.007116  0  0.004811  -0.010374  0  3.93898  0
C  C79  1  0.53715718  0.42915008  0.04347441  1  0.059767  0  0.008337  -0.005239  0  3.910249  0
C  C80  1  0.57817785  0.59481441  0.02957194  1  0.003022  0  0.005923  -0.006916  0  3.934101  0
C  C81  1  0.56664790  0.42140673  0.95503892  1  -0.037188  0  0.009728  -0.003738  0  3.905908  0
C  C82  1  0.58397096  0.68511183  0.06867678  1  -0.01511  0  -0.009487  0.066626  0  4.019221  0
C  C83  1  0.47785011  0.72390552  0.11012051  1  -0.007735  0  -0.089722  -0.134122  0  3.988367  0
C  C84  1  0.47622313  0.81356040  0.13675568  1  -0.065997  0  -0.094373  -0.084469  0  4.038512  0
C  C85  1  0.58119073  0.86513957  0.12341866  1  -0.037992  0  -0.09245  -0.087197  0  4.027406  0
C  C86  1  0.68855592  0.82594642  0.08550266  1  -0.018388  0  -0.090203  -0.078096  0  4.033225  0
C  C87  1  0.68995976  0.73662403  0.05814787  1  -0.069303  0  -0.086935  -0.123593  0  3.974878  0
C  C88  1  0.59818911  0.33093585  0.91814345  1  -0.058655  0  -0.011692  0.066162  0  3.994779  0
C  C89  1  0.56087670  0.30114358  0.84122051  1  -0.023405  0  -0.09224  -0.128076  0  3.964384  0
C  C90  1  0.61208342  0.22204842  0.80473220  1  -0.073528  0  -0.095699  -0.079013  0  4.028613  0
C  C91  1  0.69848621  0.16942849  0.84531602  1  -0.041429  0  -0.09762  -0.093758  0  4.034169  0
C  C92  1  0.73273926  0.19614270  0.92379632  1  0.068312  0  -0.102096  -0.095388  0  4.06199  0
C  C93  1  0.68369741  0.27601489  0.95938822  1  -0.113333  0  -0.094441  -0.131628  0  3.986127  0
C  C94  1  0.63408097  0.66806183  0.88467810  1  -0.00178  0  -0.009552  0.068519  0  4.012364  0
C  C95  1  0.74520916  0.66115414  0.83374922  1  -0.050554  0  -0.092232  -0.133033  0  3.985268  0
C  C96  1  0.79191853  0.73664944  0.78665883  1  -0.06838  0  -0.101544  -0.08785  0  4.036438  0
C  C97  1  0.72746915  0.82006064  0.78860394  1  -0.067691  0  -0.097237  -0.090017  0  4.01565  0
C  C98  1  0.61548369  0.82685497  0.83737346  1  -0.047339  0  -0.091008  -0.077835  0  4.025875  0
C  C99  1  0.56924009  0.75170677  0.88518632  1  -0.005423  0  -0.084599  -0.118513  0  3.972664  0
C  C100  1  0.48231800  0.35108237  0.09474209  1  -0.059949  0  -0.012831  0.064031  0  4.00139  0
C  C101  1  0.51607503  0.32259893  0.17538582  1  -0.101881  0  -0.089481  -0.121825  0  3.968219  0
C  C102  1  0.45071265  0.25605123  0.22410612  1  -0.00924  0  -0.093936  -0.067555  0  4.013915  0
C  C103  1  0.35204442  0.21514408  0.19268856  1  -0.01978  0  -0.099198  -0.09563  0  4.027597  0
C  C104  1  0.31959941  0.24090456  0.11128884  1  -0.113683  0  -0.102764  -0.094013  0  4.063777  0
C  C105  1  0.38376845  0.30825971  0.06305287  1  0.037064  0  -0.095091  -0.132273  0  3.988722  0
C  C106  1  0.63729494  0.08787891  0.36155481  1  -0.03589  0  -0.012089  0.05004  0  4.016542  0
C  C107  1  0.61873615  0.06247083  0.27866303  1  -0.029524  0  -0.084075  -0.119622  0  3.972654  0
C  C108  1  0.68023618  0.10564638  0.20798325  1  -0.035165  0  -0.088491  -0.079012  0  4.02531  0
C  C109  1  0.76161756  0.17466514  0.21887584  1  -0.02572  0  -0.085195  -0.07829  0  4.01287  0
C  C110  1  0.77986081  0.20097514  0.30079333  1  0.007036  0  -0.08917  -0.067815  0  4.007169  0
C  C111  1  0.71803912  0.15799817  0.37176002  1  -0.083418  0  -0.092207  -0.12639  0  3.968628  0
C  C112  1  0.35743873  0.89706338  0.64257842  1  -0.03874  0  -0.016062  0.044503  0  4.027741  0
C  C113  1  0.23313632  0.91946266  0.66055930  1  -0.022124  0  -0.08676  -0.110432  0  3.955539  0
C  C114  1  0.16227296  0.86855380  0.72167558  1  -0.074067  0  -0.096125  -0.089347  0  4.027901  0
C  C115  1  0.21392040  0.79442857  0.76510134  1  -0.042477  0  -0.092851  -0.088269  0  4.02558  0
C  C116  1  0.33723725  0.77186829  0.74777498  1  -0.011  0  -0.091084  -0.069014  0  4.010232  0
C  C117  1  0.40887443  0.82346823  0.68745482  1  -0.066602  0  -0.08967  -0.130211  0  3.9735  0
C  C118  1  0.37541942  0.09856344  0.64203939  1  -0.037563  0  -0.01289  0.050018  0  4.018297  0
C  C119  1  0.29351046  0.17054006  0.62546002  1  -0.059971  0  -0.093206  -0.127307  0  3.976069  0
C  C120  1  0.23707665  0.22069113  0.69207382  1  0.033445  0  -0.09001  -0.067519  0  4.010701  0
C  C121  1  0.26150959  0.19945381  0.77598489  1  -0.113335  0  -0.086519  -0.079319  0  4.012862  0
C  C122  1  0.34301054  0.12789767  0.79310125  1  -0.036577  0  -0.08756  -0.07786  0  4.027108  0
C  C123  1  0.39947896  0.07765905  0.72671430  1  -0.02211  0  -0.083994  -0.119504  0  3.972309  0
C  C124  1  0.65812889  0.88760622  0.38418443  1  -0.077502  0  -0.016286  0.045023  0  4.030087  0
C  C125  1  0.61707894  0.81458126  0.34053671  1  0.044105  0  -0.091272  -0.131516  0  3.97415  0
C  C126  1  0.69936307  0.75952046  0.29178592  1  -0.026764  0  -0.087536  -0.05566  0  3.996073  0
C  C127  1  0.82342052  0.77763861  0.28523275  1  -0.077933  0  -0.0948  -0.090689  0  4.023607  0
C  C128  1  0.86509375  0.85116658  0.32742802  1  -0.028163  0  -0.098931  -0.089979  0  4.039407  0
C  C129  1  0.78326715  0.90578423  0.37670246  1  -0.010912  0  -0.090667  -0.117839  0  3.963734  0
N  N130  1  0.50509364  0.26281610  0.49358330  1  -1.177005  0  -0.302608  -0.33206  0  3.14986  0
N  N131  1  0.48802343  0.72604451  0.51092673  1  -1.166407  0  -0.30815  -0.339828  0  3.162805  0
N  N132  1  0.89755288  0.16202971  0.56150795  1  0.380341  0  0.058494  0.514935  0  4.229348  0
N  N133  1  0.11261145  0.83246730  0.48650713  1  0.443287  0  0.05914  0.51141  0  4.222405  0
N  N134  1  0.11485206  0.17112879  0.43047285  1  0.364537  0  0.058332  0.514319  0  4.232439  0
N  N135  1  0.85797786  0.82240847  0.57979094  1  0.431386  0  0.059646  0.511364  0  4.233321  0
O  O136  1  0.55242449  0.58109611  0.37836439  1  -1.144369  0  -0.309297  -0.542068  0  2.287985  0
O  O137  1  0.51779102  0.41324148  0.62547074  1  -1.138257  0  -0.31091  -0.539291  0  2.254963  0
O  O138  1  0.43850534  0.55836032  0.62842342  1  -1.14481  0  -0.320832  -0.553349  0  2.251732  0
O  O139  1  0.49430539  0.43373615  0.37217025  1  -1.137557  0  -0.307957  -0.539395  0  2.274346  0
O  O140  1  0.66424739  0.56200126  0.53916695  1  -1.168277  0  -0.296541  -0.528255  0  2.395444  0
O  O141  1  0.31190454  0.41894185  0.51640757  1  -1.132499  0  -0.294272  -0.523385  0  2.321543  0
O  O142  1  0.32182457  0.56459195  0.46610347  1  -1.167559  0  -0.301674  -0.529925  0  2.377342  0
O  O143  1  0.69006136  0.42273236  0.48355023  1  -1.140549  0  -0.295529  -0.52197  0  2.306719  0
O  O144  1  0.78558881  0.15418070  0.57534483  1  -0.441444  0  -0.129416  -0.332874  0  1.920589  0
O  O145  1  0.97524999  0.10505103  0.58252683  1  -0.439179  0  -0.118305  -0.309824  0  1.913244  0
O  O146  1  0.22543362  0.83124323  0.48143225  1  -0.509484  0  -0.125436  -0.332704  0  1.969701  0
O  O147  1  0.04752049  0.89925763  0.46848931  1  -0.427532  0  -0.11343  -0.313098  0  1.970007  0
O  O148  1  0.22739030  0.16251509  0.41893751  1  -0.436019  0  -0.126332  -0.331123  0  1.930456  0
O  O149  1  0.04076054  0.12096201  0.40218690  1  -0.427206  0  -0.118476  -0.313867  0  1.918922  0
O  O150  1  0.74772550  0.83158512  0.57150319  1  -0.460491  0  -0.114726  -0.325356  0  1.990159  0
O  O151  1  0.91656506  0.87086453  0.62315563  1  -0.450962  0  -0.108769  -0.317917  0  1.989181  0
