# generated using pymatgen
data_HgH14C15N2(ClO2)2
_symmetry_space_group_name_H-M   'P 1'
_cell_length_a   7.54636481
_cell_length_b   9.16317088
_cell_length_c   14.22568717
_cell_angle_alpha   70.62149983
_cell_angle_beta   78.12727094
_cell_angle_gamma   66.46330212
_symmetry_Int_Tables_number   1
_chemical_formula_structural   HgH14C15N2(ClO2)2
_chemical_formula_sum   'Hg2 H28 C30 N4 Cl4 O8'
_cell_volume   847.70058252
_cell_formula_units_Z   2
loop_
 _symmetry_equiv_pos_site_id
 _symmetry_equiv_pos_as_xyz
  1  'x, y, z'
loop_
 _atom_site_type_symbol
 _atom_site_label
 _atom_site_symmetry_multiplicity
 _atom_site_fract_x
 _atom_site_fract_y
 _atom_site_fract_z
 _atom_site_occupancy
 _atom_site_hle17_bader_spin_density
 _atom_site_hle17_ddec_charge
 _atom_site_hle17_ddec_spin_density
 _atom_site_hle17_ddec_sum_bond_order
 _atom_site_hle17_magmom
 _atom_site_hse06_10hf_bader_charge
 _atom_site_hse06_10hf_bader_spin_density
 _atom_site_hse06_10hf_ddec_charge
 _atom_site_hse06_10hf_ddec_spin_density
 _atom_site_hse06_10hf_ddec_sum_bond_order
 _atom_site_hse06_10hf_magmom
 _atom_site_hse06_bader_spin_density
 _atom_site_hse06_ddec_charge
 _atom_site_hse06_ddec_spin_density
 _atom_site_hse06_ddec_sum_bond_order
 _atom_site_hse06_magmom
 _atom_site_pbe_bader_spin_density
 _atom_site_pbe_cm5_charge
 _atom_site_pbe_ddec_charge
 _atom_site_pbe_ddec_spin_density
 _atom_site_pbe_ddec_sum_bond_order
 _atom_site_pbe_magmom
Hg  Hg0  1  0.48204012  0.83400845  0.72966071  1  0  0.876274  0  1.911458  0  0.94602  0  0.732539  0  2.395737  0  0  0.794357  0  2.348511  0  0  0.534438  0.689711  0  2.427274  0
Hg  Hg1  1  0.51795769  0.16598740  0.27034167  1  0  0.876274  0  1.911441  0  0.94584  0  0.732537  0  2.395706  0  0  0.794362  0  2.348475  0  0  0.534449  0.689714  0  2.427253  0
H  H2  1  0.85303389  0.02343804  0.43169586  1  0  0.123487  0  0.958862  0  0.140333  0  0.125996  0  1.028782  0  0  0.129596  0  1.027293  0  0  0.106616  0.123395  0  1.030043  0
H  H3  1  0.14696046  0.97656277  0.56830515  1  0  0.123494  0  0.958878  0  0.140306  0  0.125979  0  1.028818  0  0  0.129579  0  1.027327  0  0  0.106585  0.123375  0  1.030078  0
H  H4  1  0.11155332  0.02212260  0.28802919  1  0  0.118664  0  0.945766  0  0.198167  0  0.123869  0  1.012226  0  0  0.127759  0  1.007976  0  0  0.130439  0.120975  0  1.015418  0
H  H5  1  0.88844329  0.97787942  0.71197412  1  0  0.118656  0  0.94576  0  0.19816  0  0.123851  0  1.012229  0  0  0.127741  0  1.00798  0  0  0.130442  0.120958  0  1.015415  0
H  H6  1  0.39947551  0.51461877  0.39669760  1  0  0.104077  0  0.956465  0  0.185261  0  0.108943  0  1.024283  0  0  0.112064  0  1.021632  0  0  0.120649  0.106593  0  1.026311  0
H  H7  1  0.60052294  0.48538202  0.60330435  1  0  0.104058  0  0.956511  0  0.185163  0  0.108926  0  1.024326  0  0  0.112047  0  1.021678  0  0  0.120642  0.106575  0  1.026349  0
H  H8  1  0.15844887  0.49988860  0.55029720  1  0  0.128913  0  0.92605  0  0.14851  0  0.137367  0  0.98323  0  0  0.141271  0  0.981554  0  0  0.119031  0.134547  0  0.984628  0
H  H9  1  0.84154812  0.50011223  0.44970070  1  0  0.1289  0  0.926014  0  0.148494  0  0.137342  0  0.983207  0  0  0.141247  0  0.981529  0  0  0.119024  0.134524  0  0.984609  0
H  H10  1  0.52190664  0.65880661  0.26357590  1  0  0.086579  0  0.947297  0  0.103774  0  0.100202  0  1.010525  0  0  0.101624  0  1.009551  0  0  0.104648  0.099099  0  1.01134  0
H  H11  1  0.47809094  0.34119296  0.73642501  1  0  0.086621  0  0.947225  0  0.10383  0  0.10023  0  1.010462  0  0  0.101651  0  1.009489  0  0  0.10466  0.099122  0  1.011283  0
H  H12  1  0.44087977  0.87847122  0.23534516  1  0  0.097773  0  0.965662  0  0.137745  0  0.106313  0  1.036079  0  0  0.107854  0  1.035077  0  0  0.103808  0.105088  0  1.036939  0
H  H13  1  0.55912102  0.12152712  0.76465494  1  0  0.09777  0  0.965667  0  0.137743  0  0.106308  0  1.036076  0  0  0.107848  0  1.035079  0  0  0.103804  0.10508  0  1.036942  0
H  H14  1  0.15425745  0.89021784  0.15596197  1  0  0.084462  0  0.968812  0  0.066821  0  0.095902  0  1.041874  0  0  0.097148  0  1.042106  0  0  0.090514  0.094954  0  1.041813  0
H  H15  1  0.84574313  0.10978422  0.84403737  1  0  0.084416  0  0.968872  0  0.066731  0  0.095885  0  1.041902  0  0  0.09713  0  1.042137  0  0  0.090508  0.094932  0  1.04184  0
H  H16  1  0.38659595  0.83664940  0.08961483  1  0  0.09426  0  0.920875  0  0.056378  0  0.113102  0  0.975211  0  0  0.113897  0  0.975958  0  0  0.100927  0.112443  0  0.974798  0
H  H17  1  0.61340488  0.16334893  0.91038668  1  0  0.094255  0  0.920856  0  0.056359  0  0.113108  0  0.9752  0  0  0.113901  0  0.97595  0  0  0.100929  0.112444  0  0.97479  0
H  H18  1  0.41954382  0.55085718  0.12908029  1  0  0.098913  0  0.933656  0  0.113594  0  0.109589  0  1.004481  0  0  0.110788  0  1.003115  0  0  0.110987  0.108589  0  1.005659  0
H  H19  1  0.58046001  0.44914364  0.87091964  1  0  0.098845  0  0.933651  0  0.113626  0  0.109514  0  1.004513  0  0  0.110714  0  1.003143  0  0  0.110963  0.10852  0  1.005684  0
H  H20  1  0.24436773  0.56318349  0.23358835  1  0  0.100214  0  0.971873  0  0.155353  0  0.111117  0  1.040193  0  0  0.11287  0  1.039153  0  0  0.112508  0.109756  0  1.041036  0
H  H21  1  0.75563439  0.43681487  0.76641019  1  0  0.100202  0  0.971829  0  0.155314  0  0.111132  0  1.040132  0  0  0.112883  0  1.039094  0  0  0.112523  0.109769  0  1.040976  0
H  H22  1  0.27591254  0.77409887  0.96889753  1  0  0.116898  0  0.971311  0  0.188471  0  0.121577  0  1.038478  0  0  0.125276  0  1.034767  0  0  0.126252  0.11883  0  1.041197  0
H  H23  1  0.72409228  0.22589949  0.03110070  1  0  0.11694  0  0.971298  0  0.188532  0  0.121613  0  1.038498  0  0  0.125311  0  1.03479  0  0  0.126271  0.11887  0  1.041204  0
H  H24  1  0.02963169  0.82752221  0.85661177  1  0  0.117297  0  0.973739  0  0.130975  0  0.119114  0  1.048121  0  0  0.122983  0  1.045742  0  0  0.105324  0.116225  0  1.050165  0
H  H25  1  0.97036515  0.17248233  0.14338746  1  0  0.117264  0  0.973647  0  0.131042  0  0.119094  0  1.04805  0  0  0.122946  0  1.045688  0  0  0.105301  0.116207  0  1.050093  0
H  H26  1  0.72753001  0.58350397  0.11163313  1  0  0.12267  0  0.95528  0  0.112721  0  0.129015  0  1.020899  0  0  0.132549  0  1.019497  0  0  0.110234  0.126471  0  1.022024  0
H  H27  1  0.27247331  0.41649808  0.88836730  1  0  0.122639  0  0.955287  0  0.112652  0  0.128992  0  1.020909  0  0  0.132524  0  1.01951  0  0  0.110214  0.126451  0  1.022023  0
H  H28  1  0.98578340  0.54074990  0.21619221  1  0  0.124728  0  0.939864  0  0.219788  0  0.129217  0  1.005217  0  0  0.133116  0  1.001155  0  0  0.130335  0.126339  0  1.008207  0
H  H29  1  0.01422226  0.45924970  0.78380566  1  0  0.124786  0  0.9398  0  0.21975  0  0.129263  0  1.005171  0  0  0.13316  0  1.001112  0  0  0.130361  0.126387  0  1.008156  0
C  C30  1  0.83371101  0.75346264  0.58867656  1  0  0.62404  0  3.933912  0  1.680804  0  0.578571  0  4.222892  0  0  0.612423  0  4.217578  0  0  0.198703  0.555744  0  4.225259  0
C  C31  1  0.16628196  0.24653818  0.41132321  1  0  0.623883  0  3.934092  0  1.680886  0  0.578468  0  4.22311  0  0  0.612318  0  4.217792  0  0  0.198614  0.555649  0  4.225466  0
C  C32  1  0.98741200  0.76050808  0.50174421  1  0  0.021128  0  3.670345  0  -0.058973  0  0.036052  0  3.903744  0  0  0.036754  0  3.921125  0  0  0.019605  0.035538  0  3.89218  0
C  C33  1  0.01258149  0.23949150  0.49825576  1  0  0.021217  0  3.670299  0  -0.058116  0  0.03588  0  3.904037  0  0  0.036584  0  3.921416  0  0  0.019585  0.035374  0  3.892451  0
C  C34  1  0.97294233  0.90891534  0.42766564  1  0  -0.100337  0  3.698902  0  0.126876  0  -0.123921  0  3.955295  0  0  -0.130562  0  3.975328  0  0  -0.065486  -0.119817  0  3.942241  0
C  C35  1  0.02705442  0.09108299  0.57233563  1  0  -0.100422  0  3.698838  0  0.126021  0  -0.123895  0  3.95528  0  0  -0.130535  0  3.975311  0  0  -0.065481  -0.119793  0  3.942221  0
C  C36  1  0.11139070  0.91042643  0.34727445  1  0  0.114993  0  3.561307  0  0.387204  0  0.07156  0  3.814359  0  0  0.080694  0  3.827066  0  0  0.070741  0.065537  0  3.806051  0
C  C37  1  0.88860584  0.08957562  0.65272605  1  0  0.115061  0  3.561257  0  0.386512  0  0.071648  0  3.814266  0  0  0.080779  0  3.826974  0  0  0.070783  0.065623  0  3.805952  0
C  C38  1  0.27752228  0.62253765  0.41044855  1  0  0.100126  0  3.575872  0  0.353452  0  0.061013  0  3.823014  0  0  0.068484  0  3.838592  0  0  0.067252  0.056182  0  3.812653  0
C  C39  1  0.72247479  0.37746316  0.58955215  1  0  0.10021  0  3.575977  0  0.353527  0  0.061109  0  3.823088  0  0  0.068579  0  3.838669  0  0  0.067308  0.056278  0  3.812724  0
C  C40  1  0.14425294  0.61650236  0.49305401  1  0  -0.098461  0  3.69712  0  0.060825  0  -0.124861  0  3.955909  0  0  -0.130643  0  3.974789  0  0  -0.065068  -0.121375  0  3.943622  0
C  C41  1  0.85574191  0.38349722  0.50694581  1  0  -0.098473  0  3.697081  0  0.060817  0  -0.12478  0  3.955936  0  0  -0.130562  0  3.974814  0  0  -0.065035  -0.121306  0  3.943656  0
C  C42  1  0.39507413  0.77372328  0.24787039  1  0  -0.021314  0  3.569767  0  0.233275  0  -0.081817  0  3.821345  0  0  -0.078368  0  3.831866  0  0  -0.056539  -0.083921  0  3.814075  0
C  C43  1  0.60492563  0.22627754  0.75212931  1  0  -0.021361  0  3.569784  0  0.233218  0  -0.08183  0  3.821359  0  0  -0.078379  0  3.831876  0  0  -0.056526  -0.083932  0  3.814092  0
C  C44  1  0.29957491  0.79361867  0.15726771  1  0  -0.144256  0  3.641841  0  -0.030675  0  -0.187195  0  3.904036  0  0  -0.189507  0  3.91674  0  0  -0.160705  -0.185407  0  3.895121  0
C  C45  1  0.70042807  0.20638092  0.84273188  1  0  -0.144207  0  3.641838  0  -0.030619  0  -0.187186  0  3.904103  0  0  -0.1895  0  3.91681  0  0  -0.160717  -0.185395  0  3.895183  0
C  C46  1  0.28307166  0.63197532  0.15841502  1  0  -0.038591  0  3.571398  0  0.228222  0  -0.103092  0  3.828341  0  0  -0.099998  0  3.839835  0  0  -0.062737  -0.104983  0  3.820555  0
C  C47  1  0.71693182  0.36802303  0.84158407  1  0  -0.038432  0  3.571162  0  0.228167  0  -0.102982  0  3.828186  0  0  -0.099884  0  3.839682  0  0  -0.062725  -0.104878  0  3.820388  0
C  C48  1  0.14756941  0.74083008  0.99690927  1  0  0.105718  0  3.55244  0  0.412512  0  0.066222  0  3.798903  0  0  0.073915  0  3.81338  0  0  0.069808  0.061247  0  3.789273  0
C  C49  1  0.85243654  0.25917200  0.00308733  1  0  0.105808  0  3.55245  0  0.412511  0  0.066254  0  3.798986  0  0  0.073947  0  3.813462  0  0  0.069867  0.061267  0  3.789375  0
C  C50  1  0.01010877  0.76869630  0.93600035  1  0  -0.111157  0  3.710228  0  0.059892  0  -0.135832  0  3.968453  0  0  -0.142043  0  3.988497  0  0  -0.070779  -0.132059  0  3.95544  0
C  C51  1  0.98989210  0.23130824  0.06399772  1  0  -0.111196  0  3.710209  0  0.059894  0  -0.13588  0  3.968486  0  0  -0.142079  0  3.988539  0  0  -0.07081  -0.132113  0  3.955482  0
C  C52  1  0.85401482  0.71495153  0.97629564  1  0  0.015297  0  3.691858  0  -0.00545  0  0.029888  0  3.92564  0  0  0.03027  0  3.943882  0  0  0.014839  0.029653  0  3.913376  0
C  C53  1  0.14598660  0.28505177  0.02370334  1  0  0.015316  0  3.691773  0  -0.005468  0  0.0299  0  3.925594  0  0  0.03028  0  3.943835  0  0  0.014842  0.029662  0  3.913341  0
C  C54  1  0.84266264  0.63261417  0.07810694  1  0  -0.109108  0  3.69383  0  0.046297  0  -0.133119  0  3.949262  0  0  -0.13972  0  3.969442  0  0  -0.070167  -0.128966  0  3.936019  0
C  C55  1  0.15733658  0.36738790  0.92189184  1  0  -0.109123  0  3.693864  0  0.046504  0  -0.133128  0  3.949291  0  0  -0.139731  0  3.969477  0  0  -0.070185  -0.128973  0  3.936048  0
C  C56  1  0.98310681  0.60758106  0.13692664  1  0  0.111349  0  3.555292  0  0.381601  0  0.070544  0  3.807079  0  0  0.079418  0  3.819775  0  0  0.069147  0.064711  0  3.798707  0
C  C57  1  0.01689886  0.39241853  0.86307193  1  0  0.111248  0  3.55532  0  0.38139  0  0.070443  0  3.807097  0  0  0.079316  0  3.819796  0  0  0.06911  0.064608  0  3.798724  0
C  C58  1  0.70565646  0.73800452  0.91003672  1  0  0.607608  0  3.957697  0  1.659769  0  0.561338  0  4.250487  0  0  0.595029  0  4.244481  0  0  0.19417  0.538632  0  4.253396  0
C  C59  1  0.29434247  0.26199505  0.08996403  1  0  0.607579  0  3.957608  0  1.659756  0  0.561275  0  4.25047  0  0  0.594968  0  4.24447  0  0  0.194158  0.538565  0  4.253381  0
N  N60  1  0.25860283  0.76834935  0.33920555  1  0  0.007148  0  3.501492  0  -1.268605  0  0.104917  0  3.705688  0  0  0.092084  0  3.731042  0  0  -0.203469  0.113217  0  3.688584  0
N  N61  1  0.74139319  0.23165393  0.66079475  1  0  0.007082  0  3.501702  0  -1.267958  0  0.104834  0  3.705889  0  0  0.092003  0  3.731242  0  0  -0.203556  0.113133  0  3.688783  0
N  N62  1  0.13188338  0.66178057  0.09551140  1  0  0.017809  0  3.517509  0  -1.276546  0  0.114072  0  3.720515  0  0  0.101349  0  3.746062  0  0  -0.203491  0.122286  0  3.703336  0
N  N63  1  0.86812227  0.33821903  0.90448647  1  0  0.017761  0  3.517436  0  -1.276449  0  0.114093  0  3.720419  0  0  0.101369  0  3.745965  0  0  -0.203475  0.122311  0  3.703236  0
Cl  Cl64  1  0.31059417  0.66832169  0.70536537  1  0  -0.530679  0  0.88592  0  -0.5844  0  -0.469185  0  1.140794  0  0  -0.487952  0  1.121951  0  0  -0.282868  -0.45618  0  1.153659  0
Cl  Cl65  1  0.68939508  0.33168159  0.29463571  1  0  -0.530659  0  0.885891  0  -0.584401  0  -0.469161  0  1.140744  0  0  -0.487927  0  1.121902  0  0  -0.282855  -0.456153  0  1.153618  0
Cl  Cl66  1  0.22512063  0.07753886  0.78221597  1  0  -0.567738  0  0.881909  0  -0.610538  0  -0.514856  0  1.13572  0  0  -0.535512  0  1.119858  0  0  -0.320867  -0.500029  0  1.146284  0
Cl  Cl67  1  0.77488100  0.92246072  0.21778377  1  0  -0.56775  0  0.881912  0  -0.610538  0  -0.514858  0  1.135726  0  0  -0.535518  0  1.119859  0  0  -0.320873  -0.50003  0  1.146293  0
O  O68  1  0.69787655  0.89255213  0.59046985  1  0  -0.582788  0  1.966908  0  -1.136536  0  -0.519181  0  2.202781  0  0  -0.55122  0  2.195188  0  0  -0.309316  -0.496726  0  2.206951  0
O  O69  1  0.30211696  0.10744744  0.40953083  1  0  -0.582742  0  1.966925  0  -1.136355  0  -0.519131  0  2.202785  0  0  -0.55117  0  2.195193  0  0  -0.309284  -0.496675  0  2.206949  0
O  O70  1  0.84908702  0.61455834  0.64974641  1  0  -0.618867  0  1.971906  0  -1.210269  0  -0.577847  0  2.210619  0  0  -0.604074  0  2.20371  0  0  -0.319935  -0.559072  0  2.214332  0
O  O71  1  0.15090701  0.38543999  0.35025446  1  0  -0.618792  0  1.972035  0  -1.210243  0  -0.577737  0  2.210665  0  0  -0.603989  0  2.203812  0  0  -0.319881  -0.558972  0  2.214386  0
O  O72  1  0.72629577  0.82056225  0.81866961  1  0  -0.592881  0  2.022395  0  -1.14978  0  -0.527024  0  2.268571  0  0  -0.559198  0  2.262269  0  0  -0.302986  -0.504524  0  2.271881  0
O  O73  1  0.27370024  0.17944105  0.18132999  1  0  -0.592872  0  2.022425  0  -1.149744  0  -0.526997  0  2.268621  0  0  -0.559173  0  2.262318  0  0  -0.303006  -0.504494  0  2.271931  0
O  O74  1  0.57929295  0.67361096  0.94791012  1  0  -0.604255  0  1.950912  0  -1.202855  0  -0.560109  0  2.185233  0  0  -0.584771  0  2.17801  0  0  -0.316556  -0.542691  0  2.189416  0
O  O75  1  0.42071618  0.32638368  0.05208982  1  0  -0.604256  0  1.950807  0  -1.202864  0  -0.560114  0  2.185196  0  0  -0.584743  0  2.177904  0  0  -0.316542  -0.54269  0  2.189372  0
