# generated using pymatgen
data_CoH7C7N2ClO4
_symmetry_space_group_name_H-M   'P 1'
_cell_length_a   7.65192435
_cell_length_b   8.00060321
_cell_length_c   9.01143941
_cell_angle_alpha   80.05166946
_cell_angle_beta   64.83390203
_cell_angle_gamma   66.01737345
_symmetry_Int_Tables_number   1
_chemical_formula_structural   CoH7C7N2ClO4
_chemical_formula_sum   'Co2 H14 C14 N4 Cl2 O8'
_cell_volume   456.20783589
_cell_formula_units_Z   2
loop_
 _symmetry_equiv_pos_site_id
 _symmetry_equiv_pos_as_xyz
  1  'x, y, z'
loop_
 _atom_site_type_symbol
 _atom_site_label
 _atom_site_symmetry_multiplicity
 _atom_site_fract_x
 _atom_site_fract_y
 _atom_site_fract_z
 _atom_site_occupancy
 _atom_site_hle17_ddec_charge
 _atom_site_hle17_ddec_spin_density
 _atom_site_hle17_ddec_sum_bond_order
 _atom_site_hle17_magmom
 _atom_site_hse06_10hf_ddec_charge
 _atom_site_hse06_10hf_ddec_spin_density
 _atom_site_hse06_10hf_ddec_sum_bond_order
 _atom_site_hse06_10hf_magmom
 _atom_site_hse06_ddec_charge
 _atom_site_hse06_ddec_spin_density
 _atom_site_hse06_ddec_sum_bond_order
 _atom_site_hse06_magmom
 _atom_site_pbe_cm5_charge
 _atom_site_pbe_ddec_charge
 _atom_site_pbe_ddec_spin_density
 _atom_site_pbe_ddec_sum_bond_order
 _atom_site_pbe_magmom
Co  Co0  1  0.49999973  0.49999953  0.99999989  1  1.081449  2.822304  1.888323  2.588  1.083327  2.839896  2.274134  2.665  1.162606  2.879148  2.199914  2.739  0.572422  1.017862  2.80258  2.331457  2.593
Co  Co1  1  0.49999930  0.00000013  0.00000058  1  1.081785  2.822148  1.887112  2.588  1.083774  2.840068  2.272741  2.665  1.163035  2.87941  2.198608  2.739  0.572201  1.018181  2.802427  2.330074  2.592
H  H2  1  0.18467721  0.06951930  0.78463099  1  0.13874  -0.000392  0.944971  0.0  0.147917  1.4e-05  1.00657  0.0  0.15165  -4e-05  1.003944  0.0  0.120384  0.144988  5.5e-05  1.00868  0.0
H  H3  1  0.03078902  0.43042764  0.78472528  1  0.138885  -0.000395  0.943776  0.0  0.147599  1.2e-05  1.006312  0.0  0.151391  -4.2e-05  1.003593  0.0  0.119913  0.144651  5.2e-05  1.008431  0.0
H  H4  1  0.81532169  0.93048329  0.21536944  1  0.138754  -0.000392  0.944972  0.0  0.147928  1.4e-05  1.006563  0.0  0.15166  -4e-05  1.003938  0.0  0.120382  0.144995  5.5e-05  1.008675  0.0
H  H5  1  0.96921309  0.56957222  0.21527457  1  0.13892  -0.000395  0.943753  0.0  0.147639  1.2e-05  1.006266  0.0  0.151431  -4.2e-05  1.003548  0.0  0.119935  0.144689  5.2e-05  1.008379  0.0
H  H6  1  0.12345466  0.15934222  0.61026102  1  0.113233  -0.000711  0.925455  -0.001  0.126469  -2.8e-05  0.987059  0.0  0.129283  -1.8e-05  0.985177  0.0  0.122505  0.12412  -0.000112  0.988796  0.0
H  H7  1  0.26681649  0.34050676  0.61051354  1  0.112887  -0.00071  0.925413  -0.001  0.125865  -2.7e-05  0.987456  0.0  0.128712  -1.7e-05  0.985537  0.0  0.122122  0.123486  -0.000112  0.989231  0.0
H  H8  1  0.87654451  0.84065762  0.38973889  1  0.113231  -0.000711  0.925468  -0.001  0.126461  -2.8e-05  0.987072  0.0  0.129276  -1.8e-05  0.98519  0.0  0.122496  0.12411  -0.000112  0.988805  0.0
H  H9  1  0.73318229  0.65949444  0.38948474  1  0.112922  -0.00071  0.925417  -0.001  0.125895  -2.7e-05  0.987446  0.0  0.128741  -1.6e-05  0.985528  0.0  0.122133  0.123515  -0.000112  0.989222  0.0
H  H10  1  0.05528810  0.75006941  0.88966550  1  0.13903  -0.000134  0.910432  0.0  0.145621  -0.000153  0.969626  0.0  0.14868  -0.000184  0.965853  0.0  0.155962  0.14332  -0.000112  0.972416  0.0
H  H11  1  0.94471290  0.24993044  0.11033546  1  0.139074  -0.000134  0.910432  0.0  0.145641  -0.000153  0.969617  0.0  0.1487  -0.000184  0.965845  0.0  0.15597  0.143341  -0.000112  0.972407  0.0
H  H12  1  0.27780213  0.93301556  0.39793253  1  0.144656  5.9e-05  0.955413  0.0  0.149277  0.000177  1.020176  0.0  0.153165  8.8e-05  1.01774  0.0  0.12949  0.146258  0.000248  1.022338  0.0
H  H13  1  0.32458519  0.56672150  0.39809329  1  0.144284  5.9e-05  0.955284  0.0  0.149015  0.000178  1.019992  0.0  0.152885  8.9e-05  1.017596  0.0  0.129128  0.146006  0.000248  1.022126  0.0
H  H14  1  0.72219947  0.06698293  0.60206842  1  0.144623  5.9e-05  0.955446  0.0  0.14926  0.000177  1.020192  0.0  0.153149  8.8e-05  1.017756  0.0  0.129493  0.146246  0.000248  1.022341  0.0
H  H15  1  0.67541084  0.43327832  0.60190832  1  0.144268  5.9e-05  0.955298  0.0  0.149023  0.000178  1.019988  0.0  0.152895  8.9e-05  1.01759  0.0  0.129126  0.146016  0.000248  1.022121  0.0
C  C16  1  0.85829204  0.15405196  0.82873006  1  0.690802  -0.013142  3.8412  -0.008  0.653492  -0.000805  4.140959  0.001  0.691428  8.8e-05  4.132496  0.002  0.221267  0.625028  -0.00353  4.147036  -0.001
C  C17  1  0.31278001  0.34601497  0.82909556  1  0.694631  -0.013157  3.836678  -0.008  0.656724  -0.000813  4.137144  0.001  0.69467  8.7e-05  4.128643  0.002  0.222504  0.628262  -0.003548  4.143229  -0.001
C  C18  1  0.14170824  0.84594788  0.17126874  1  0.690868  -0.013143  3.841136  -0.008  0.653538  -0.000805  4.140922  0.001  0.691475  8.8e-05  4.132458  0.002  0.221277  0.625091  -0.00353  4.146978  -0.001
C  C19  1  0.68722178  0.65398351  0.17090376  1  0.694696  -0.013156  3.8367  -0.008  0.656793  -0.000812  4.137131  0.001  0.694739  8.7e-05  4.128627  0.002  0.222532  0.628322  -0.003548  4.143234  -0.001
C  C20  1  0.09120815  0.07186689  0.71849874  1  -0.177156  0.006529  3.60746  0.01  -0.237187  0.004327  3.848645  0.006  -0.239477  0.003095  3.853585  0.004  -0.054713  -0.235151  0.005555  3.846026  0.008
C  C21  1  0.19049037  0.42809669  0.71871965  1  -0.177288  0.006531  3.605994  0.01  -0.236814  0.004325  3.847242  0.006  -0.239089  0.003095  3.852044  0.004  -0.054638  -0.234802  0.005554  3.844756  0.008
C  C22  1  0.90879213  0.92813295  0.28150006  1  -0.177242  0.006529  3.607493  0.01  -0.237253  0.004327  3.848676  0.006  -0.239545  0.003096  3.853616  0.004  -0.054717  -0.235219  0.005555  3.846048  0.008
C  C23  1  0.80950788  0.57190314  0.28127974  1  -0.177383  0.00653  3.606042  0.01  -0.236886  0.004325  3.847255  0.006  -0.239162  0.003095  3.852056  0.004  -0.054661  -0.234869  0.005554  3.844766  0.008
C  C24  1  0.12165321  0.74999731  0.75705350  1  0.195587  0.000748  3.486063  0.001  0.121816  0.000458  3.749914  0.001  0.141178  0.000149  3.753931  0.0  0.187924  0.108966  0.000861  3.747272  0.001
C  C25  1  0.87834688  0.25000254  0.24294693  1  0.195363  0.000749  3.486261  0.001  0.121707  0.000458  3.749978  0.001  0.141069  0.00015  3.753993  0.0  0.187876  0.108856  0.000861  3.747337  0.001
C  C26  1  0.24088563  0.83905014  0.49762030  1  -0.038915  0.000221  3.615829  0.0  -0.083767  0.000328  3.884121  0.001  -0.081901  0.000181  3.900878  0.0  0.013222  -0.085084  0.000514  3.873316  0.001
C  C27  1  0.26185085  0.66075941  0.49769503  1  -0.03908  0.000233  3.61783  0.0  -0.08398  0.000326  3.885915  0.001  -0.082114  0.000179  3.90272  0.0  0.013841  -0.085258  0.000512  3.875007  0.001
C  C28  1  0.75911387  0.16095107  0.50238013  1  -0.038828  0.000226  3.615988  0.0  -0.083696  0.000328  3.884279  0.001  -0.081831  0.000181  3.901037  0.0  0.013284  -0.085011  0.000514  3.873475  0.001
C  C29  1  0.73814629  0.33924042  0.50230547  1  -0.039085  0.000228  3.617915  0.0  -0.084007  0.000326  3.885984  0.001  -0.082143  0.000179  3.902791  0.0  0.013801  -0.08529  0.000512  3.875081  0.001
N  N30  1  0.15376783  0.89062036  0.66013007  1  -0.015207  0.000389  3.609484  0.0  0.072126  0.000604  3.833463  0.001  0.058924  0.000352  3.857193  0.0  -0.230237  0.080607  0.000935  3.817561  0.001
N  N31  1  0.18643625  0.60930369  0.66024650  1  -0.017823  0.000386  3.613759  0.0  0.069793  0.000604  3.836983  0.001  0.056521  0.000353  3.860785  0.0  -0.231044  0.078324  0.000936  3.821047  0.001
N  N32  1  0.84623317  0.10937950  0.33987089  1  -0.015067  0.000387  3.609461  0.0  0.07222  0.000604  3.833422  0.001  0.059019  0.000352  3.85715  0.0  -0.230217  0.0807  0.000935  3.81752  0.001
N  N33  1  0.81356181  0.39069614  0.33975452  1  -0.01778  0.000386  3.613828  0.0  0.069782  0.000604  3.837051  0.001  0.05651  0.000353  3.860851  0.0  -0.231042  0.078314  0.000936  3.821115  0.001
Cl  Cl34  1  0.59968782  0.75006281  0.80050939  1  -0.59471  0.07609  0.810416  0.126  -0.609056  0.056958  1.064406  0.084  -0.639353  0.040898  1.040077  0.062  -0.325328  -0.581424  0.073291  1.080951  0.106
Cl  Cl35  1  0.40031318  0.24993705  0.19949156  1  -0.594712  0.076089  0.81041  0.126  -0.609056  0.056958  1.064396  0.084  -0.639353  0.040898  1.040067  0.062  -0.32533  -0.581423  0.073291  1.080939  0.106
O  O36  1  0.79985002  0.31204947  0.88371898  1  -0.6296  0.026826  2.122739  0.051  -0.595068  0.021321  2.38855  0.036  -0.629427  0.016717  2.376209  0.028  -0.309935  -0.569106  0.026162  2.397254  0.044
O  O37  1  0.31609933  0.18805064  0.88411579  1  -0.631002  0.026745  2.121482  0.051  -0.596318  0.021262  2.387544  0.036  -0.630618  0.016665  2.375106  0.028  -0.310113  -0.570412  0.0261  2.396399  0.044
O  O38  1  0.20015026  0.68795038  0.11627982  1  -0.629628  0.026825  2.122739  0.051  -0.595086  0.021321  2.388538  0.036  -0.629443  0.016718  2.376194  0.028  -0.309939  -0.56913  0.026162  2.397237  0.044
O  O39  1  0.68390043  0.81194783  0.11588412  1  -0.63104  0.026744  2.121469  0.051  -0.596373  0.021262  2.387553  0.036  -0.630674  0.016665  2.375109  0.028  -0.310154  -0.570466  0.0261  2.396416  0.044
O  O40  1  0.75155320  0.05981718  0.85054023  1  -0.636133  0.030764  2.213686  0.056  -0.603032  0.025458  2.494127  0.041  -0.639158  0.019481  2.483255  0.032  -0.306999  -0.574887  0.031917  2.501063  0.052
O  O41  1  0.39755722  0.44030640  0.85098574  1  -0.637433  0.030839  2.211525  0.056  -0.604042  0.025493  2.492171  0.041  -0.640167  0.019504  2.481256  0.032  -0.307567  -0.575909  0.031972  2.499132  0.052
O  O42  1  0.24844800  0.94018267  0.14945910  1  -0.636135  0.030765  2.213677  0.056  -0.603027  0.025459  2.494119  0.041  -0.639154  0.019481  2.483245  0.032  -0.306989  -0.574894  0.031917  2.501062  0.052
O  O43  1  0.60244398  0.55969345  0.14901358  1  -0.637442  0.030839  2.21151  0.056  -0.604057  0.025492  2.492163  0.041  -0.640183  0.019504  2.481246  0.032  -0.307565  -0.575922  0.031972  2.49913  0.052
