# generated using pymatgen
data_Zn2H28C40BrN11O8
_symmetry_space_group_name_H-M   'P 1'
_cell_length_a   13.56469607
_cell_length_b   15.93324319
_cell_length_c   17.14873720
_cell_angle_alpha   85.73473264
_cell_angle_beta   86.87622444
_cell_angle_gamma   70.21886221
_symmetry_Int_Tables_number   1
_chemical_formula_structural   Zn2H28C40BrN11O8
_chemical_formula_sum   'Zn2 H28 C40 Br1 N11 O8'
_cell_volume   3476.28848797
_cell_formula_units_Z   1
loop_
 _symmetry_equiv_pos_site_id
 _symmetry_equiv_pos_as_xyz
  1  'x, y, z'
loop_
 _atom_site_type_symbol
 _atom_site_label
 _atom_site_symmetry_multiplicity
 _atom_site_fract_x
 _atom_site_fract_y
 _atom_site_fract_z
 _atom_site_occupancy
 _atom_site_pbe_bader_charge
 _atom_site_pbe_bader_spin_density
 _atom_site_pbe_cm5_charge
 _atom_site_pbe_ddec_charge
 _atom_site_pbe_ddec_spin_density
 _atom_site_pbe_ddec_sum_bond_order
 _atom_site_pbe_magmom
Zn  Zn0  1  0.51015789  0.41355727  0.50279091  1  1.284421  0  0.674394  0.827707  0  2.43292  0
Zn  Zn1  1  0.49394534  0.59359009  0.50032978  1  1.283788  0  0.666623  0.814478  0  2.368323  0
H  H2  1  0.15221313  0.70822803  0.54659287  1  0.096674  0  0.10264  0.109441  0  0.997594  0
H  H3  1  0.57785091  0.68546835  0.60678631  1  0.137276  0  0.126724  0.103149  0  1.001322  0
H  H4  1  0.38879996  0.33869281  0.41713753  1  0.131799  0  0.129419  0.11668  0  0.979426  0
H  H5  1  0.42395061  0.92288578  0.40388520  1  0.103401  0  0.113379  0.12027  0  1.005773  0
H  H6  1  0.42012896  0.76673791  0.40003092  1  0.097427  0  0.127287  0.099122  0  0.978276  0
H  H7  1  0.96261696  0.73689271  0.58349787  1  0.064384  0  0.094178  0.097648  0  1.01329  0
H  H8  1  0.12824989  0.34760292  0.48628290  1  0.094327  0  0.098433  0.097813  0  1.064216  0
H  H9  1  0.03988668  0.24960923  0.44478314  1  0.054057  0  0.096249  0.104369  0  1.009864  0
H  H10  1  0.73264125  0.57141793  0.57921312  1  0.090342  0  0.099669  0.105604  0  1.047443  0
H  H11  1  0.59003330  0.36780285  0.26410558  1  0.083041  0  0.0981  0.108838  0  1.011071  0
H  H12  1  0.40070563  0.72071729  0.21223805  1  0.424696  0  0.296427  0.28386  0  0.96592  0
H  H13  1  0.60086646  0.36124038  0.11765414  1  0.103009  0  0.099261  0.107185  0  1.021638  0
H  H14  1  0.44300931  0.67197805  0.30338087  1  0.481399  0  0.285996  0.291068  0  1.023177  0
H  H15  1  0.49279936  0.65804963  0.02877295  1  0.439984  0  0.297357  0.282956  0  0.984957  0
H  H16  1  0.49565599  0.71778845  0.10713872  1  0.438125  0  0.301369  0.289236  0  0.95271  0
H  H17  1  0.65532926  0.28253761  0.58089497  1  0.511074  0  0.300326  0.3235  0  0.984173  0
H  H18  1  0.68468610  0.17387409  0.61778818  1  0.433651  0  0.317942  0.316618  0  0.919138  0
H  H19  1  0.31180265  0.24082490  0.35340901  1  0.441359  0  0.326825  0.322516  0  0.912377  0
H  H20  1  0.34012554  0.13008911  0.38598483  1  0.474739  0  0.312211  0.300952  0  0.961372  0
H  H21  1  0.19125240  0.36394538  0.58379407  1  0.437474  0  0.311795  0.303575  0  0.932524  0
H  H22  1  0.29326315  0.40151326  0.55143039  1  0.491172  0  0.300828  0.306525  0  0.985392  0
H  H23  1  0.51378925  0.33481881  0.89482326  1  0.052085  0  0.104603  0.108344  0  0.996403  0
H  H24  1  0.48892897  0.35708565  0.74886283  1  0.091006  0  0.102926  0.110294  0  1.002865  0
H  H25  1  0.60459233  0.56882007  0.88891367  1  0.080958  0  0.100998  0.101026  0  1.018911  0
H  H26  1  0.58135558  0.58972090  0.74370651  1  0.069183  0  0.099887  0.101353  0  1.007822  0
H  H27  1  0.59911160  0.07299298  0.57336821  1  0.109148  0  0.110483  0.130517  0  1.017817  0
H  H28  1  0.59145319  0.83883337  0.61842340  1  0.079055  0  0.11879  0.127966  0  0.982045  0
H  H29  1  0.81498679  0.68307882  0.60173762  1  0.060531  0  0.096081  0.094269  0  1.006494  0
C  C30  1  0.51129045  0.49073543  0.65278869  1  1.547376  0  0.210767  0.589439  0  4.170363  0
C  C31  1  0.82445052  0.41675423  0.50797281  1  0.009556  0  -0.016565  -0.118249  0  3.887445  0
C  C32  1  0.53067946  0.47606711  0.73843592  1  -0.037887  0  -0.018566  -0.032527  0  3.956867  0
C  C33  1  0.70674836  0.44754577  0.50636123  1  1.604483  0  0.216227  0.61199  0  4.151077  0
C  C34  1  0.56550004  0.53478808  0.77756910  1  -0.028395  0  -0.085897  -0.081004  0  3.993393  0
C  C35  1  0.57839075  0.52342948  0.85779853  1  0.000103  0  -0.092782  -0.158507  0  3.982576  0
C  C36  1  0.55650672  0.45234644  0.90034653  1  0.349383  0  0.087335  0.176985  0  4.063879  0
C  C37  1  0.52801269  0.39036528  0.86069304  1  -0.065716  0  -0.086347  -0.150863  0  3.969483  0
C  C38  1  0.51394585  0.40285660  0.78045605  1  0.02322  0  -0.084974  -0.08234  0  3.98087  0
C  C39  1  0.57239365  0.42446307  0.14575842  1  -0.030381  0  -0.110278  -0.179466  0  4.052912  0
C  C40  1  0.56591873  0.42845523  0.22588641  1  -0.036738  0  -0.103304  -0.102019  0  4.0594  0
C  C41  1  0.98798993  0.44919473  0.52958571  1  -0.016478  0  -0.004618  0.042267  0  3.935066  0
C  C42  1  0.54281877  0.50473809  0.09798848  1  0.395866  0  0.076142  0.080803  0  4.064067  0
C  C43  1  0.52681249  0.51116364  0.26211891  1  0.050506  0  -0.03095  -0.143063  0  3.940357  0
C  C44  1  0.49664918  0.59173640  0.21517521  1  0.406335  0  0.096029  0.199608  0  4.027013  0
C  C45  1  0.51553080  0.50941750  0.34911380  1  1.498978  0  0.214081  0.607673  0  4.12555  0
C  C46  1  0.50723287  0.58815176  0.13222049  1  0.452462  0  0.100793  0.146264  0  4.005199  0
C  C47  1  0.45680498  0.78593919  0.44750142  1  0.473644  0  0.060176  0.108413  0  3.931012  0
C  C48  1  0.45882722  0.87210183  0.44973259  1  0.040883  0  -0.076802  -0.193184  0  3.929574  0
C  C49  1  0.50766215  0.89246105  0.51252490  1  0.378615  0  0.108093  0.210532  0  4.048225  0
C  C50  1  0.55274032  0.82436743  0.56962884  1  -0.066736  0  -0.069915  -0.186463  0  3.922708  0
C  C51  1  0.54625679  0.74015578  0.56317001  1  0.510272  0  0.060834  0.111161  0  3.908014  0
C  C52  1  0.87590031  0.47330679  0.53585755  1  -0.012766  0  0.001261  0.075392  0  3.928861  0
C  C53  1  0.55138120  0.13147490  0.53914876  1  0.023584  0  -0.10305  -0.310705  0  3.937231  0
C  C54  1  0.56312801  0.21467146  0.54397957  1  0.942411  0  0.214589  0.429003  0  4.10659  0
C  C55  1  0.47899909  0.12145664  0.48865870  1  0.416373  0  0.08869  0.106262  0  4.057466  0
C  C56  1  0.43358210  0.27798890  0.45057482  1  0.546841  0  0.047748  0.000665  0  3.896994  0
C  C57  1  0.29955103  0.55424657  0.51608271  1  1.548633  0  0.208328  0.603196  0  4.160409  0
C  C58  1  0.41599051  0.19690007  0.44273015  1  0.415462  0  0.109721  0.19606  0  4.077605  0
C  C59  1  0.01443823  0.67048828  0.56925886  1  -0.007253  0  -0.116897  -0.187436  0  4.059056  0
C  C60  1  0.18759221  0.56782840  0.53673956  1  -0.000561  0  -0.038231  -0.169367  0  3.94605  0
C  C61  1  0.88492161  0.33613139  0.47729806  1  -0.082333  0  -0.016198  0.094849  0  3.958682  0
C  C62  1  0.99433359  0.31161075  0.47123491  1  0.011737  0  -0.109837  -0.150234  0  4.082966  0
C  C63  1  0.03715337  0.51320436  0.54861520  1  0.055119  0  -0.012605  -0.084556  0  3.880457  0
C  C64  1  0.04400704  0.36693480  0.49625633  1  -0.056428  0  -0.100357  -0.12819  0  4.013423  0
C  C65  1  0.97181606  0.60102482  0.56660083  1  -0.086786  0  -0.010999  0.095706  0  4.0546  0
C  C66  1  0.86225355  0.61798989  0.58102119  1  -0.012278  0  -0.094397  -0.132471  0  4.024584  0
C  C67  1  0.81624870  0.55651143  0.56814061  1  -0.054352  0  -0.094992  -0.127204  0  4.008432  0
C  C68  1  0.14879659  0.49505915  0.54518498  1  0.450531  0  0.119053  0.274466  0  3.985844  0
C  C69  1  0.11886020  0.65467979  0.55010686  1  -0.118452  0  -0.090854  -0.073631  0  4.058894  0
Br  Br70  1  0.82699915  0.25648855  0.43402767  1  -0.077893  0  0.000545  -0.085626  0  1.398854  0
N  N71  1  0.55801485  0.43966050  0.98257913  1  -0.481219  0  -0.16274  -0.155202  0  3.257951  0
N  N72  1  0.33964864  0.19216410  0.39597093  1  -1.216688  0  -0.57492  -0.58731  0  3.341436  0
N  N73  1  0.21607512  0.40836746  0.55022567  1  -1.250486  0  -0.589613  -0.602349  0  3.38092  0
N  N74  1  0.54496607  0.51121725  0.01656152  1  -0.604185  0  -0.157767  -0.130404  0  3.370186  0
N  N75  1  0.49922770  0.72094505  0.50303605  1  -1.243579  0  -0.315384  -0.195271  0  3.495915  0
N  N76  1  0.51750821  0.97570962  0.52385641  1  -0.466464  0  -0.154316  -0.146772  0  3.257535  0
N  N77  1  0.46505489  0.04011542  0.47794942  1  -0.516041  0  -0.148522  -0.12353  0  3.289503  0
N  N78  1  0.50327150  0.28650752  0.49894246  1  -1.250347  0  -0.322089  -0.276177  0  3.465359  0
N  N79  1  0.45830813  0.67587095  0.24439333  1  -1.228779  0  -0.608832  -0.619382  0  3.329954  0
N  N80  1  0.47554230  0.66761821  0.08676042  1  -1.210703  0  -0.595999  -0.596195  0  3.337883  0
N  N81  1  0.63064880  0.22885282  0.59346558  1  -1.25271  0  -0.586707  -0.640215  0  3.294969  0
O  O82  1  0.47905060  0.43530045  0.62130931  1  -1.170034  0  -0.322249  -0.551163  0  2.316804  0
O  O83  1  0.52838665  0.55797461  0.61666937  1  -1.168368  0  -0.319156  -0.560603  0  2.345509  0
O  O84  1  0.66300906  0.39057718  0.53107923  1  -1.18211  0  -0.316038  -0.561303  0  2.410918  0
O  O85  1  0.65878770  0.52632964  0.47992751  1  -1.16133  0  -0.304256  -0.529796  0  2.289034  0
O  O86  1  0.54016988  0.43318115  0.38609039  1  -1.168313  0  -0.317159  -0.548365  0  2.346627  0
O  O87  1  0.48110047  0.58425325  0.38252677  1  -1.172306  0  -0.316051  -0.548596  0  2.334054  0
O  O88  1  0.35412771  0.47851579  0.48930274  1  -1.195005  0  -0.32693  -0.573634  0  2.394217  0
O  O89  1  0.33581876  0.61713695  0.52410537  1  -1.161861  0  -0.32347  -0.544241  0  2.273162  0
