# generated using pymatgen
data_ZnH13C21NO7
_symmetry_space_group_name_H-M   'P 1'
_cell_length_a   9.75349055
_cell_length_b   11.02121688
_cell_length_c   14.64265951
_cell_angle_alpha   90.03406236
_cell_angle_beta   103.75740642
_cell_angle_gamma   91.61563374
_symmetry_Int_Tables_number   1
_chemical_formula_structural   ZnH13C21NO7
_chemical_formula_sum   'Zn2 H26 C42 N2 O14'
_cell_volume   1528.21015021
_cell_formula_units_Z   2
loop_
 _symmetry_equiv_pos_site_id
 _symmetry_equiv_pos_as_xyz
  1  'x, y, z'
loop_
 _atom_site_type_symbol
 _atom_site_label
 _atom_site_symmetry_multiplicity
 _atom_site_fract_x
 _atom_site_fract_y
 _atom_site_fract_z
 _atom_site_occupancy
 _atom_site_pbe_bader_charge
 _atom_site_pbe_bader_spin_density
 _atom_site_pbe_cm5_charge
 _atom_site_pbe_ddec_charge
 _atom_site_pbe_ddec_spin_density
 _atom_site_pbe_ddec_sum_bond_order
 _atom_site_pbe_magmom
Zn  Zn0  1  0.14788706  0.51400190  0.49840881  1  1.294553  0  0.679624  0.839116  0  2.386387  0
Zn  Zn1  1  0.86414437  0.50409562  0.50726643  1  1.288973  0  0.675451  0.822957  0  2.436057  0
H  H2  1  0.74911135  0.74118051  0.92463901  1  0.05183  0  0.099625  0.112782  0  1.012148  0
H  H3  1  0.83369267  0.08023197  0.67611725  1  0.051159  0  0.093873  0.102473  0  0.983616  0
H  H4  1  0.69743200  0.09365606  0.57156462  1  0.033243  0  0.085639  0.089508  0  1.018433  0
H  H5  1  0.83225214  0.85447706  0.65076440  1  0.06342  0  0.090338  0.099039  0  0.98919  0
H  H6  1  0.69754771  0.86859600  0.54535032  1  0.030901  0  0.085514  0.088244  0  1.008827  0
H  H7  1  0.67192445  0.35508307  0.59349792  1  0.153304  0  0.133243  0.123398  0  0.987536  0
H  H8  1  0.30025793  0.64457492  0.32083783  1  0.099248  0  0.110644  0.136967  0  0.978968  0
H  H9  1  0.30626917  0.62186287  0.78600427  1  0.12616  0  0.104726  0.121357  0  1.056794  0
H  H10  1  0.34257648  0.75555698  0.41177341  1  0.147887  0  0.109294  0.144812  0  1.006506  0
H  H11  1  0.55537035  0.64653996  0.30829232  1  0.08835  0  0.10895  0.131523  0  0.985286  0
H  H12  1  0.60194607  0.75524501  0.40148794  1  0.084891  0  0.111391  0.135837  0  0.978437  0
H  H13  1  0.96137399  0.70674796  0.04970674  1  0.044156  0  0.099729  0.100915  0  0.993408  0
H  H14  1  0.07426543  0.61928080  0.20533043  1  0.077044  0  0.100261  0.098135  0  1.022469  0
H  H15  1  0.67658101  0.47043540  0.23124249  1  0.05548  0  0.096602  0.097978  0  1.040363  0
H  H16  1  0.47597472  0.46047531  0.18263434  1  0.045572  0  0.097403  0.106985  0  1.043119  0
H  H17  1  0.89401006  0.41668587  0.94666311  1  0.639311  0  0.331256  0.366544  0  0.888089  0
H  H18  1  0.22659004  0.98941346  0.38003634  1  0.613693  0  0.327218  0.362039  0  0.902852  0
H  H19  1  0.17607319  0.23473294  0.44699926  1  0.648219  0  0.305087  0.364266  0  0.957393  0
H  H20  1  0.35896174  0.46674410  0.71536679  1  0.128114  0  0.102386  0.107359  0  1.045211  0
H  H21  1  0.30192309  0.31916537  0.82889884  1  0.069119  0  0.103222  0.103057  0  1.006359  0
H  H22  1  0.32312667  0.09691754  0.80337248  1  0.057418  0  0.106155  0.101742  0  0.986682  0
H  H23  1  0.40539562  0.02528495  0.66450582  1  0.083061  0  0.103929  0.101189  0  0.988257  0
H  H24  1  0.46694073  0.17420353  0.55253023  1  0.052055  0  0.099513  0.093281  0  1.018925  0
H  H25  1  0.85833115  0.49609598  0.74392662  1  0.652188  0  0.30156  0.35755  0  0.965557  0
H  H26  1  0.26402003  0.40211709  0.19295661  1  0.601296  0  0.336879  0.358957  0  0.873876  0
H  H27  1  0.56053643  0.76829233  0.81999778  1  0.605556  0  0.337077  0.361714  0  0.875622  0
C  C28  1  0.00682093  0.74292089  0.48191202  1  1.563442  0  0.218842  0.620351  0  4.154276  0
C  C29  1  0.66690424  0.56967455  0.10093804  1  -0.033329  0  -0.015927  0.004796  0  3.965372  0
C  C30  1  0.75160437  0.63753241  0.05040075  1  -0.00425  0  -0.008115  0.111674  0  4.057929  0
C  C31  1  0.51684691  0.55256360  0.06011054  1  -0.06685  0  -0.006333  0.077106  0  4.013641  0
C  C32  1  0.45378533  0.59569803  0.96866775  1  0.07236  0  -0.019266  -0.088729  0  3.914245  0
C  C33  1  0.54352790  0.66717675  0.92291645  1  0.382903  0  0.079874  0.277624  0  4.075784  0
C  C34  1  0.68541794  0.68635115  0.96230546  1  0.043854  0  -0.128395  -0.326231  0  4.067485  0
C  C35  1  0.42919258  0.49237250  0.11185446  1  0.008595  0  -0.130141  -0.324877  0  4.061622  0
C  C36  1  0.28649594  0.47275420  0.07753741  1  0.411521  0  0.081635  0.291261  0  4.097632  0
C  C37  1  0.21887614  0.50620644  0.98307694  1  -0.003443  0  -0.019349  -0.118647  0  3.945948  0
C  C38  1  0.30534694  0.56562749  0.92740469  1  -0.011233  0  -0.011242  0.057299  0  3.97223  0
C  C39  1  0.94262696  0.49730533  0.32291322  1  1.530932  0  0.208038  0.594183  0  4.162892  0
C  C40  1  0.07420544  0.47898904  0.94174935  1  0.608239  0  0.073382  0.172498  0  4.04881  0
C  C41  1  0.01655604  0.50449792  0.84688083  1  0.515598  0  0.062778  0.159027  0  4.126739  0
C  C42  1  0.24386542  0.58378233  0.83152454  1  0.028866  0  -0.102701  -0.160304  0  4.001618  0
C  C43  1  0.90958537  0.93425099  0.53200952  1  0.043958  0  -0.023445  0.034144  0  3.950689  0
C  C44  1  0.00132153  0.87745898  0.48575310  1  -0.003348  0  -0.023593  -0.167977  0  3.975326  0
C  C45  1  0.09166900  0.95638246  0.45009086  1  0.499918  0  0.077309  0.188305  0  4.038259  0
C  C46  1  0.09072668  0.08372327  0.46351377  1  0.517048  0  0.07048  0.171096  0  4.076149  0
C  C47  1  0.99947658  0.13894572  0.51213392  1  -0.006184  0  -0.034211  -0.200523  0  4.024383  0
C  C48  1  0.90859688  0.05884778  0.54529397  1  0.003311  0  -0.020915  0.049701  0  3.946219  0
C  C49  1  0.79785751  0.05033910  0.60242895  1  -0.01948  0  -0.155421  -0.192434  0  3.892605  0
C  C50  1  0.00142563  0.27217213  0.52242239  1  1.554334  0  0.220983  0.622975  0  4.136098  0
C  C51  1  0.79794869  0.90831062  0.58661385  1  -0.052338  0  -0.155944  -0.188468  0  3.898951  0
C  C52  1  0.55746924  0.57125111  0.44845272  1  0.579469  0  0.138752  0.184979  0  3.880442  0
C  C53  1  0.59824926  0.41860076  0.55275363  1  0.458628  0  0.062634  -0.003187  0  3.833773  0
C  C54  1  0.45757962  0.41823731  0.56112505  1  0.466163  0  0.140435  0.187801  0  3.912923  0
C  C55  1  0.41763755  0.57205049  0.45567324  1  0.520656  0  0.139797  0.199766  0  3.875691  0
C  C56  1  0.37881900  0.67247577  0.38479476  1  -0.056173  0  -0.141709  -0.232624  0  3.80264  0
C  C57  1  0.53896707  0.67223438  0.37730528  1  -0.032604  0  -0.138041  -0.22584  0  3.817933  0
C  C58  1  0.05167585  0.54908102  0.68676677  1  1.521863  0  0.216476  0.610893  0  4.133979  0
C  C59  1  0.87888217  0.54020063  0.22627579  1  0.019649  0  -0.026115  -0.045179  0  3.993268  0
C  C60  1  0.10406327  0.55057560  0.79043656  1  -0.064384  0  -0.041743  -0.160262  0  4.073729  0
C  C61  1  0.89847954  0.65508662  0.08953121  1  -0.031318  0  -0.094179  -0.135645  0  3.991321  0
C  C62  1  0.96147976  0.60676736  0.17532722  1  -0.039769  0  -0.085183  -0.076536  0  4.00085  0
C  C63  1  0.73470936  0.52262585  0.18899162  1  0.005863  0  -0.084777  -0.128401  0  3.955  0
C  C64  1  0.41624209  0.33026862  0.62657571  1  -0.067574  0  -0.01621  0.018687  0  4.030296  0
C  C65  1  0.36942574  0.37025157  0.70445413  1  0.001204  0  -0.0861  -0.104502  0  3.946038  0
C  C66  1  0.33694047  0.28660352  0.76809173  1  -0.069119  0  -0.086283  -0.069061  0  3.985012  0
C  C67  1  0.34966833  0.16241897  0.75397734  1  -0.00973  0  -0.084427  -0.078242  0  4.005368  0
C  C68  1  0.39675087  0.12213516  0.67647564  1  -0.094072  0  -0.091418  -0.081178  0  4.028993  0
C  C69  1  0.43172642  0.20560754  0.61357476  1  0.017459  0  -0.089502  -0.12407  0  3.998382  0
N  N70  1  0.65118161  0.49624746  0.49738851  1  -1.218461  0  -0.294919  -0.178701  0  3.508717  0
N  N71  1  0.36370367  0.49900002  0.51154957  1  -1.211351  0  -0.285068  -0.240095  0  3.393548  0
O  O72  1  0.12447914  0.69658762  0.48126593  1  -1.146878  0  -0.308067  -0.522193  0  2.32508  0
O  O73  1  0.89215068  0.68426557  0.48327930  1  -1.171403  0  -0.318078  -0.553213  0  2.31315  0
O  O74  1  0.07680017  0.50446298  0.35301198  1  -1.171846  0  -0.325082  -0.55605  0  2.285892  0
O  O75  1  0.85729688  0.45990770  0.37205040  1  -1.187347  0  -0.336035  -0.578842  0  2.346554  0
O  O76  1  0.10839602  0.33028953  0.50299344  1  -1.167734  0  -0.309518  -0.565528  0  2.416682  0
O  O77  1  0.90146971  0.32346778  0.54725971  1  -1.168916  0  -0.30854  -0.526452  0  2.28007  0
O  O78  1  0.14116582  0.55109287  0.63672759  1  -1.164112  0  -0.303461  -0.541971  0  2.377224  0
O  O79  1  0.91651857  0.53938394  0.65300010  1  -1.155256  0  -0.314256  -0.555091  0  2.312741  0
O  O80  1  0.98735350  0.42350505  0.99028310  1  -1.122627  0  -0.340667  -0.404866  0  2.315421  0
O  O81  1  0.18300451  0.91565558  0.39986144  1  -1.116157  0  -0.347477  -0.424475  0  2.30361  0
O  O82  1  0.18378673  0.14837483  0.42510051  1  -1.177544  0  -0.366277  -0.474062  0  2.312788  0
O  O83  1  0.87720092  0.47525152  0.81284492  1  -1.181124  0  -0.366198  -0.465785  0  2.303222  0
O  O84  1  0.20501902  0.41862895  0.13077803  1  -1.106698  0  -0.33668  -0.409766  0  2.314076  0
O  O85  1  0.48554822  0.72066020  0.83797032  1  -1.129383  0  -0.346994  -0.433883  0  2.306697  0
