# generated using pymatgen
data_CuH10C10NO4
_symmetry_space_group_name_H-M   'P 1'
_cell_length_a   6.51081180
_cell_length_b   11.24501817
_cell_length_c   14.38630000
_cell_angle_alpha   108.46248740
_cell_angle_beta   90.00000000
_cell_angle_gamma   90.00000000
_symmetry_Int_Tables_number   1
_chemical_formula_structural   CuH10C10NO4
_chemical_formula_sum   'Cu4 H40 C40 N4 O16'
_cell_volume   999.07026858
_cell_formula_units_Z   4
loop_
 _symmetry_equiv_pos_site_id
 _symmetry_equiv_pos_as_xyz
  1  'x, y, z'
loop_
 _atom_site_type_symbol
 _atom_site_label
 _atom_site_symmetry_multiplicity
 _atom_site_fract_x
 _atom_site_fract_y
 _atom_site_fract_z
 _atom_site_occupancy
 _atom_site_hle17_ddec_charge
 _atom_site_hle17_ddec_spin_density
 _atom_site_hle17_ddec_sum_bond_order
 _atom_site_hle17_magmom
 _atom_site_hse06_10hf_ddec_charge
 _atom_site_hse06_10hf_ddec_spin_density
 _atom_site_hse06_10hf_ddec_sum_bond_order
 _atom_site_hse06_10hf_magmom
 _atom_site_hse06_ddec_charge
 _atom_site_hse06_ddec_spin_density
 _atom_site_hse06_ddec_sum_bond_order
 _atom_site_hse06_magmom
 _atom_site_pbe_bader_charge
 _atom_site_pbe_bader_spin_density
 _atom_site_pbe_cm5_charge
 _atom_site_pbe_ddec_charge
 _atom_site_pbe_ddec_spin_density
 _atom_site_pbe_ddec_sum_bond_order
 _atom_site_pbe_magmom
Cu  Cu0  1  0.96771957  0.54431311  0.42685479  1  0.843243  0.657333  1.883041  0.475  0.830059  0.791495  2.291771  0.629  0.936469  0.884496  2.206731  0.731  1.067964  0.531645  0.679003  0.760902  0.679973  2.353416  0.529
Cu  Cu1  1  0.46771894  0.95568822  0.07314561  1  0.8432  0.657344  1.883177  0.475  0.830062  0.791494  2.291767  0.629  0.950915  0.884479  2.178674  0.731  1.067807  0.531649  0.679034  0.760974  0.679988  2.353348  0.529
Cu  Cu2  1  0.03228476  0.45569153  0.57315567  1  0.843272  -0.657329  1.882992  -0.475  0.830111  -0.791489  2.291649  -0.629  0.936498  -0.884499  2.206679  -0.731  1.068025  -0.531641  0.679027  0.761017  -0.679981  2.353249  -0.529
Cu  Cu3  1  0.53228539  0.04430985  0.92684793  1  0.843238  -0.65733  1.883033  -0.475  0.83013  -0.791503  2.291681  -0.629  0.935213  -0.884481  2.206839  -0.731  1.068044  -0.531644  0.678983  0.760916  -0.679982  2.353347  -0.529
H  H4  1  0.54293230  0.55455195  0.35821043  1  0.089088  -0.00012  0.946392  0.0  0.09685  -8.9e-05  1.009644  0.0  0.100701  -0.000101  1.005772  0.0  0.129575  -9.4e-05  0.114961  0.094036  -6.3e-05  1.012444  0.0
H  H5  1  0.04294242  0.94545126  0.14178765  1  0.089142  -0.000122  0.946314  0.0  0.096887  -8.9e-05  1.009586  0.0  0.100657  -0.000101  1.005908  0.0  0.130375  -9.4e-05  0.114987  0.094069  -6.3e-05  1.012391  0.0
H  H6  1  0.45705514  0.44545457  0.64179146  1  0.089139  0.000121  0.946352  0.0  0.096934  8.9e-05  1.009578  0.0  0.100798  0.000101  1.005685  0.0  0.130451  9.4e-05  0.115011  0.094118  6.3e-05  1.012379  0.0
H  H7  1  0.95705270  0.05454963  0.85820937  1  0.089122  0.000122  0.946376  0.0  0.096876  8.9e-05  1.009632  0.0  0.100724  0.000101  1.005739  0.0  0.130423  9.4e-05  0.114992  0.094054  6.3e-05  1.012444  0.0
H  H8  1  0.34652822  0.53267453  0.20701395  1  0.098631  1.2e-05  0.977986  0.0  0.109874  2.9e-05  1.041354  0.0  0.113432  1.1e-05  1.03984  0.0  0.080897  4.6e-05  0.102877  0.107126  4.5e-05  1.042968  0.0
H  H9  1  0.84653806  0.96732586  0.29298344  1  0.098628  1.3e-05  0.977987  0.0  0.10984  2.9e-05  1.0414  0.0  0.113393  1.1e-05  1.039877  0.0  0.080951  4.6e-05  0.102894  0.107092  4.5e-05  1.043016  0.0
H  H10  1  0.65346690  0.46733479  0.79298656  1  0.09866  -1.2e-05  0.9779  0.0  0.109879  -2.9e-05  1.04132  0.0  0.113435  -1.1e-05  1.039813  0.0  0.080881  -4.7e-05  0.102914  0.107131  -4.5e-05  1.042936  0.0
H  H11  1  0.15346781  0.03266659  0.70701497  1  0.098653  -1.2e-05  0.977913  0.0  0.109862  -2.9e-05  1.041333  0.0  0.11342  -1.1e-05  1.039817  0.0  0.080874  -4.6e-05  0.102894  0.107113  -4.5e-05  1.042947  0.0
H  H12  1  0.89630451  0.63543323  0.08325491  1  0.10436  3.4e-05  0.96045  0.0  0.116252  5e-05  1.020834  0.0  0.120399  2.8e-05  1.018783  0.0  0.095862  6e-05  0.104522  0.113331  6.8e-05  1.02239  0.0
H  H13  1  0.39630696  0.86456248  0.41674270  1  0.104426  3.5e-05  0.960373  0.0  0.116289  5e-05  1.02078  0.0  0.120441  2.7e-05  1.018732  0.0  0.095869  6e-05  0.104505  0.113366  6.8e-05  1.022337  0.0
H  H14  1  0.10370135  0.36456578  0.91674721  1  0.104351  -3.4e-05  0.960452  0.0  0.116257  -5e-05  1.020826  0.0  0.120402  -2.8e-05  1.01879  0.0  0.095813  -6e-05  0.104502  0.113336  -6.8e-05  1.022382  0.0
H  H15  1  0.60370659  0.13543185  0.58324922  1  0.104426  -3.5e-05  0.960343  0.0  0.11633  -5e-05  1.020721  0.0  0.120474  -2.8e-05  1.018685  0.0  0.096365  -6.1e-05  0.104513  0.113406  -6.9e-05  1.022279  0.0
H  H16  1  0.07565723  0.64491266  0.23877491  1  0.068118  -3e-05  0.953724  0.0  0.077725  -5.2e-05  1.016744  0.0  0.07957  -4.5e-05  1.015867  0.0  0.063939  -5.1e-05  0.111112  0.076192  -5.1e-05  1.017722  0.0
H  H17  1  0.57565786  0.85508773  0.26122595  1  0.068144  -3e-05  0.95381  0.0  0.077745  -5.2e-05  1.016825  0.0  0.079544  -4.5e-05  1.016067  0.0  0.063887  -5.1e-05  0.111121  0.07621  -5.1e-05  1.017804  0.0
H  H18  1  0.92434249  0.35509010  0.76123022  1  0.06816  3.1e-05  0.953817  0.0  0.077736  5.2e-05  1.016851  0.0  0.079579  4.5e-05  1.015985  0.0  0.063906  5.1e-05  0.111111  0.076202  5.1e-05  1.01783  0.0
H  H19  1  0.42434493  0.14491222  0.73876597  1  0.068168  3.2e-05  0.953804  0.0  0.077757  5.2e-05  1.016819  0.0  0.0796  4.5e-05  1.01595  0.0  0.063924  5.1e-05  0.111114  0.076223  5.1e-05  1.017799  0.0
H  H20  1  0.32927384  0.59140557  0.05277887  1  0.079668  0.0  0.921119  0.0  0.099133  1e-06  0.977884  0.0  0.100378  -4e-06  0.977709  0.0  0.02059  2.2e-05  0.094078  0.098156  5e-06  0.97819  0.0
H  H21  1  0.82927601  0.90859576  0.44721666  1  0.079648  1e-06  0.921168  0.0  0.099139  1e-06  0.977926  0.0  0.100388  -4e-06  0.977747  0.0  0.020633  2.2e-05  0.094089  0.098159  5e-06  0.97823  0.0
H  H22  1  0.67072896  0.40859344  0.94721769  1  0.079657  -0.0  0.921133  0.0  0.099124  -1e-06  0.977898  0.0  0.100374  4e-06  0.977716  0.0  0.020546  -2.1e-05  0.094091  0.098148  -5e-06  0.978199  0.0
H  H23  1  0.17073754  0.09140232  0.55278175  1  0.079712  -2e-06  0.921102  0.0  0.099171  -1e-06  0.977833  0.0  0.100419  4e-06  0.977656  0.0  0.020518  -2.1e-05  0.094105  0.098188  -5e-06  0.978143  0.0
H  H24  1  0.55422582  0.63519322  0.00350371  1  0.09641  1.6e-05  0.956469  0.0  0.113792  3e-05  1.015828  0.0  0.116333  -1e-06  1.015076  0.0  0.084587  2.2e-05  0.096337  0.111931  5.5e-05  1.0165  0.0
H  H25  1  0.05422212  0.86480249  0.49649182  1  0.096437  1.5e-05  0.95644  0.0  0.113875  3e-05  1.015746  0.0  0.11644  -1e-06  1.014931  0.0  0.0846  2.1e-05  0.096345  0.112006  5.4e-05  1.016416  0.0
H  H26  1  0.44578158  0.36480298  0.99649354  1  0.096448  -1.5e-05  0.956467  0.0  0.113859  -3e-05  1.015791  0.0  0.116425  1e-06  1.014968  0.0  0.084614  -2.1e-05  0.096362  0.111993  -5.4e-05  1.016461  0.0
H  H27  1  0.94578836  0.13519465  0.50350567  1  0.096525  -1.3e-05  0.95644  0.0  0.113897  -3e-05  1.015768  0.0  0.116461  1e-06  1.014955  0.0  0.084657  -2.1e-05  0.096385  0.112032  -5.4e-05  1.016439  0.0
H  H28  1  0.51380075  0.70703477  0.72331186  1  0.112032  0.00085  0.929219  0.001  0.125556  0.000562  0.988191  0.001  0.127565  0.000402  0.987542  0.001  0.088279  0.0014  0.103049  0.123991  0.000608  0.988789  0.001
H  H29  1  0.01380473  0.79296750  0.77668877  1  0.112013  0.000849  0.929259  0.001  0.125521  0.000562  0.988241  0.001  0.127529  0.000402  0.987576  0.001  0.088273  0.0014  0.103051  0.123955  0.000608  0.988834  0.001
H  H30  1  0.48619283  0.29296612  0.27669628  1  0.112077  -0.000848  0.929122  -0.001  0.125568  -0.000562  0.988114  -0.001  0.127576  -0.000402  0.987455  -0.001  0.08842  -0.001402  0.103064  0.124006  -0.000608  0.98871  -0.001
H  H31  1  0.98618731  0.20703339  0.22330617  1  0.112048  -0.000848  0.929205  -0.001  0.125583  -0.000562  0.988171  -0.001  0.127593  -0.000402  0.987471  -0.001  0.088361  -0.001402  0.103073  0.124022  -0.000608  0.988763  -0.001
H  H32  1  0.67186092  0.82699445  0.70959674  1  0.120867  0.000475  0.9291  0.001  0.133019  0.00034  0.98914  0.0  0.133996  0.000226  0.990381  0.0  0.096132  0.000698  0.107059  0.132389  0.000382  0.988256  0.0
H  H33  1  0.17186490  0.67300876  0.79040274  1  0.120861  0.000476  0.929129  0.001  0.133025  0.00034  0.989135  0.0  0.134003  0.000226  0.990366  0.0  0.096153  0.000698  0.10706  0.132394  0.000382  0.988247  0.0
H  H34  1  0.32813266  0.17300925  0.29041836  1  0.120882  -0.000476  0.929103  -0.001  0.133035  -0.00034  0.989119  0.0  0.133986  -0.000225  0.990427  0.0  0.096036  -0.000698  0.107086  0.132405  -0.000382  0.988234  0.0
H  H35  1  0.82812254  0.32698744  0.20958339  1  0.120804  -0.000476  0.929221  -0.001  0.133007  -0.00034  0.989227  0.0  0.133986  -0.000226  0.990449  0.0  0.096034  -0.000698  0.107062  0.132376  -0.000382  0.988339  0.0
H  H36  1  0.32528355  0.85687843  0.65695917  1  0.109286  -0.000514  0.935599  -0.001  0.121951  -0.00039  0.999548  0.0  0.123273  -0.000236  0.999588  0.0  0.075785  -0.000791  0.103928  0.121148  -0.000473  0.999395  0.0
H  H37  1  0.82528726  0.64312478  0.84303960  1  0.109313  -0.000515  0.935589  -0.001  0.12197  -0.00039  0.999544  0.0  0.123295  -0.000236  0.999562  0.0  0.075821  -0.000791  0.103934  0.121166  -0.000473  0.999392  0.0
H  H38  1  0.67471156  0.14312433  0.34305291  1  0.10939  0.000513  0.935454  0.001  0.122005  0.00039  0.999425  0.0  0.12333  0.000236  0.999461  0.0  0.075429  0.00079  0.103925  0.121205  0.000473  0.999269  0.0
H  H39  1  0.17470018  0.35687798  0.15695024  1  0.109409  0.000514  0.935463  0.001  0.122037  0.000389  0.99941  0.0  0.123373  0.000236  0.999434  0.0  0.075692  0.000791  0.103942  0.121234  0.000473  0.999258  0.0
H  H40  1  0.48691778  0.81577964  0.55176760  1  0.102432  -0.000775  0.939858  -0.001  0.113297  -0.000537  1.00456  -0.001  0.115115  -0.000383  1.003587  0.0  0.067335  -0.001381  0.098219  0.111948  -0.000584  1.005273  -0.001
H  H41  1  0.98691994  0.68421888  0.94823140  1  0.102419  -0.000774  0.939847  -0.001  0.11328  -0.000537  1.004552  -0.001  0.115098  -0.000383  1.003522  0.0  0.06733  -0.001381  0.098216  0.11193  -0.000585  1.005267  -0.001
H  H42  1  0.51308348  0.18422500  0.44824355  1  0.10252  0.000776  0.939861  0.001  0.113312  0.000537  1.004627  0.001  0.115139  0.000383  1.003653  0.0  0.067122  0.00138  0.098251  0.111964  0.000584  1.005341  0.001
H  H43  1  0.01307671  0.31577263  0.05175913  1  0.102505  0.000776  0.939934  0.001  0.11332  0.000537  1.00466  0.001  0.115145  0.000383  1.00367  0.0  0.067176  0.00138  0.098265  0.111967  0.000584  1.005376  0.001
C  C44  1  0.61810418  0.56907251  0.29514205  1  0.140007  -0.000479  3.710265  0.0  0.115822  -0.000361  3.964103  0.0  0.125787  -0.000333  3.978312  0.0  0.407191  -0.000577  0.042369  0.109446  -0.000355  3.954596  0.0
C  C45  1  0.11811430  0.93092788  0.20485603  1  0.139874  -0.000451  3.710339  0.0  0.115718  -0.000361  3.964141  0.0  0.125435  -0.000332  3.979487  0.0  0.406387  -0.000577  0.042345  0.109341  -0.000355  3.954635  0.0
C  C46  1  0.38188786  0.43093212  0.70485937  1  0.139946  0.000476  3.710281  0.0  0.115724  0.000361  3.964118  0.0  0.125683  0.000334  3.978346  0.0  0.406324  0.000578  0.042371  0.109348  0.000355  3.954615  0.0
C  C47  1  0.88188542  0.06907019  0.79514030  1  0.139878  0.000461  3.710339  0.0  0.115728  0.000362  3.96413  0.0  0.12569  0.000331  3.978308  0.0  0.406463  0.000578  0.042278  0.109348  0.000355  3.954621  0.0
C  C48  1  0.50848191  0.55780989  0.20992921  1  -0.188914  0.00036  3.723772  0.0  -0.205768  0.000146  3.965588  0.0  -0.214272  0.000137  3.985257  0.0  -0.001906  0.000203  -0.090176  -0.200304  0.000155  3.952645  0.0
C  C49  1  0.00849049  0.94218957  0.29006864  1  -0.188891  0.000332  3.723833  0.0  -0.205757  0.000146  3.965692  0.0  -0.214266  0.000135  3.985307  0.0  -0.002164  0.000203  -0.090244  -0.200297  0.000154  3.952748  0.0
C  C50  1  0.49151321  0.44219569  0.79007175  1  -0.188943  -0.000359  3.723781  0.0  -0.205796  -0.000146  3.965634  0.0  -0.214303  -0.000137  3.985322  0.0  -0.001987  -0.000202  -0.090292  -0.200334  -0.000154  3.952692  0.0
C  C51  1  0.99151691  0.05780569  0.70993186  1  -0.188876  -0.000344  3.723511  0.0  -0.205726  -0.000147  3.965331  0.0  -0.21423  -0.000134  3.985014  0.0  -0.002119  -0.000201  -0.090216  -0.200266  -0.000153  3.952392  0.0
C  C52  1  0.60548364  0.57935916  0.12993570  1  0.161147  -0.000413  3.725364  0.0  0.179733  -0.000255  3.958024  0.0  0.186007  -0.000218  3.979691  0.0  -0.026092  -0.000489  0.014635  0.175655  -0.000312  3.943191  0.0
C  C53  1  0.10548915  0.92063935  0.37006191  1  0.161213  -0.000387  3.725332  0.0  0.17981  -0.000255  3.958016  0.0  0.186084  -0.000216  3.979639  0.0  -0.025802  -0.000489  0.01469  0.17573  -0.000311  3.943178  0.0
C  C54  1  0.39451609  0.42064172  0.87006410  1  0.161054  0.000413  3.725519  0.0  0.179647  0.000255  3.958178  0.0  0.185922  0.000218  3.979857  0.0  -0.025787  0.00049  0.014587  0.175569  0.000312  3.94334  0.0
C  C55  1  0.89452133  0.07935872  0.62993511  1  0.161111  0.000398  3.725387  0.0  0.179677  0.000256  3.958019  0.0  0.185952  0.000216  3.979704  0.0  -0.025737  0.000489  0.014587  0.175601  0.000311  3.943183  0.0
C  C56  1  0.81384475  0.61229764  0.14122962  1  -0.1843  0.000535  3.717994  0.0  -0.20019  0.000247  3.958365  0.0  -0.208458  0.000196  3.978183  0.0  -0.030792  0.000381  -0.089521  -0.194943  0.000294  3.945146  0.0
C  C57  1  0.31384566  0.88769994  0.35876915  1  -0.184441  0.000505  3.718131  0.0  -0.200303  0.000246  3.95848  0.0  -0.208581  0.000195  3.978249  0.0  -0.030793  0.00038  -0.089561  -0.195059  0.000294  3.945262  0.0
C  C58  1  0.18615805  0.38770231  0.85877343  1  -0.184257  -0.000534  3.717979  0.0  -0.200166  -0.000246  3.958341  0.0  -0.208428  -0.000197  3.978174  0.0  -0.030969  -0.000379  -0.089485  -0.194921  -0.000293  3.94512  0.0
C  C59  1  0.68616175  0.11229532  0.64122369  1  -0.184392  -0.000517  3.718043  0.0  -0.200316  -0.000247  3.958421  0.0  -0.208573  -0.000194  3.978256  0.0  -0.031501  -0.000379  -0.089548  -0.19507  -0.000293  3.945204  0.0
C  C60  1  0.91381539  0.61902540  0.22835197  1  0.120236  -0.000454  3.751021  0.0  0.096999  -0.000288  4.008117  0.0  0.104903  -0.000276  4.027559  0.0  0.46676  -0.000408  0.039986  0.092052  -0.000272  3.995167  0.0
C  C61  1  0.41382397  0.88097218  0.27164611  1  0.120254  -0.000429  3.750964  0.0  0.097022  -0.000288  4.008039  0.0  0.104758  -0.000275  4.028431  0.0  0.466624  -0.000409  0.040038  0.092073  -0.000273  3.995096  0.0
C  C62  1  0.08617666  0.38097174  0.77164968  1  0.120201  0.000452  3.750921  0.0  0.097007  0.000288  4.007973  0.0  0.104908  0.000277  4.027426  0.0  0.466703  0.000409  0.040031  0.092062  0.000273  3.995026  0.0
C  C63  1  0.58617729  0.11902871  0.72834675  1  0.120326  0.000436  3.750766  0.0  0.097132  0.000289  4.007819  0.0  0.105032  0.000274  4.027256  0.0  0.466625  0.000409  0.040108  0.092178  0.000273  3.994874  0.0
C  C64  1  0.49204617  0.56714306  0.03649452  1  -0.153099  0.000129  3.673803  0.0  -0.197002  7e-05  3.924175  0.0  -0.199178  2.2e-05  3.934682  0.0  0.006278  0.000185  -0.157036  -0.195308  0.00011  3.916801  0.0
C  C65  1  0.99204833  0.93285545  0.46350240  1  -0.15316  0.000125  3.673701  0.0  -0.197176  7e-05  3.924113  0.0  -0.199333  2.2e-05  3.934594  0.0  0.006244  0.000185  -0.157123  -0.195468  0.00011  3.916729  0.0
C  C66  1  0.50795816  0.43285782  0.96350459  1  -0.153153  -0.00013  3.673865  0.0  -0.197058  -7e-05  3.924197  0.0  -0.199215  -2.2e-05  3.934668  0.0  -0.016818  -0.000186  -0.157067  -0.195354  -0.00011  3.916816  0.0
C  C67  1  0.00796521  0.06713981  0.53649392  1  -0.153341  -0.000126  3.673884  0.0  -0.197131  -7e-05  3.924109  0.0  -0.199287  -2.2e-05  3.934595  0.0  -0.016851  -0.000186  -0.157086  -0.195435  -0.00011  3.91674  0.0
C  C68  1  0.73409586  0.64846874  0.60731398  1  0.689428  0.000676  3.794276  0.001  0.656974  0.000521  4.091757  0.001  0.698155  0.000526  4.085316  0.001  1.53305  0.000536  0.216424  0.628977  0.000449  4.095623  0.001
C  C69  1  0.23409370  0.85153259  0.89268503  1  0.689462  0.000676  3.79453  0.001  0.656893  0.000521  4.092167  0.001  0.69786  0.000528  4.086738  0.001  1.532687  0.000538  0.216321  0.628891  0.000449  4.096028  0.001
C  C70  1  0.26590079  0.35153684  0.39269324  1  0.689424  -0.000675  3.79443  -0.001  0.656903  -0.000522  4.091992  -0.001  0.698095  -0.000524  4.085518  -0.001  1.533159  -0.000536  0.216358  0.628875  -0.000448  4.095891  -0.001
C  C71  1  0.76590296  0.14846079  0.10730736  1  0.689466  -0.000677  3.79435  -0.001  0.656978  -0.000522  4.091913  -0.001  0.697885  -0.000525  4.086734  -0.001  1.533254  -0.000537  0.216368  0.628947  -0.000448  4.095812  -0.001
C  C72  1  0.58249879  0.74389496  0.66861213  1  -0.226545  0.001223  3.65436  0.001  -0.266786  0.000808  3.900111  0.001  -0.273188  0.00057  3.907402  0.001  -0.051067  0.001622  -0.161478  -0.261235  0.000937  3.894217  0.001
C  C73  1  0.08249816  0.75610543  0.83138803  1  -0.226562  0.001222  3.654403  0.001  -0.266757  0.000808  3.90017  0.001  -0.27316  0.000567  3.907376  0.001  -0.051232  0.001621  -0.161474  -0.261195  0.000936  3.894261  0.001
C  C74  1  0.41749786  0.25610874  0.33139740  1  -0.226424  -0.001221  3.654181  -0.001  -0.266644  -0.000806  3.899945  -0.001  -0.273046  -0.000571  3.907246  -0.001  -0.051134  -0.001619  -0.16144  -0.261078  -0.000936  3.894045  -0.001
C  C75  1  0.91749235  0.24389076  0.16860644  1  -0.226468  -0.001221  3.654287  -0.001  -0.266824  -0.000807  3.900144  -0.001  -0.273215  -0.000569  3.907324  -0.001  -0.051304  -0.00162  -0.161498  -0.261255  -0.000936  3.89424  -0.001
C  C76  1  0.41821052  0.78101578  0.60772862  1  -0.224486  -0.001091  3.664052  -0.001  -0.269077  -0.00078  3.918211  -0.001  -0.275246  -0.000534  3.926054  -0.001  -0.025625  -0.001612  -0.16039  -0.263661  -0.00095  3.911764  -0.001
C  C77  1  0.91821422  0.71898555  0.89227178  1  -0.224461  -0.00109  3.664068  -0.001  -0.269078  -0.00078  3.918217  -0.001  -0.275256  -0.000537  3.925944  -0.001  -0.025651  -0.001615  -0.160402  -0.263664  -0.000952  3.911773  -0.001
C  C78  1  0.58178767  0.21898886  0.39228184  1  -0.224813  0.001094  3.664289  0.001  -0.269336  0.00078  3.918327  0.001  -0.275546  0.000537  3.926193  0.001  -0.025118  0.001616  -0.160466  -0.263918  0.000952  3.911884  0.001
C  C79  1  0.08178089  0.28101065  0.10772200  1  -0.224667  0.001093  3.66428  0.001  -0.269175  0.00078  3.918311  0.001  -0.275385  0.000537  3.926099  0.001  -0.025414  0.001616  -0.160396  -0.263757  0.000952  3.911868  0.001
C  C80  1  0.26911544  0.67519603  0.55934466  1  0.690113  -0.00149  3.793435  -0.002  0.655171  -0.000959  4.094262  -0.002  0.696068  -0.000965  4.088141  -0.002  1.537106  -0.000993  0.216541  0.627362  -0.000831  4.097851  -0.002
C  C81  1  0.76911761  0.82480436  0.94065482  1  0.690078  -0.001488  3.793518  -0.002  0.655203  -0.000959  4.094258  -0.002  0.695797  -0.000963  4.089533  -0.002  1.53709  -0.000992  0.216537  0.627385  -0.00083  4.097857  -0.002
C  C82  1  0.73088275  0.32480861  0.44066442  1  0.690105  0.001487  3.794031  0.002  0.655351  0.000959  4.094551  0.002  0.696265  0.000963  4.088421  0.002  1.536591  0.000994  0.216504  0.627524  0.000832  4.098166  0.002
C  C83  1  0.23087904  0.17519277  0.05934197  1  0.690033  0.001487  3.793897  0.002  0.655233  0.000959  4.094518  0.002  0.695965  0.000964  4.089236  0.002  1.537019  0.000993  0.216526  0.62741  0.000832  4.098118  0.002
N  N84  1  0.81992848  0.59684235  0.30451288  1  -0.326951  -0.001052  3.205973  0.0  -0.282196  -0.00077  3.489915  0.0  -0.303912  -0.000786  3.504606  0.0  -1.211047  -0.001418  -0.33977  -0.268261  -0.000684  3.481276  0.0
N  N85  1  0.31993553  0.90315992  0.19548497  1  -0.326867  -0.001073  3.20594  0.0  -0.282103  -0.00077  3.489833  0.0  -0.30593  -0.00079  3.504245  0.0  -1.211028  -0.001418  -0.339776  -0.268182  -0.000684  3.481203  0.0
N  N86  1  0.18006818  0.40316229  0.69548994  1  -0.326921  0.001053  3.205988  0.0  -0.282137  0.000771  3.489897  0.0  -0.303851  0.000786  3.504602  0.0  -1.211  0.001419  -0.339795  -0.268214  0.000684  3.481268  0.0
N  N87  1  0.68006573  0.09684003  0.80450904  1  -0.326941  0.001064  3.205953  0.0  -0.282205  0.00077  3.489881  0.0  -0.303905  0.000788  3.504584  0.0  -1.210943  0.001417  -0.339773  -0.268258  0.000683  3.481237  0.0
O  O88  1  0.76916369  0.65312923  0.52146748  1  -0.579548  0.069684  2.088343  0.092  -0.555238  0.048568  2.365334  0.07  -0.600809  0.038681  2.35863  0.059  -1.117359  0.076991  -0.314242  -0.525083  0.050111  2.37037  0.07
O  O89  1  0.26915998  0.84687679  0.97853199  1  -0.579528  0.069678  2.088464  0.092  -0.555184  0.048564  2.365491  0.07  -0.602919  0.038679  2.357277  0.059  -1.117287  0.076986  -0.31419  -0.525039  0.050108  2.370523  0.07
O  O90  1  0.23083757  0.34687541  0.47854159  1  -0.579593  -0.069689  2.088523  -0.092  -0.555238  -0.04857  2.365508  -0.07  -0.600814  -0.038682  2.358817  -0.059  -1.117403  -0.076995  -0.314201  -0.525078  -0.050113  2.370554  -0.07
O  O91  1  0.73084128  0.15312129  0.02145947  1  -0.579554  -0.069688  2.088548  -0.092  -0.555198  -0.04857  2.3655  -0.07  -0.601039  -0.038682  2.359647  -0.059  -1.117354  -0.076996  -0.314164  -0.525019  -0.050113  2.37054  -0.07
O  O92  1  0.81661553  0.57397489  0.64742985  1  -0.574516  -0.0775  2.057601  -0.103  -0.551081  -0.053666  2.338786  -0.078  -0.596716  -0.042578  2.332343  -0.066  -1.115168  -0.084733  -0.313372  -0.521354  -0.055007  2.344037  -0.077
O  O93  1  0.31661950  0.92602363  0.85256846  1  -0.574558  -0.077506  2.057783  -0.103  -0.55107  -0.053667  2.339003  -0.078  -0.596835  -0.042578  2.333092  -0.066  -1.114729  -0.084741  -0.313323  -0.52132  -0.055011  2.344241  -0.077
O  O94  1  0.18338573  0.42603443  0.35258386  1  -0.574521  0.077495  2.057833  0.103  -0.550979  0.053665  2.338909  0.078  -0.596665  0.042578  2.332556  0.066  -1.115064  0.08473  -0.313344  -0.521245  0.055006  2.344197  0.077
O  O95  1  0.68338483  0.07396320  0.14741674  1  -0.574532  0.077504  2.057783  0.103  -0.551004  0.053669  2.338799  0.078  -0.598842  0.042579  2.331076  0.066  -1.115062  0.084738  -0.31338  -0.521281  0.055011  2.344087  0.077
O  O96  1  0.18777996  0.67317751  0.47828085  1  -0.568512  0.078956  2.060197  0.105  -0.546693  0.054573  2.337896  0.08  -0.592218  0.043231  2.331293  0.067  -1.107154  0.086062  -0.309766  -0.516882  0.055727  2.343197  0.078
O  O97  1  0.68777906  0.82682476  0.02171908  1  -0.568524  0.078958  2.060225  0.105  -0.546726  0.054575  2.337871  0.08  -0.594405  0.043233  2.329984  0.067  -1.107086  0.086067  -0.309745  -0.516923  0.05573  2.343179  0.078
O  O98  1  0.81221822  0.32682712  0.52173100  1  -0.568536  -0.078957  2.060287  -0.105  -0.546821  -0.054571  2.337923  -0.08  -0.59235  -0.043228  2.331323  -0.067  -1.106649  -0.086065  -0.309766  -0.517012  -0.055727  2.343234  -0.078
O  O99  1  0.31221299  0.17317051  0.97827446  1  -0.568467  -0.078955  2.060107  -0.105  -0.546777  -0.054569  2.337807  -0.08  -0.592394  -0.043226  2.331612  -0.067  -1.106961  -0.086062  -0.309758  -0.516947  -0.055726  2.343101  -0.078
O  O100  1  0.23304621  0.59890680  0.60635642  1  -0.598157  -0.065091  2.146576  -0.086  -0.568197  -0.046228  2.428917  -0.067  -0.614209  -0.037091  2.424598  -0.057  -1.123639  -0.072597  -0.309336  -0.537637  -0.047361  2.432368  -0.066
O  O101  1  0.73304837  0.90109547  0.89364490  1  -0.598153  -0.065095  2.146661  -0.086  -0.568223  -0.046228  2.428971  -0.067  -0.614558  -0.037092  2.425551  -0.057  -1.123648  -0.0726  -0.309351  -0.537639  -0.047363  2.432416  -0.066
O  O102  1  0.76696120  0.40109408  0.39365381  1  -0.598165  0.065091  2.146987  0.086  -0.568273  0.046227  2.429241  0.067  -0.614268  0.03709  2.424868  0.057  -1.123527  0.072594  -0.309321  -0.537712  0.04736  2.432735  0.066
O  O103  1  0.26696210  0.09891011  0.10635397  1  -0.598153  0.065091  2.146949  0.086  -0.568247  0.046227  2.429178  0.067  -0.616327  0.03709  2.423349  0.057  -1.123545  0.072598  -0.309383  -0.53769  0.047361  2.432655  0.066
