# generated using pymatgen
data_NaH6C8N3O2
_symmetry_space_group_name_H-M   'P 1'
_cell_length_a   3.48642166
_cell_length_b   8.23349025
_cell_length_c   27.09835189
_cell_angle_alpha   89.99975688
_cell_angle_beta   90.00179929
_cell_angle_gamma   90.00038203
_symmetry_Int_Tables_number   1
_chemical_formula_structural   NaH6C8N3O2
_chemical_formula_sum   'Na4 H24 C32 N12 O8'
_cell_volume   777.86953850
_cell_formula_units_Z   4
loop_
 _symmetry_equiv_pos_site_id
 _symmetry_equiv_pos_as_xyz
  1  'x, y, z'
loop_
 _atom_site_type_symbol
 _atom_site_label
 _atom_site_symmetry_multiplicity
 _atom_site_fract_x
 _atom_site_fract_y
 _atom_site_fract_z
 _atom_site_occupancy
 _atom_site_hle17_bader_spin_density
 _atom_site_hle17_ddec_charge
 _atom_site_hle17_ddec_spin_density
 _atom_site_hle17_ddec_sum_bond_order
 _atom_site_hle17_magmom
 _atom_site_hse06_10hf_bader_spin_density
 _atom_site_hse06_10hf_ddec_charge
 _atom_site_hse06_10hf_ddec_spin_density
 _atom_site_hse06_10hf_ddec_sum_bond_order
 _atom_site_hse06_10hf_magmom
 _atom_site_hse06_bader_spin_density
 _atom_site_hse06_ddec_charge
 _atom_site_hse06_ddec_spin_density
 _atom_site_hse06_ddec_sum_bond_order
 _atom_site_hse06_magmom
 _atom_site_pbe_bader_spin_density
 _atom_site_pbe_cm5_charge
 _atom_site_pbe_ddec_charge
 _atom_site_pbe_ddec_spin_density
 _atom_site_pbe_ddec_sum_bond_order
 _atom_site_pbe_magmom
Na  Na0  1  0.91812376  0.99842574  0.05274988  1  0  0.911585  0  0.34992  0  0  0.856794  0  0.507801  0  0  0.868526  0  0.486486  0  0  0.670245  0.848275  0  0.522889  0
Na  Na1  1  0.08188366  0.49842610  0.94724971  1  0  0.911605  0  0.349874  0  0  0.85681  0  0.507729  0  0  0.868552  0  0.486426  0  0  0.670249  0.848292  0  0.522816  0
Na  Na2  1  0.41813241  0.49842405  0.44725026  1  0  0.911618  0  0.349857  0  0  0.856782  0  0.507779  0  0  0.868528  0  0.486471  0  0  0.670249  0.848261  0  0.522864  0
Na  Na3  1  0.58185493  0.99843508  0.55275117  1  0  0.911587  0  0.349905  0  0  0.856783  0  0.5078  0  0  0.868518  0  0.486489  0  0  0.670234  0.84826  0  0.522885  0
H  H4  1  0.52366927  0.68736171  0.01149508  1  0  0.281867  0  0.94586  0  0  0.256199  0  1.022719  0  0  0.267626  0  1.011728  0  0  0.316992  0.248075  0  1.030588  0
H  H5  1  0.47634803  0.18736028  0.98850380  1  0  0.281799  0  0.945954  0  0  0.256121  0  1.022824  0  0  0.267549  0  1.011834  0  0  0.316947  0.247997  0  1.030698  0
H  H6  1  0.02365607  0.18736673  0.48850528  1  0  0.281791  0  0.945916  0  0  0.256116  0  1.022798  0  0  0.267547  0  1.011801  0  0  0.316941  0.247987  0  1.030674  0
H  H7  1  0.97633255  0.68736620  0.51149581  1  0  0.281779  0  0.945952  0  0  0.256103  0  1.022824  0  0  0.267533  0  1.011833  0  0  0.316931  0.247978  0  1.030698  0
H  H8  1  0.13829361  0.81951627  0.21792519  1  0  0.302517  0  0.923496  0  0  0.29232  0  0.983512  0  0  0.297264  0  0.980899  0  0  0.297215  0.2888  0  0.985383  0
H  H9  1  0.86169403  0.31951648  0.78207499  1  0  0.302619  0  0.923456  0  0  0.29241  0  0.983495  0  0  0.297355  0  0.980875  0  0  0.297273  0.28889  0  0.985369  0
H  H10  1  0.63831168  0.31950628  0.28207179  1  0  0.302555  0  0.923481  0  0  0.292322  0  0.98355  0  0  0.297265  0  0.980938  0  0  0.297229  0.288802  0  0.98542  0
H  H11  1  0.36170178  0.81953133  0.71792766  1  0  0.302555  0  0.923446  0  0  0.292321  0  0.983526  0  0  0.297266  0  0.980908  0  0  0.297196  0.288801  0  0.985398  0
H  H12  1  0.30967464  0.85690692  0.15840014  1  0  0.322612  0  0.936923  0  0  0.309445  0  0.99455  0  0  0.317622  0  0.987084  0  0  0.296732  0.303664  0  0.999733  0
H  H13  1  0.69031641  0.35690942  0.84159815  1  0  0.322747  0  0.936722  0  0  0.309509  0  0.994452  0  0  0.317688  0  0.986984  0  0  0.296772  0.303728  0  0.999638  0
H  H14  1  0.80969811  0.35690460  0.34159678  1  0  0.322842  0  0.936531  0  0  0.309575  0  0.994308  0  0  0.317753  0  0.98684  0  0  0.296807  0.303793  0  0.999497  0
H  H15  1  0.19031589  0.85692024  0.65840336  1  0  0.322757  0  0.936845  0  0  0.30946  0  0.994639  0  0  0.317637  0  0.98718  0  0  0.296767  0.30368  0  0.999823  0
H  H16  1  0.14345833  0.53995538  0.25053770  1  0  0.094465  0  0.958615  0  0  0.108175  0  1.017444  0  0  0.11153  0  1.016166  0  0  0.098067  0.10581  0  1.018451  0
H  H17  1  0.85652244  0.03995361  0.74946358  1  0  0.09436  0  0.95892  0  0  0.108097  0  1.017714  0  0  0.111452  0  1.016435  0  0  0.098027  0.105731  0  1.018722  0
H  H18  1  0.64348881  0.03994828  0.24946077  1  0  0.094379  0  0.958908  0  0  0.108128  0  1.017711  0  0  0.111486  0  1.016428  0  0  0.098022  0.105764  0  1.018719  0
H  H19  1  0.35652639  0.53996921  0.75054051  1  0  0.094477  0  0.95858  0  0  0.108201  0  1.017399  0  0  0.111558  0  1.016116  0  0  0.098064  0.105836  0  1.018409  0
H  H20  1  0.14613852  0.24873760  0.22989531  1  0  0.075093  0  0.983094  0  0  0.085714  0  1.048481  0  0  0.088473  0  1.046293  0  0  0.095386  0.083742  0  1.050015  0
H  H21  1  0.85385385  0.74873550  0.77010165  1  0  0.075005  0  0.983149  0  0  0.08565  0  1.048514  0  0  0.088407  0  1.046328  0  0  0.095361  0.083685  0  1.050031  0
H  H22  1  0.64615233  0.74872775  0.27010069  1  0  0.075001  0  0.983082  0  0  0.085658  0  1.04843  0  0  0.088419  0  1.046238  0  0  0.095371  0.083688  0  1.049962  0
H  H23  1  0.35383430  0.24875142  0.72990106  1  0  0.075068  0  0.983115  0  0  0.085718  0  1.048471  0  0  0.088474  0  1.04628  0  0  0.095407  0.083754  0  1.049979  0
H  H24  1  0.28880407  0.15567218  0.14358968  1  0  0.095294  0  0.961385  0  0  0.105595  0  1.023663  0  0  0.110627  0  1.01998  0  0  0.106104  0.10199  0  1.026415  0
H  H25  1  0.71119556  0.65567572  0.85640850  1  0  0.095317  0  0.961482  0  0  0.105625  0  1.02374  0  0  0.110658  0  1.020056  0  0  0.106119  0.10202  0  1.026491  0
H  H26  1  0.78880951  0.65566962  0.35640925  1  0  0.095292  0  0.961459  0  0  0.105599  0  1.023722  0  0  0.110634  0  1.020035  0  0  0.106105  0.101997  0  1.026473  0
H  H27  1  0.21118726  0.15568556  0.64359373  1  0  0.095166  0  0.961464  0  0  0.105466  0  1.023758  0  0  0.110499  0  1.020074  0  0  0.106034  0.101859  0  1.026512  0
C  C28  1  0.41817242  0.34602112  0.06521089  1  0  0.468481  0  3.926169  0  0  0.43563  0  4.215385  0  0  0.456451  0  4.221221  0  0  0.20604  0.421595  0  4.210919  0
C  C29  1  0.58184429  0.84602438  0.93478889  1  0  0.468557  0  3.926311  0  0  0.435639  0  4.21555  0  0  0.456463  0  4.221372  0  0  0.206032  0.421577  0  4.211134  0
C  C30  1  0.91817335  0.84601747  0.43478907  1  0  0.468613  0  3.92624  0  0  0.435837  0  4.215294  0  0  0.456678  0  4.221088  0  0  0.206113  0.421773  0  4.21088  0
C  C31  1  0.08181754  0.34603168  0.56521181  1  0  0.468397  0  3.926198  0  0  0.435616  0  4.215405  0  0  0.456441  0  4.221228  0  0  0.206  0.421581  0  4.210948  0
C  C32  1  0.42273800  0.68141337  0.08757515  1  0  0.500215  0  3.872288  0  0  0.451763  0  4.161946  0  0  0.479289  0  4.164254  0  0  0.215717  0.433419  0  4.159823  0
C  C33  1  0.57726200  0.18141574  0.91242411  1  0  0.500313  0  3.872371  0  0  0.451806  0  4.162098  0  0  0.479325  0  4.164406  0  0  0.215781  0.433467  0  4.159971  0
C  C34  1  0.92274945  0.18141613  0.41242394  1  0  0.500142  0  3.872461  0  0  0.45167  0  4.162174  0  0  0.47919  0  4.16448  0  0  0.215723  0.433326  0  4.160047  0
C  C35  1  0.07724482  0.68142269  0.58757642  1  0  0.500341  0  3.872236  0  0  0.451771  0  4.162024  0  0  0.479297  0  4.164343  0  0  0.215718  0.433427  0  4.159899  0
C  C36  1  0.35768377  0.56720626  0.12750113  1  0  -0.179938  0  3.695402  0  0  -0.164459  0  3.926054  0  0  -0.175928  0  3.948867  0  0  -0.016082  -0.157157  0  3.911025  0
C  C37  1  0.64230599  0.06720453  0.87249680  1  0  -0.17992  0  3.695248  0  0  -0.164484  0  3.925917  0  0  -0.175951  0  3.94873  0  0  -0.016114  -0.157178  0  3.910874  0
C  C38  1  0.85770304  0.06720229  0.37249636  1  0  -0.179896  0  3.695127  0  0  -0.16449  0  3.92587  0  0  -0.175955  0  3.948679  0  0  -0.016081  -0.157188  0  3.91084  0
C  C39  1  0.14229820  0.56722186  0.62750489  1  0  -0.180054  0  3.695132  0  0  -0.164485  0  3.925736  0  0  -0.175956  0  3.948551  0  0  -0.016058  -0.157183  0  3.91071  0
C  C40  1  0.28283670  0.62019426  0.17680024  1  0  0.328377  0  3.796554  0  0  0.31695  0  4.044794  0  0  0.330103  0  4.063458  0  0  0.112359  0.308097  0  4.032125  0
C  C41  1  0.71715956  0.12019953  0.82319761  1  0  0.328305  0  3.796477  0  0  0.316891  0  4.044703  0  0  0.330044  0  4.063367  0  0  0.112402  0.308036  0  4.032038  0
C  C42  1  0.78285871  0.12019584  0.32319576  1  0  0.328386  0  3.796515  0  0  0.316969  0  4.044762  0  0  0.33012  0  4.063433  0  0  0.112443  0.308116  0  4.032093  0
C  C43  1  0.21715190  0.62021131  0.67680395  1  0  0.328266  0  3.796608  0  0  0.316981  0  4.044611  0  0  0.330132  0  4.063287  0  0  0.112398  0.308127  0  4.031945  0
C  C44  1  0.20638921  0.50149696  0.21282744  1  0  -0.210313  0  3.739859  0  0  -0.230199  0  3.997769  0  0  -0.238143  0  4.017347  0  0  -0.111894  -0.225028  0  3.984776  0
C  C45  1  0.79361109  0.00149082  0.78717020  1  0  -0.210206  0  3.739858  0  0  -0.230127  0  3.99776  0  0  -0.23807  0  4.017337  0  0  -0.111906  -0.224959  0  3.984772  0
C  C46  1  0.70639987  0.00148690  0.28716839  1  0  -0.210357  0  3.739858  0  0  -0.230287  0  3.997762  0  0  -0.238233  0  4.017339  0  0  -0.111972  -0.225117  0  3.98477  0
C  C47  1  0.29361190  0.50150453  0.71283147  1  0  -0.210227  0  3.739817  0  0  -0.230166  0  3.997666  0  0  -0.238109  0  4.017244  0  0  -0.111887  -0.225  0  3.984681  0
C  C48  1  0.20877590  0.33686092  0.20093938  1  0  -0.045571  0  3.836165  0  0  -0.060408  0  4.093278  0  0  -0.056478  0  4.111654  0  0  -0.094047  -0.062744  0  4.080736  0
C  C49  1  0.79122633  0.83686307  0.79905931  1  0  -0.045343  0  3.836101  0  0  -0.060195  0  4.093215  0  0  -0.056263  0  4.111592  0  0  -0.093923  -0.06253  0  4.080678  0
C  C50  1  0.70878792  0.83685430  0.29905935  1  0  -0.04533  0  3.836065  0  0  -0.060195  0  4.093184  0  0  -0.056261  0  4.111557  0  0  -0.093938  -0.062531  0  4.080642  0
C  C51  1  0.29119711  0.33687576  0.70094487  1  0  -0.045592  0  3.836087  0  0  -0.060451  0  4.093211  0  0  -0.056517  0  4.111582  0  0  -0.09404  -0.062785  0  4.080677  0
C  C52  1  0.28601817  0.28397371  0.15325660  1  0  -0.121015  0  3.768997  0  0  -0.148172  0  4.02766  0  0  -0.153597  0  4.046653  0  0  -0.10134  -0.144652  0  4.014997  0
C  C53  1  0.71397757  0.78397132  0.84674215  1  0  -0.121225  0  3.769089  0  0  -0.148442  0  4.027753  0  0  -0.153865  0  4.046738  0  0  -0.101478  -0.144926  0  4.015096  0
C  C54  1  0.78602993  0.78396643  0.34674179  1  0  -0.121117  0  3.769119  0  0  -0.14831  0  4.027793  0  0  -0.153735  0  4.04678  0  0  -0.101403  -0.144796  0  4.01514  0
C  C55  1  0.21397154  0.28398953  0.65325918  1  0  -0.120937  0  3.768887  0  0  -0.14806  0  4.02763  0  0  -0.153483  0  4.046624  0  0  -0.101305  -0.144542  0  4.014965  0
C  C56  1  0.35676914  0.39882452  0.11632786  1  0  -0.013912  0  3.75587  0  0  -0.001539  0  3.985548  0  0  0.000592  0  4.0057  0  0  -0.00445  -0.002867  0  3.972012  0
C  C57  1  0.64323398  0.89882383  0.88367222  1  0  -0.013979  0  3.755874  0  0  -0.001472  0  3.985396  0  0  0.000659  0  4.005544  0  0  -0.004441  -0.002792  0  3.971869  0
C  C58  1  0.85677239  0.89882037  0.38367252  1  0  -0.013966  0  3.755885  0  0  -0.001554  0  3.9855  0  0  0.000575  0  4.005641  0  0  -0.004463  -0.002874  0  3.971976  0
C  C59  1  0.14322213  0.39883041  0.61632978  1  0  -0.013775  0  3.755469  0  0  -0.001601  0  3.985389  0  0  0.000529  0  4.005545  0  0  -0.004511  -0.002928  0  3.971856  0
N  N60  1  0.47710049  0.45438134  0.02961026  1  0  -0.405519  0  3.010796  0  0  -0.393324  0  3.308813  0  0  -0.404216  0  3.318769  0  0  -0.301583  -0.385999  0  3.302189  0
N  N61  1  0.52292637  0.95438392  0.97039049  1  0  -0.405594  0  3.010977  0  0  -0.393386  0  3.308999  0  0  -0.404285  0  3.318953  0  0  -0.301609  -0.386052  0  3.302383  0
N  N62  1  0.97708972  0.95437962  0.47039203  1  0  -0.405618  0  3.010617  0  0  -0.393448  0  3.308602  0  0  -0.404344  0  3.318548  0  0  -0.301597  -0.386115  0  3.301987  0
N  N63  1  0.02289986  0.45439050  0.52961130  1  0  -0.40555  0  3.010881  0  0  -0.393351  0  3.308855  0  0  -0.404238  0  3.318809  0  0  -0.301548  -0.386026  0  3.302231  0
N  N64  1  0.48169241  0.61505552  0.04265450  1  0  -0.267539  0  3.493216  0  0  -0.211755  0  3.748569  0  0  -0.228924  0  3.760908  0  0  -0.303297  -0.200415  0  3.740306  0
N  N65  1  0.51832672  0.11505223  0.95734447  1  0  -0.267464  0  3.493489  0  0  -0.211656  0  3.748858  0  0  -0.228806  0  3.761166  0  0  -0.303304  -0.200322  0  3.740591  0
N  N66  1  0.98168861  0.11505523  0.45734566  1  0  -0.267444  0  3.493171  0  0  -0.21165  0  3.748539  0  0  -0.22882  0  3.760882  0  0  -0.303278  -0.200308  0  3.740268  0
N  N67  1  0.01830184  0.61506345  0.54265552  1  0  -0.267487  0  3.493253  0  0  -0.211661  0  3.748628  0  0  -0.228838  0  3.760975  0  0  -0.303304  -0.200324  0  3.740369  0
N  N68  1  0.29512978  0.78211338  0.18853557  1  0  -0.659572  0  3.117804  0  0  -0.624857  0  3.341539  0  0  -0.645478  0  3.341973  0  0  -0.593464  -0.610246  0  3.340824  0
N  N69  1  0.70486307  0.28211027  0.81146245  1  0  -0.659733  0  3.117835  0  0  -0.624967  0  3.341607  0  0  -0.645583  0  3.342033  0  0  -0.593538  -0.610362  0  3.340897  0
N  N70  1  0.79515763  0.28210905  0.31146065  1  0  -0.659819  0  3.117691  0  0  -0.624994  0  3.341541  0  0  -0.645593  0  3.341934  0  0  -0.59357  -0.610384  0  3.340825  0
N  N71  1  0.20486103  0.78213039  0.68853811  1  0  -0.6597  0  3.117761  0  0  -0.624902  0  3.341548  0  0  -0.645511  0  3.341955  0  0  -0.593486  -0.610295  0  3.340833  0
O  O72  1  0.41047729  0.19322086  0.05386674  1  0  -0.752066  0  2.001976  0  0  -0.704406  0  2.255027  0  0  -0.726645  0  2.244582  0  0  -0.461073  -0.688448  0  2.261473  0
O  O73  1  0.58954010  0.69322884  0.94613102  1  0  -0.75205  0  2.002143  0  0  -0.704363  0  2.255155  0  0  -0.726615  0  2.244748  0  0  -0.461028  -0.688384  0  2.261578  0
O  O74  1  0.91047228  0.69322191  0.44613228  1  0  -0.752079  0  2.002085  0  0  -0.70442  0  2.255036  0  0  -0.72668  0  2.244627  0  0  -0.461086  -0.688437  0  2.261456  0
O  O75  1  0.08951642  0.19322901  0.55387065  1  0  -0.752009  0  2.002028  0  0  -0.704322  0  2.254986  0  0  -0.726575  0  2.244567  0  0  -0.461023  -0.688348  0  2.261391  0
O  O76  1  0.42365174  0.83701442  0.09189081  1  0  -0.725039  0  1.957012  0  0  -0.679446  0  2.20536  0  0  -0.69868  0  2.192396  0  0  -0.427616  -0.665894  0  2.213747  0
O  O77  1  0.57635337  0.33700956  0.90810751  1  0  -0.725105  0  1.957151  0  0  -0.679457  0  2.205482  0  0  -0.698711  0  2.192568  0  0  -0.427627  -0.665911  0  2.213871  0
O  O78  1  0.92367651  0.33700995  0.40810735  1  0  -0.725014  0  1.957225  0  0  -0.679337  0  2.205509  0  0  -0.698602  0  2.192633  0  0  -0.427612  -0.665787  0  2.213897  0
O  O79  1  0.07631999  0.83702496  0.59189208  1  0  -0.725072  0  1.956895  0  0  -0.67942  0  2.20532  0  0  -0.698646  0  2.192334  0  0  -0.427593  -0.665871  0  2.213706  0
