# generated using pymatgen
data_FeH6C14(N4O)2
_symmetry_space_group_name_H-M   'P 1'
_cell_length_a   7.78434835
_cell_length_b   8.88064054
_cell_length_c   11.28022496
_cell_angle_alpha   89.99987615
_cell_angle_beta   101.59526072
_cell_angle_gamma   89.99674674
_symmetry_Int_Tables_number   1
_chemical_formula_structural   FeH6C14(N4O)2
_chemical_formula_sum   'Fe2 H12 C28 N16 O4'
_cell_volume   763.88765239
_cell_formula_units_Z   2
loop_
 _symmetry_equiv_pos_site_id
 _symmetry_equiv_pos_as_xyz
  1  'x, y, z'
loop_
 _atom_site_type_symbol
 _atom_site_label
 _atom_site_symmetry_multiplicity
 _atom_site_fract_x
 _atom_site_fract_y
 _atom_site_fract_z
 _atom_site_occupancy
 _atom_site_hle17_bader_spin_density
 _atom_site_hle17_ddec_charge
 _atom_site_hle17_ddec_spin_density
 _atom_site_hle17_ddec_sum_bond_order
 _atom_site_hle17_magmom
 _atom_site_hse06_10hf_bader_spin_density
 _atom_site_hse06_10hf_ddec_charge
 _atom_site_hse06_10hf_ddec_spin_density
 _atom_site_hse06_10hf_ddec_sum_bond_order
 _atom_site_hse06_10hf_magmom
 _atom_site_hse06_bader_spin_density
 _atom_site_hse06_ddec_charge
 _atom_site_hse06_ddec_spin_density
 _atom_site_hse06_ddec_sum_bond_order
 _atom_site_hse06_magmom
 _atom_site_pbe_bader_spin_density
 _atom_site_pbe_cm5_charge
 _atom_site_pbe_ddec_charge
 _atom_site_pbe_ddec_spin_density
 _atom_site_pbe_ddec_sum_bond_order
 _atom_site_pbe_magmom
Fe  Fe0  1  0.99999130  0.50000536  0.99999865  1  0  0.799742  0  3.456272  0  0  0.801019  0  3.942319  0  0  0.827677  0  3.88984  0  0  0.971493  0.788604  0  3.97053  0
Fe  Fe1  1  0.50000975  0.00000044  0.50000124  1  0  0.799435  0  3.456504  0  0  0.80085  0  3.942433  0  0  0.827462  0  3.889968  0  0  0.971474  0.788361  0  3.970645  0
H  H2  1  0.55779275  0.39845324  0.85481529  1  0  0.151829  0  0.937338  0  0  0.168103  0  0.99813  0  0  0.169137  0  0.999068  0  0  0.113191  0.167339  0  0.997551  0
H  H3  1  0.94225029  0.89839936  0.64520702  1  0  0.151485  0  0.937373  0  0  0.16776  0  0.998198  0  0  0.168806  0  0.999117  0  0  0.112977  0.166997  0  0.99762  0
H  H4  1  0.44219789  0.60153745  0.14517985  1  0  0.151759  0  0.937395  0  0  0.168043  0  0.998197  0  0  0.169062  0  0.999146  0  0  0.113167  0.16728  0  0.997622  0
H  H5  1  0.05773906  0.10160484  0.35478263  1  0  0.151496  0  0.937344  0  0  0.16779  0  0.998108  0  0  0.168813  0  0.999058  0  0  0.112966  0.167027  0  0.99753  0
H  H6  1  0.39748778  0.42653310  0.71775166  1  0  0.168178  0  0.951479  0  0  0.179662  0  1.018863  0  0  0.182481  0  1.016518  0  0  0.113376  0.177654  0  1.020439  0
H  H7  1  0.10254712  0.92643373  0.78226436  1  0  0.168039  0  0.951699  0  0  0.179567  0  1.019046  0  0  0.182395  0  1.016691  0  0  0.11332  0.177557  0  1.02062  0
H  H8  1  0.60249235  0.57345759  0.28224732  1  0  0.168151  0  0.951428  0  0  0.179616  0  1.018845  0  0  0.182433  0  1.016504  0  0  0.113386  0.177608  0  1.020419  0
H  H9  1  0.89743172  0.07356033  0.21772913  1  0  0.168133  0  0.9516  0  0  0.179635  0  1.018961  0  0  0.182462  0  1.016601  0  0  0.113345  0.177625  0  1.020533  0
H  H10  1  0.41333875  0.24663236  0.79266841  1  0  0.157049  0  0.932941  0  0  0.172342  0  0.994558  0  0  0.174012  0  0.994031  0  0  0.113982  0.17118  0  0.994841  0
H  H11  1  0.08671729  0.74656650  0.70730946  1  0  0.15698  0  0.932892  0  0  0.17219  0  0.994587  0  0  0.173856  0  0.994063  0  0  0.113944  0.171028  0  0.994877  0
H  H12  1  0.58664138  0.75336058  0.20733235  1  0  0.157045  0  0.932922  0  0  0.172297  0  0.994591  0  0  0.173966  0  0.994065  0  0  0.113958  0.171136  0  0.994873  0
H  H13  1  0.91326946  0.25343995  0.29267627  1  0  0.156869  0  0.932792  0  0  0.172071  0  0.994542  0  0  0.173739  0  0.994011  0  0  0.113851  0.170908  0  0.99483  0
C  C14  1  0.18331643  0.44201511  0.26047853  1  0  0.320261  0  3.801168  0  0  0.300975  0  4.074526  0  0  0.316213  0  4.093014  0  0  0.206898  0.290595  0  4.062165  0
C  C15  1  0.31666231  0.94201050  0.23952689  1  0  0.320095  0  3.800958  0  0  0.300824  0  4.074309  0  0  0.31606  0  4.092797  0  0  0.206839  0.290435  0  4.061929  0
C  C16  1  0.81667683  0.55798684  0.73951875  1  0  0.32012  0  3.80112  0  0  0.300834  0  4.074476  0  0  0.316069  0  4.092967  0  0  0.206894  0.290452  0  4.062117  0
C  C17  1  0.68334928  0.05798695  0.76048271  1  0  0.319945  0  3.800909  0  0  0.30068  0  4.074274  0  0  0.315922  0  4.092761  0  0  0.206835  0.290297  0  4.0619  0
C  C18  1  0.34170359  0.30977050  0.43464035  1  0  0.360475  0  3.747036  0  0  0.336806  0  4.021958  0  0  0.354034  0  4.037781  0  0  0.218722  0.325105  0  4.011499  0
C  C19  1  0.15826417  0.80976517  0.06536127  1  0  0.360669  0  3.747665  0  0  0.337004  0  4.022537  0  0  0.354237  0  4.038355  0  0  0.218647  0.325293  0  4.012084  0
C  C20  1  0.65829362  0.69022807  0.56535394  1  0  0.360392  0  3.747425  0  0  0.336704  0  4.022365  0  0  0.353933  0  4.038196  0  0  0.218687  0.325003  0  4.011901  0
C  C21  1  0.84173956  0.19022777  0.93464369  1  0  0.360552  0  3.747931  0  0  0.336885  0  4.022818  0  0  0.354117  0  4.038635  0  0  0.21854  0.32518  0  4.012368  0
C  C22  1  0.19862715  0.55242450  0.46186207  1  0  0.37161  0  3.948719  0  0  0.34434  0  4.226473  0  0  0.371213  0  4.225184  0  0  0.1485  0.326033  0  4.227289  0
C  C23  1  0.30134435  0.05243434  0.03814707  1  0  0.371885  0  3.947967  0  0  0.344541  0  4.225866  0  0  0.37142  0  4.224567  0  0  0.148492  0.326226  0  4.226675  0
C  C24  1  0.80137401  0.44757745  0.53812923  1  0  0.371554  0  3.948668  0  0  0.344177  0  4.226598  0  0  0.371047  0  4.225312  0  0  0.148395  0.325866  0  4.227416  0
C  C25  1  0.69869216  0.94756648  0.96186515  1  0  0.372194  0  3.947592  0  0  0.344787  0  4.225584  0  0  0.371669  0  4.224287  0  0  0.148681  0.326475  0  4.226395  0
C  C26  1  0.29836304  0.41597559  0.87456583  1  0  0.462231  0  3.637514  0  0  0.446018  0  3.927898  0  0  0.460319  0  3.942401  0  0  0.24071  0.436301  0  3.918048  0
C  C27  1  0.20166599  0.91593871  0.62545029  1  0  0.462061  0  3.637152  0  0  0.445837  0  3.927507  0  0  0.460138  0  3.942024  0  0  0.240628  0.436119  0  3.917642  0
C  C28  1  0.70162759  0.58402411  0.12543374  1  0  0.46218  0  3.637703  0  0  0.446009  0  3.928036  0  0  0.460311  0  3.942541  0  0  0.240766  0.436291  0  3.91818  0
C  C29  1  0.79832595  0.08407225  0.37455124  1  0  0.462016  0  3.637392  0  0  0.44576  0  3.927767  0  0  0.460065  0  3.942268  0  0  0.24066  0.43604  0  3.917903  0
C  C30  1  0.24709765  0.43711063  0.38565867  1  0  -0.264861  0  3.96241  0  0  -0.254697  0  4.220496  0  0  -0.273677  0  4.235291  0  0  -0.037206  -0.241942  0  4.210856  0
C  C31  1  0.25285918  0.93709024  0.11432774  1  0  -0.264853  0  3.962241  0  0  -0.254665  0  4.220384  0  0  -0.273637  0  4.235163  0  0  -0.037094  -0.241887  0  4.210703  0
C  C32  1  0.75289563  0.56290033  0.61433507  1  0  -0.264834  0  3.962495  0  0  -0.254628  0  4.220608  0  0  -0.273606  0  4.235405  0  0  -0.037231  -0.241871  0  4.210963  0
C  C33  1  0.74716422  0.06290721  0.88567910  1  0  -0.264743  0  3.962441  0  0  -0.254567  0  4.220667  0  0  -0.273544  0  4.235452  0  0  -0.037149  -0.241806  0  4.211004  0
C  C34  1  0.08174738  0.66988641  0.39807538  1  0  0.195418  0  3.618678  0  0  0.184392  0  3.897462  0  0  0.190695  0  3.908529  0  0  0.184443  0.179562  0  3.890854  0
C  C35  1  0.41821120  0.16986314  0.10192272  1  0  0.195122  0  3.618884  0  0  0.184088  0  3.897742  0  0  0.190396  0  3.908797  0  0  0.184202  0.179252  0  3.891143  0
C  C36  1  0.91826030  0.33011891  0.60192481  1  0  0.195567  0  3.61894  0  0  0.184571  0  3.897744  0  0  0.190878  0  3.908808  0  0  0.184519  0.179742  0  3.89114  0
C  C37  1  0.58181220  0.83011629  0.89808588  1  0  0.194997  0  3.619155  0  0  0.184024  0  3.898002  0  0  0.190328  0  3.909065  0  0  0.184321  0.179189  0  3.891398  0
C  C38  1  0.42558381  0.36894867  0.80593499  1  0  -0.383982  0  3.730813  0  0  -0.455653  0  3.964727  0  0  -0.458979  0  3.96733  0  0  -0.209463  -0.452961  0  3.962741  0
C  C39  1  0.07444306  0.86888795  0.69408185  1  0  -0.383309  0  3.730381  0  0  -0.454934  0  3.964217  0  0  -0.458277  0  3.966819  0  0  -0.209148  -0.452247  0  3.962237  0
C  C40  1  0.57440288  0.63104878  0.19406492  1  0  -0.383799  0  3.730727  0  0  -0.455487  0  3.964778  0  0  -0.458793  0  3.967382  0  0  -0.20943  -0.452799  0  3.962798  0
C  C41  1  0.92554496  0.13110836  0.30591469  1  0  -0.383369  0  3.730403  0  0  -0.454948  0  3.964135  0  0  -0.458274  0  3.966771  0  0  -0.209119  -0.45226  0  3.962153  0
N  N42  1  0.12243106  0.45193829  0.15727904  1  0  -0.372212  0  3.14483  0  0  -0.354954  0  3.439292  0  0  -0.371215  0  3.448178  0  0  -0.349544  -0.344889  0  3.432317  0
N  N43  1  0.37755883  0.95194399  0.34272615  1  0  -0.372088  0  3.145017  0  0  -0.354852  0  3.439506  0  0  -0.371107  0  3.448392  0  0  -0.349515  -0.34479  0  3.432534  0
N  N44  1  0.87756088  0.54807041  0.84271983  1  0  -0.372088  0  3.144889  0  0  -0.354813  0  3.439335  0  0  -0.371076  0  3.448226  0  0  -0.349493  -0.344738  0  3.432337  0
N  N45  1  0.62244882  0.04805796  0.65728113  1  0  -0.371913  0  3.144844  0  0  -0.354658  0  3.43931  0  0  -0.370913  0  3.448196  0  0  -0.349425  -0.344592  0  3.432325  0
N  N46  1  0.41322524  0.19785780  0.46919346  1  0  -0.367867  0  3.114891  0  0  -0.34831  0  3.407468  0  0  -0.365604  0  3.41577  0  0  -0.342995  -0.337455  0  3.400824  0
N  N47  1  0.08673278  0.69786069  0.03081512  1  0  -0.368042  0  3.115328  0  0  -0.34847  0  3.407868  0  0  -0.365772  0  3.416172  0  0  -0.342966  -0.337627  0  3.401241  0
N  N48  1  0.58677193  0.80214640  0.53081058  1  0  -0.367803  0  3.114797  0  0  -0.348228  0  3.407365  0  0  -0.365525  0  3.415673  0  0  -0.343006  -0.337372  0  3.400718  0
N  N49  1  0.91325262  0.30214126  0.96917928  1  0  -0.367844  0  3.115084  0  0  -0.348257  0  3.407586  0  0  -0.36556  0  3.415894  0  0  -0.342739  -0.337413  0  3.400954  0
N  N50  1  0.98615343  0.76580987  0.35607522  1  0  -0.317982  0  2.552851  0  0  -0.292284  0  2.764645  0  0  -0.296475  0  2.776653  0  0  -0.271606  -0.289821  0  2.75716  0
N  N51  1  0.51380390  0.26578391  0.14391240  1  0  -0.317687  0  2.552505  0  0  -0.291972  0  2.764293  0  0  -0.296169  0  2.776312  0  0  -0.271341  -0.289519  0  2.756813  0
N  N52  1  0.01385030  0.23420334  0.64393062  1  0  -0.318124  0  2.553246  0  0  -0.29244  0  2.765051  0  0  -0.296637  0  2.777065  0  0  -0.271676  -0.289979  0  2.757571  0
N  N53  1  0.48622218  0.73420903  0.85608062  1  0  -0.317676  0  2.553175  0  0  -0.291995  0  2.764956  0  0  -0.296186  0  2.77697  0  0  -0.271486  -0.28954  0  2.757475  0
N  N54  1  0.19303523  0.45061883  0.92877409  1  0  -0.414221  0  3.142961  0  0  -0.39958  0  3.438931  0  0  -0.419023  0  3.449771  0  0  -0.352371  -0.387136  0  3.430556  0
N  N55  1  0.30698631  0.95059227  0.57123378  1  0  -0.414078  0  3.1429  0  0  -0.399439  0  3.438891  0  0  -0.418877  0  3.449725  0  0  -0.352274  -0.386987  0  3.430501  0
N  N56  1  0.80695278  0.54938988  0.07122423  1  0  -0.414186  0  3.143094  0  0  -0.39954  0  3.439048  0  0  -0.418984  0  3.449891  0  0  -0.352412  -0.387095  0  3.430666  0
N  N57  1  0.69301217  0.04941869  0.42877133  1  0  -0.413978  0  3.143094  0  0  -0.399353  0  3.439117  0  0  -0.418788  0  3.449946  0  0  -0.352334  -0.386901  0  3.430727  0
O  O58  1  0.24179075  0.56022572  0.57406806  1  0  -0.465776  0  1.94141  0  0  -0.427687  0  2.152652  0  0  -0.44698  0  2.149212  0  0  -0.262377  -0.413854  0  2.154565  0
O  O59  1  0.25813189  0.06024890  0.92590760  1  0  -0.466118  0  1.940219  0  0  -0.427989  0  2.151502  0  0  -0.447293  0  2.148067  0  0  -0.262488  -0.414151  0  2.153412  0
O  O60  1  0.75821433  0.43977623  0.42592733  1  0  -0.465697  0  1.94173  0  0  -0.427552  0  2.153026  0  0  -0.446841  0  2.14959  0  0  -0.262254  -0.41372  0  2.154939  0
O  O61  1  0.74189935  0.93973615  0.07410831  1  0  -0.4664  0  1.940432  0  0  -0.428247  0  2.151762  0  0  -0.447553  0  2.148322  0  0  -0.262664  -0.414409  0  2.153674  0
