# generated using pymatgen
data_VH4C8O5
_symmetry_space_group_name_H-M   'P 1'
_cell_length_a   6.77727898
_cell_length_b   9.58232778
_cell_length_c   18.80723700
_cell_angle_alpha   89.99911675
_cell_angle_beta   90.00163960
_cell_angle_gamma   89.99919332
_symmetry_Int_Tables_number   1
_chemical_formula_structural   VH4C8O5
_chemical_formula_sum   'V4 H16 C32 O20'
_cell_volume   1221.38162873
_cell_formula_units_Z   4
loop_
 _symmetry_equiv_pos_site_id
 _symmetry_equiv_pos_as_xyz
  1  'x, y, z'
loop_
 _atom_site_type_symbol
 _atom_site_label
 _atom_site_symmetry_multiplicity
 _atom_site_fract_x
 _atom_site_fract_y
 _atom_site_fract_z
 _atom_site_occupancy
 _atom_site_pbe_bader_charge
 _atom_site_pbe_bader_spin_density
 _atom_site_pbe_cm5_charge
 _atom_site_pbe_ddec_charge
 _atom_site_pbe_ddec_spin_density
 _atom_site_pbe_ddec_sum_bond_order
 _atom_site_pbe_magmom
V  V0  1  0.79760011  0.27464658  0.24999518  1  2.090198  0.785991  1.413551  1.831678  0.830452  2.98799  0.797
V  V1  1  0.70241888  0.77465543  0.75000087  1  2.090053  -0.785781  1.413657  1.831605  -0.830241  2.988632  -0.797
V  V2  1  0.20240158  0.72538077  0.74999740  1  2.090285  0.785959  1.413465  1.831746  0.830401  2.987871  0.797
V  V3  1  0.29759609  0.22536253  0.25000446  1  2.090012  -0.785908  1.413604  1.831832  -0.830367  2.988246  -0.797
H  H4  1  0.30632049  0.97281584  0.42797257  1  0.124213  0.000109  0.112927  0.120611  0.000191  0.986079  0.0
H  H5  1  0.19368707  0.47280931  0.57203595  1  0.123964  -0.000109  0.112965  0.120696  -0.00019  0.986117  0.0
H  H6  1  0.69370704  0.02717248  0.92796224  1  0.12422  0.000109  0.112921  0.120739  0.000191  0.986051  0.0
H  H7  1  0.80629321  0.52715899  0.07203619  1  0.124289  -0.000109  0.112907  0.120679  -0.000191  0.986187  0.0
H  H8  1  0.69368120  0.02720108  0.57203064  1  0.123996  0.000109  0.112963  0.120669  0.000191  0.986082  0.0
H  H9  1  0.80630282  0.52721178  0.42796460  1  0.123979  -0.000109  0.113004  0.120704  -0.000191  0.985987  0.0
H  H10  1  0.30632711  0.97282148  0.07204522  1  0.124652  0.000109  0.112978  0.120631  0.000191  0.986234  0.0
H  H11  1  0.19368487  0.47279427  0.92794682  1  0.124074  -0.000109  0.112956  0.120712  -0.00019  0.986176  0.0
H  H12  1  0.70340202  0.10939706  0.44530576  1  0.112052  4.6e-05  0.110466  0.116899  -4.1e-05  0.997667  0.0
H  H13  1  0.79660252  0.60939549  0.55468408  1  0.112052  -4.6e-05  0.110503  0.116891  4.1e-05  0.997607  0.0
H  H14  1  0.29664459  0.89062306  0.94531995  1  0.112039  4.6e-05  0.110461  0.116833  -4.1e-05  0.997557  0.0
H  H15  1  0.20337049  0.39059840  0.05466685  1  0.112094  -4.6e-05  0.110439  0.116804  4.1e-05  0.997536  0.0
H  H16  1  0.29660115  0.89061777  0.55469957  1  0.112199  4.6e-05  0.110503  0.116824  -4.1e-05  0.997767  0.0
H  H17  1  0.20338589  0.39062247  0.44531541  1  0.112124  -4.6e-05  0.110506  0.116846  4.1e-05  0.997618  0.0
H  H18  1  0.70340137  0.10936151  0.05468751  1  0.112405  4.6e-05  0.110508  0.116872  -4.1e-05  0.997592  0.0
H  H19  1  0.79661202  0.60935590  0.94531296  1  0.112301  -4.6e-05  0.110506  0.1168  4.2e-05  0.997673  0.0
C  C20  1  0.01154421  0.10016203  0.35560854  1  1.535627  -0.000706  0.235031  0.629029  -0.000621  4.107608  0.0
C  C21  1  0.48842199  0.60018491  0.64438522  1  1.534342  0.000675  0.235185  0.629181  0.000587  4.106897  0.0
C  C22  1  0.98843482  0.89985884  0.85561123  1  1.534958  -0.000714  0.235224  0.629331  -0.000628  4.107521  0.0
C  C23  1  0.51158907  0.39981970  0.14438175  1  1.534758  0.000684  0.235204  0.629238  0.000598  4.107248  0.0
C  C24  1  0.98840879  0.89987054  0.64439414  1  1.535864  -0.00071  0.235204  0.629558  -0.000621  4.107175  0.0
C  C25  1  0.51157822  0.39982261  0.35562012  1  1.534911  0.000682  0.235014  0.629262  0.000596  4.107598  0.0
C  C26  1  0.01158900  0.10015390  0.14439410  1  1.535313  -0.000703  0.235259  0.629384  -0.000617  4.107327  0.0
C  C27  1  0.48844508  0.60015756  0.85560657  1  1.535807  0.000673  0.234984  0.628924  0.000592  4.107726  0.0
C  C28  1  0.00479569  0.04481109  0.42931385  1  0.001135  -0.000655  -0.009345  -0.029331  -0.000638  3.959938  0.0
C  C29  1  0.49518193  0.54486024  0.57067713  1  0.00152  0.000649  -0.009346  -0.02923  0.000632  3.959541  0.0
C  C30  1  0.99520244  0.95514066  0.92933162  1  0.001797  -0.000653  -0.009268  -0.02919  -0.000637  3.95977  0.0
C  C31  1  0.50479086  0.45515401  0.07066999  1  0.002011  0.000648  -0.009228  -0.029271  0.000632  3.959692  0.0
C  C32  1  0.99517354  0.95515261  0.57067607  1  0.000807  -0.000656  -0.009426  -0.029499  -0.00064  3.959771  0.0
C  C33  1  0.50482566  0.45515146  0.42932395  1  0.001388  0.000648  -0.009346  -0.029288  0.000632  3.95956  0.0
C  C34  1  0.00482286  0.04481677  0.07068807  1  0.00092  -0.000657  -0.009395  -0.029321  -0.000641  3.959535  0.0
C  C35  1  0.49518722  0.54484308  0.92931620  1  0.001442  0.000648  -0.009405  -0.029263  0.000632  3.959536  0.0
C  C36  1  0.17319741  0.98423807  0.45999036  1  -0.041894  5.4e-05  -0.077788  -0.091634  3.2e-05  3.962885  0.0
C  C37  1  0.32677893  0.48425417  0.54000850  1  -0.044974  -6.1e-05  -0.077861  -0.091988  -3.9e-05  3.962953  0.0
C  C38  1  0.82680018  0.01573149  0.95999745  1  -0.044701  5.3e-05  -0.077857  -0.092007  3.2e-05  3.963132  0.0
C  C39  1  0.67320473  0.51573288  0.04000638  1  -0.044869  -6e-05  -0.077834  -0.091918  -3.7e-05  3.962966  0.0
C  C40  1  0.82677182  0.01573815  0.54000275  1  -0.044923  5.5e-05  -0.077866  -0.091848  3.3e-05  3.962883  0.0
C  C41  1  0.67321096  0.51574918  0.45999737  1  -0.041286  -6e-05  -0.077888  -0.092003  -3.8e-05  3.962778  0.0
C  C42  1  0.17322807  0.98424264  0.04002011  1  -0.041736  5.6e-05  -0.077818  -0.091692  3.5e-05  3.962778  0.0
C  C43  1  0.32677631  0.48424125  0.95997822  1  -0.041082  -6e-05  -0.077813  -0.091968  -3.8e-05  3.962694  0.0
C  C44  1  0.83175881  0.06054985  0.46975518  1  -0.095004  -0.000907  -0.078145  -0.092565  -0.000819  3.963752  0.0
C  C45  1  0.66821571  0.56057958  0.53024566  1  -0.098903  0.000899  -0.078087  -0.092411  0.000813  3.96361  0.0
C  C46  1  0.16825136  0.93942670  0.96976501  1  -0.099538  -0.000908  -0.078165  -0.092577  -0.00082  3.963439  0.0
C  C47  1  0.33175242  0.43943179  0.03023365  1  -0.099446  0.0009  -0.078202  -0.092443  0.000813  3.963429  0.0
C  C48  1  0.16821190  0.93942219  0.53024165  1  -0.098938  -0.000906  -0.078043  -0.09241  -0.000818  3.963677  0.0
C  C49  1  0.33177271  0.43943421  0.46976180  1  -0.095159  0.000901  -0.078168  -0.092411  0.000813  3.963554  0.0
C  C50  1  0.83178279  0.06053804  0.03024671  1  -0.095922  -0.000904  -0.078106  -0.092474  -0.000817  3.963488  0.0
C  C51  1  0.66822123  0.56055069  0.96975360  1  -0.096369  0.000901  -0.078059  -0.092285  0.000814  3.963546  0.0
O  O52  1  0.84856893  0.14070999  0.32835727  1  -1.120425  -0.000296  -0.34634  -0.582498  -0.001633  2.366106  -0.014
O  O53  1  0.65142024  0.64074270  0.67163766  1  -1.119818  0.000293  -0.346495  -0.58258  0.00163  2.365277  0.014
O  O54  1  0.15140353  0.85929923  0.82836380  1  -1.120129  -0.000288  -0.346464  -0.582681  -0.001631  2.365727  -0.014
O  O55  1  0.34859003  0.35926209  0.17163014  1  -1.119995  0.000287  -0.346396  -0.582563  0.001628  2.365389  0.014
O  O56  1  0.15138555  0.85931215  0.67164488  1  -1.120211  -0.000283  -0.346382  -0.582705  -0.001622  2.365614  -0.014
O  O57  1  0.34858588  0.35928048  0.32837087  1  -1.120142  0.000286  -0.346415  -0.582595  0.001628  2.365609  0.014
O  O58  1  0.84860406  0.14072500  0.17163515  1  -1.120254  -0.00028  -0.346446  -0.582654  -0.001619  2.365812  -0.014
O  O59  1  0.65144265  0.64072352  0.82836349  1  -1.120098  0.000293  -0.346443  -0.582512  0.001626  2.365517  0.014
O  O60  1  0.02699973  0.33108768  0.24999469  1  -0.8457  -0.064447  -0.60884  -0.772453  -0.059932  1.787832  -0.059
O  O61  1  0.47301947  0.83104476  0.75000106  1  -0.845453  0.06439  -0.608907  -0.772324  0.059873  1.788136  0.059
O  O62  1  0.97299458  0.66896263  0.75000161  1  -0.845443  -0.064428  -0.608774  -0.772454  -0.059908  1.788235  -0.059
O  O63  1  0.52699550  0.16895024  0.25000693  1  -0.845433  0.064415  -0.60889  -0.772499  0.059897  1.788165  0.059
O  O64  1  0.17988041  0.10778508  0.32518493  1  -1.134541  0.001114  -0.349176  -0.600109  0.00274  2.357975  0.015
O  O65  1  0.32012106  0.60777738  0.67482047  1  -1.134314  -0.001126  -0.349207  -0.600145  -0.002741  2.357965  -0.015
O  O66  1  0.82010951  0.89226285  0.82517583  1  -1.13415  0.001107  -0.349253  -0.600218  0.002732  2.358164  0.015
O  O67  1  0.67990569  0.39224714  0.17481137  1  -1.134338  -0.001109  -0.349332  -0.600144  -0.002736  2.358188  -0.015
O  O68  1  0.82010063  0.89227567  0.67483157  1  -1.134518  0.001113  -0.349312  -0.60033  0.002737  2.358078  0.015
O  O69  1  0.67986145  0.39224580  0.32517317  1  -1.13434  -0.001112  -0.349098  -0.600197  -0.002732  2.358037  -0.015
O  O70  1  0.17990104  0.10772484  0.17483376  1  -1.134443  0.00112  -0.349262  -0.600295  0.002736  2.357893  0.015
O  O71  1  0.32014470  0.60776247  0.82517217  1  -1.135301  -0.001116  -0.349  -0.599994  -0.002735  2.35835  -0.015
