# generated using pymatgen
data_H22Pb(C3O)6
_symmetry_space_group_name_H-M   'P 1'
_cell_length_a   8.04708137
_cell_length_b   9.97428495
_cell_length_c   12.83461166
_cell_angle_alpha   112.80354917
_cell_angle_beta   96.21283221
_cell_angle_gamma   90.04281130
_symmetry_Int_Tables_number   1
_chemical_formula_structural   H22Pb(C3O)6
_chemical_formula_sum   'H44 Pb2 C36 O12'
_cell_volume   943.03553733
_cell_formula_units_Z   2
loop_
 _symmetry_equiv_pos_site_id
 _symmetry_equiv_pos_as_xyz
  1  'x, y, z'
loop_
 _atom_site_type_symbol
 _atom_site_label
 _atom_site_symmetry_multiplicity
 _atom_site_fract_x
 _atom_site_fract_y
 _atom_site_fract_z
 _atom_site_occupancy
 _atom_site_hle17_bader_spin_density
 _atom_site_hle17_ddec_charge
 _atom_site_hle17_ddec_spin_density
 _atom_site_hle17_ddec_sum_bond_order
 _atom_site_hle17_magmom
 _atom_site_hse06_10hf_bader_spin_density
 _atom_site_hse06_10hf_ddec_charge
 _atom_site_hse06_10hf_ddec_spin_density
 _atom_site_hse06_10hf_ddec_sum_bond_order
 _atom_site_hse06_10hf_magmom
 _atom_site_hse06_bader_spin_density
 _atom_site_hse06_ddec_charge
 _atom_site_hse06_ddec_spin_density
 _atom_site_hse06_ddec_sum_bond_order
 _atom_site_hse06_magmom
 _atom_site_pbe_bader_spin_density
 _atom_site_pbe_cm5_charge
 _atom_site_pbe_ddec_charge
 _atom_site_pbe_ddec_spin_density
 _atom_site_pbe_ddec_sum_bond_order
 _atom_site_pbe_magmom
H  H0  1  0.49968977  0.17506315  0.07390854  1  0  0.09536  0  0.947826  0  0  0.106327  0  1.006168  0  0  0.10974  0  1.004087  0  0  0.105871  0.10401  0  1.007499  0
H  H1  1  0.99999234  0.10136512  0.92661516  1  0  0.095785  0  0.947367  0  0  0.106693  0  1.0058  0  0  0.110096  0  1.003731  0  0  0.105838  0.104484  0  1.006947  0
H  H2  1  0.50030651  0.82491573  0.92608524  1  0  0.09516  0  0.947906  0  0  0.106228  0  1.006152  0  0  0.109646  0  1.004065  0  0  0.105799  0.103908  0  1.007486  0
H  H3  1  0.00000051  0.89864308  0.07339747  1  0  0.09567  0  0.947321  0  0  0.106573  0  1.005795  0  0  0.109978  0  1.003723  0  0  0.105824  0.104368  0  1.00694  0
H  H4  1  0.39881794  0.03309842  0.17974935  1  0  0.093454  0  0.951688  0  0  0.102769  0  1.011484  0  0  0.105648  0  1.010697  0  0  0.100331  0.100782  0  1.012128  0
H  H5  1  0.10078515  0.85378857  0.82083337  1  0  0.09322  0  0.952054  0  0  0.102778  0  1.011519  0  0  0.105755  0  1.010607  0  0  0.100538  0.100714  0  1.012266  0
H  H6  1  0.60119489  0.96688480  0.82025539  1  0  0.093511  0  0.951765  0  0  0.102808  0  1.011556  0  0  0.105687  0  1.010769  0  0  0.100355  0.100824  0  1.012197  0
H  H7  1  0.89918973  0.14620978  0.17917820  1  0  0.093218  0  0.952115  0  0  0.102768  0  1.011595  0  0  0.105741  0  1.010691  0  0  0.100538  0.100706  0  1.01234  0
H  H8  1  0.45503799  0.13326898  0.39133556  1  0  0.083334  0  0.955674  0  0  0.097127  0  1.012151  0  0  0.099107  0  1.012076  0  0  0.09981  0.095609  0  1.012328  0
H  H9  1  0.04457813  0.74273614  0.60928051  1  0  0.082858  0  0.956131  0  0  0.097136  0  1.011976  0  0  0.099005  0  1.012078  0  0  0.099671  0.095665  0  1.012051  0
H  H10  1  0.54497800  0.86672844  0.60866669  1  0  0.083166  0  0.95582  0  0  0.097066  0  1.012194  0  0  0.099046  0  1.01212  0  0  0.099776  0.095548  0  1.01237  0
H  H11  1  0.95540599  0.25727203  0.39073310  1  0  0.082842  0  0.956148  0  0  0.097151  0  1.011925  0  0  0.099022  0  1.012023  0  0  0.099694  0.095683  0  1.012007  0
H  H12  1  0.61423992  0.36907517  0.49443697  1  0  0.089702  0  0.960283  0  0  0.105566  0  1.014978  0  0  0.107809  0  1.01538  0  0  0.099523  0.104024  0  1.014753  0
H  H13  1  0.88553582  0.87544838  0.50606478  1  0  0.089459  0  0.960564  0  0  0.105963  0  1.014613  0  0  0.108042  0  1.015218  0  0  0.099768  0.104507  0  1.014285  0
H  H14  1  0.38576872  0.63092664  0.50555914  1  0  0.08971  0  0.960338  0  0  0.105571  0  1.015051  0  0  0.107813  0  1.015454  0  0  0.099529  0.104027  0  1.014829  0
H  H15  1  0.11448889  0.12457187  0.49395278  1  0  0.089408  0  0.960515  0  0  0.105886  0  1.014597  0  0  0.107988  0  1.015175  0  0  0.09974  0.104395  0  1.014311  0
H  H16  1  0.69872021  0.63454630  0.38533865  1  0  0.109365  0  0.960926  0  0  0.130303  0  1.024267  0  0  0.131597  0  1.024074  0  0  0.091373  0.129316  0  1.024465  0
H  H17  1  0.80129701  0.24954848  0.61483985  1  0  0.109735  0  0.959377  0  0  0.129896  0  1.023751  0  0  0.131209  0  1.023549  0  0  0.09118  0.128948  0  1.023876  0
H  H18  1  0.30127314  0.36544891  0.61465914  1  0  0.109404  0  0.960828  0  0  0.130313  0  1.024201  0  0  0.131607  0  1.024009  0  0  0.091351  0.129327  0  1.024398  0
H  H19  1  0.19872342  0.75046425  0.38515801  1  0  0.109606  0  0.959423  0  0  0.129816  0  1.023766  0  0  0.13114  0  1.02355  0  0  0.091185  0.12886  0  1.023898  0
H  H20  1  0.88037808  0.54263706  0.39818581  1  0  0.107016  0  0.963374  0  0  0.126947  0  1.028339  0  0  0.128877  0  1.026879  0  0  0.088447  0.125634  0  1.029245  0
H  H21  1  0.61950246  0.14495924  0.60228293  1  0  0.107595  0  0.963222  0  0  0.127602  0  1.027916  0  0  0.129546  0  1.026447  0  0  0.088906  0.126273  0  1.028842  0
H  H22  1  0.11961622  0.45735386  0.60180061  1  0  0.10706  0  0.963351  0  0  0.126965  0  1.028334  0  0  0.128897  0  1.026871  0  0  0.088471  0.125653  0  1.029239  0
H  H23  1  0.38051916  0.85505128  0.39771979  1  0  0.107538  0  0.96337  0  0  0.127511  0  1.028108  0  0  0.129435  0  1.026656  0  0  0.088842  0.126181  0  1.029033  0
H  H24  1  0.73843389  0.58109830  0.50246861  1  0  0.096504  0  0.987458  0  0  0.115948  0  1.056208  0  0  0.116876  0  1.057163  0  0  0.085505  0.11535  0  1.055381  0
H  H25  1  0.76114458  0.07909222  0.49785067  1  0  0.096078  0  0.986587  0  0  0.115694  0  1.055304  0  0  0.116632  0  1.056223  0  0  0.085575  0.115042  0  1.054611  0
H  H26  1  0.26156768  0.41888715  0.49752284  1  0  0.096526  0  0.987547  0  0  0.115922  0  1.056308  0  0  0.116852  0  1.057261  0  0  0.085537  0.115323  0  1.055485  0
H  H27  1  0.23888075  0.92091721  0.50215429  1  0  0.096152  0  0.98664  0  0  0.115773  0  1.055332  0  0  0.116712  0  1.056246  0  0  0.085616  0.115124  0  1.054637  0
H  H28  1  0.31021063  0.49444130  0.28675837  1  0  0.067904  0  0.960533  0  0  0.082941  0  1.032184  0  0  0.083051  0  1.033073  0  0  0.088159  0.082465  0  1.032214  0
H  H29  1  0.18933418  0.20798707  0.71316914  1  0  0.068929  0  0.961191  0  0  0.083823  0  1.032854  0  0  0.083873  0  1.033802  0  0  0.08839  0.083412  0  1.032795  0
H  H30  1  0.68978611  0.50554853  0.71322788  1  0  0.067974  0  0.960469  0  0  0.082969  0  1.032171  0  0  0.083079  0  1.03306  0  0  0.088177  0.082495  0  1.032195  0
H  H31  1  0.81066762  0.79200500  0.28681187  1  0  0.068885  0  0.961084  0  0  0.083791  0  1.032741  0  0  0.083841  0  1.033686  0  0  0.088389  0.08338  0  1.032685  0
H  H32  1  0.21815760  0.34763634  0.31153022  1  0  0.059295  0  0.988049  0  0  0.076597  0  1.059297  0  0  0.075852  0  1.062018  0  0  0.083296  0.076493  0  1.058329  0
H  H33  1  0.28190547  0.03681365  0.68847513  1  0  0.059969  0  0.988688  0  0  0.076915  0  1.059997  0  0  0.07622  0  1.06264  0  0  0.083323  0.076734  0  1.05924  0
H  H34  1  0.78184662  0.65235241  0.68845929  1  0  0.059359  0  0.988043  0  0  0.076657  0  1.059292  0  0  0.07593  0  1.061994  0  0  0.083321  0.076535  0  1.05834  0
H  H35  1  0.71810417  0.96318382  0.31151582  1  0  0.059897  0  0.98868  0  0  0.076893  0  1.059942  0  0  0.0762  0  1.062579  0  0  0.083309  0.076713  0  1.059181  0
H  H36  1  0.11411619  0.51502615  0.34259511  1  0  0.055126  0  0.969615  0  0  0.075849  0  1.035626  0  0  0.076414  0  1.034187  0  0  0.088119  0.075262  0  1.036813  0
H  H37  1  0.38554877  0.17355056  0.65751344  1  0  0.054917  0  0.970106  0  0  0.075667  0  1.036033  0  0  0.076218  0  1.034612  0  0  0.08777  0.075069  0  1.037333  0
H  H38  1  0.88589478  0.48497014  0.65741115  1  0  0.055153  0  0.969703  0  0  0.075913  0  1.035663  0  0  0.07647  0  1.034232  0  0  0.088191  0.075327  0  1.03685  0
H  H39  1  0.61447259  0.82645450  0.34248994  1  0  0.054746  0  0.970126  0  0  0.075533  0  1.036035  0  0  0.076083  0  1.03461  0  0  0.087725  0.074936  0  1.037334  0
H  H40  1  0.99427227  0.42146560  0.17208503  1  0  0.375232  0  0.921906  0  0  0.347909  0  0.99706  0  0  0.358255  0  0.985846  0  0  0.293968  0.340609  0  1.004897  0
H  H41  1  0.50548612  0.24963044  0.82799225  1  0  0.375564  0  0.920753  0  0  0.348236  0  0.996055  0  0  0.358585  0  0.984812  0  0  0.294118  0.340944  0  1.003858  0
H  H42  1  0.00570688  0.57854367  0.82792626  1  0  0.375192  0  0.922172  0  0  0.347981  0  0.997071  0  0  0.358318  0  0.985884  0  0  0.294039  0.340685  0  1.004901  0
H  H43  1  0.49449645  0.75037230  0.17201727  1  0  0.375554  0  0.920641  0  0  0.348227  0  0.995931  0  0  0.358577  0  0.984689  0  0  0.294114  0.340935  0  1.003733  0
Pb  Pb44  1  0.24996812  0.41751925  0.00016476  1  0  1.365681  0  1.389503  0  0  1.179052  0  1.780873  0  0  1.243449  0  1.735305  0  0  0.653145  1.132046  0  1.812995  0
Pb  Pb45  1  0.75000046  0.58248025  0.99983430  1  0  1.365701  0  1.389647  0  0  1.179069  0  1.781044  0  0  1.24348  0  1.735483  0  0  0.653165  1.13207  0  1.813176  0
C  C46  1  0.67295798  0.42670467  0.15405419  1  0  0.665617  0  3.87689  0  0  0.613128  0  4.163915  0  0  0.648985  0  4.156292  0  0  0.21966  0.588478  0  4.168395  0
C  C47  1  0.82687063  0.27277747  0.84612825  1  0  0.665122  0  3.878133  0  0  0.61329  0  4.164409  0  0  0.649184  0  4.156778  0  0  0.220332  0.588568  0  4.168938  0
C  C48  1  0.32702181  0.57329489  0.84594015  1  0  0.665888  0  3.876588  0  0  0.613395  0  4.163641  0  0  0.649251  0  4.156015  0  0  0.219862  0.588748  0  4.168124  0
C  C49  1  0.17312067  0.72722758  0.15386616  1  0  0.665003  0  3.87863  0  0  0.613128  0  4.164901  0  0  0.649007  0  4.157294  0  0  0.220246  0.588407  0  4.169426  0
C  C50  1  0.61894642  0.34802412  0.22397974  1  0  -0.133618  0  3.725494  0  0  -0.115851  0  3.95874  0  0  -0.124375  0  3.980543  0  0  -0.020186  -0.109859  0  3.943658  0
C  C51  1  0.88090447  0.12432030  0.77641107  1  0  -0.13228  0  3.725373  0  0  -0.115349  0  3.958562  0  0  -0.123887  0  3.980365  0  0  -0.020452  -0.109261  0  3.943327  0
C  C52  1  0.38106037  0.65196570  0.77601338  1  0  -0.133765  0  3.725648  0  0  -0.116051  0  3.958953  0  0  -0.12457  0  3.980753  0  0  -0.020364  -0.110058  0  3.943867  0
C  C53  1  0.11909541  0.87568036  0.22358880  1  0  -0.132433  0  3.725464  0  0  -0.115345  0  3.958581  0  0  -0.123889  0  3.980376  0  0  -0.020467  -0.109252  0  3.94335  0
C  C54  1  0.52624197  0.21534072  0.16637788  1  0  -0.074882  0  3.754198  0  0  -0.095343  0  3.999791  0  0  -0.095355  0  4.02017  0  0  -0.082152  -0.095345  0  3.98582  0
C  C55  1  0.97347319  0.04927773  0.83414083  1  0  -0.076333  0  3.754868  0  0  -0.096606  0  4.000845  0  0  -0.096626  0  4.021271  0  0  -0.082168  -0.09663  0  3.986662  0
C  C56  1  0.47376412  0.78463493  0.83361321  1  0  -0.074472  0  3.754305  0  0  -0.094996  0  3.999844  0  0  -0.095011  0  4.020225  0  0  -0.082015  -0.094996  0  3.985874  0
C  C57  1  0.02653524  0.95074251  0.16587179  1  0  -0.07608  0  3.754692  0  0  -0.096382  0  4.000645  0  0  -0.096407  0  4.02108  0  0  -0.082181  -0.096407  0  3.986457  0
C  C58  1  0.46941436  0.13633925  0.22530831  1  0  -0.06134  0  3.758112  0  0  -0.075863  0  4.010183  0  0  -0.078659  0  4.030905  0  0  -0.087944  -0.073922  0  3.996277  0
C  C59  1  0.03026382  0.91154232  0.77528445  1  0  -0.060587  0  3.758945  0  0  -0.075475  0  4.011259  0  0  -0.0783  0  4.031875  0  0  -0.088128  -0.073499  0  3.9974  0
C  C60  1  0.53060232  0.86364615  0.77469657  1  0  -0.06147  0  3.758074  0  0  -0.075995  0  4.010192  0  0  -0.078793  0  4.030916  0  0  -0.087933  -0.074055  0  3.996293  0
C  C61  1  0.96971609  0.08845715  0.22472390  1  0  -0.060883  0  3.758652  0  0  -0.075801  0  4.011053  0  0  -0.078626  0  4.031667  0  0  -0.088277  -0.073825  0  3.997196  0
C  C62  1  0.50217042  0.19215688  0.34381965  1  0  -0.05309  0  3.776483  0  0  -0.068097  0  4.028333  0  0  -0.06733  0  4.048497  0  0  -0.085779  -0.067999  0  4.014599  0
C  C63  1  0.99753918  0.84902929  0.65678109  1  0  -0.052648  0  3.776973  0  0  -0.068026  0  4.029521  0  0  -0.067202  0  4.049661  0  0  -0.085784  -0.067903  0  4.015713  0
C  C64  1  0.49784774  0.80783401  0.65618154  1  0  -0.052944  0  3.776214  0  0  -0.068026  0  4.028072  0  0  -0.06726  0  4.048239  0  0  -0.085762  -0.06793  0  4.014338  0
C  C65  1  0.00246159  0.15098653  0.34323670  1  0  -0.052398  0  3.77606  0  0  -0.067732  0  4.02849  0  0  -0.066904  0  4.048631  0  0  -0.085691  -0.067617  0  4.014679  0
C  C66  1  0.59234491  0.32474509  0.40164862  1  0  -0.145503  0  3.7459  0  0  -0.161224  0  3.989028  0  0  -0.166514  0  4.01156  0  0  -0.095044  -0.157998  0  3.973635  0
C  C67  1  0.90747043  0.92374686  0.59884853  1  0  -0.144705  0  3.747084  0  0  -0.161298  0  3.990149  0  0  -0.166441  0  4.012681  0  0  -0.094629  -0.158129  0  3.974646  0
C  C68  1  0.40766242  0.67525562  0.59834630  1  0  -0.1454  0  3.745612  0  0  -0.161172  0  3.988769  0  0  -0.16646  0  4.0113  0  0  -0.095027  -0.157943  0  3.973374  0
C  C69  1  0.09254543  0.07624839  0.40115072  1  0  -0.144689  0  3.747015  0  0  -0.161215  0  3.990124  0  0  -0.16639  0  4.01265  0  0  -0.094541  -0.158012  0  3.974634  0
C  C70  1  0.65392260  0.40470205  0.34391934  1  0  0.135622  0  3.723032  0  0  0.15475  0  3.958397  0  0  0.157343  0  3.982428  0  0  -0.002208  0.153458  0  3.941578  0
C  C71  1  0.84588288  0.06121422  0.65647814  1  0  0.134695  0  3.723687  0  0  0.154878  0  3.95797  0  0  0.157458  0  3.981998  0  0  -0.002134  0.153581  0  3.941053  0
C  C72  1  0.34607431  0.59528992  0.65607535  1  0  0.135366  0  3.723045  0  0  0.154603  0  3.958267  0  0  0.157193  0  3.982297  0  0  -0.00222  0.153313  0  3.941449  0
C  C73  1  0.15414020  0.93880179  0.34351934  1  0  0.134733  0  3.723619  0  0  0.154699  0  3.958152  0  0  0.157315  0  3.982131  0  0  -0.002254  0.153381  0  3.941254  0
C  C74  1  0.74748521  0.54814313  0.41139140  1  0  -0.33723  0  3.744663  0  0  -0.422441  0  3.985855  0  0  -0.424458  0  3.994592  0  0  -0.245426  -0.420644  0  3.979382  0
C  C75  1  0.75232371  0.13718399  0.58893532  1  0  -0.33742  0  3.742982  0  0  -0.422312  0  3.983589  0  0  -0.42437  0  3.992313  0  0  -0.24576  -0.420477  0  3.977116  0
C  C76  1  0.25251302  0.45185105  0.58859860  1  0  -0.337255  0  3.744733  0  0  -0.42239  0  3.985922  0  0  -0.424408  0  3.994662  0  0  -0.245431  -0.420596  0  3.979442  0
C  C77  1  0.24770538  0.86282544  0.41107067  1  0  -0.33733  0  3.742832  0  0  -0.422159  0  3.983368  0  0  -0.424217  0  3.992093  0  0  -0.245725  -0.420307  0  3.976904  0
C  C78  1  0.19170009  0.43733614  0.28360945  1  0  -0.0217  0  3.698119  0  0  -0.119293  0  3.97256  0  0  -0.112659  0  3.978499  0  0  -0.159285  -0.123682  0  3.969858  0
C  C79  1  0.30797434  0.15445347  0.71643127  1  0  -0.02324  0  3.702352  0  0  -0.12054  0  3.976656  0  0  -0.113902  0  3.982651  0  0  -0.159048  -0.125075  0  3.974121  0
C  C80  1  0.80829699  0.56265909  0.71638547  1  0  -0.021849  0  3.698118  0  0  -0.119447  0  3.972588  0  0  -0.112818  0  3.978504  0  0  -0.159379  -0.123824  0  3.969903  0
C  C81  1  0.69202675  0.84554724  0.28356324  1  0  -0.022956  0  3.70193  0  0  -0.120333  0  3.976267  0  0  -0.11369  0  3.98226  0  0  -0.158988  -0.124868  0  3.973731  0
O  O82  1  0.57675006  0.41481573  0.06432503  1  0  -0.679377  0  2.038716  0  0  -0.602302  0  2.280651  0  0  -0.636202  0  2.274585  0  0  -0.288463  -0.578449  0  2.283958  0
O  O83  1  0.92291989  0.35068900  0.93586481  1  0  -0.679207  0  2.039485  0  0  -0.601923  0  2.280413  0  0  -0.635766  0  2.27423  0  0  -0.288329  -0.578066  0  2.283703  0
O  O84  1  0.42321724  0.58518380  0.93566928  1  0  -0.679566  0  2.038716  0  0  -0.602505  0  2.280691  0  0  -0.636411  0  2.274636  0  0  -0.288556  -0.578647  0  2.283982  0
O  O85  1  0.07705642  0.64933879  0.06414726  1  0  -0.678954  0  2.039801  0  0  -0.60171  0  2.280767  0  0  -0.635545  0  2.274595  0  0  -0.288202  -0.577865  0  2.284071  0
O  O86  1  0.81095327  0.50193340  0.18283521  1  0  -0.641812  0  1.988007  0  0  -0.570415  0  2.208472  0  0  -0.598897  0  2.201096  0  0  -0.296976  -0.550074  0  2.213245  0
O  O87  1  0.68911596  0.31915576  0.81697899  1  0  -0.642335  0  1.988564  0  0  -0.571292  0  2.209035  0  0  -0.599778  0  2.201587  0  0  -0.297526  -0.55087  0  2.213894  0
O  O88  1  0.18901837  0.49807813  0.81716070  1  0  -0.641845  0  1.988047  0  0  -0.570516  0  2.208516  0  0  -0.598991  0  2.201142  0  0  -0.297071  -0.550179  0  2.213296  0
O  O89  1  0.31087978  0.68083841  0.18301163  1  0  -0.642367  0  1.988507  0  0  -0.571288  0  2.208983  0  0  -0.599768  0  2.201535  0  0  -0.297516  -0.550859  0  2.213837  0
O  O90  1  0.10770482  0.38110223  0.17011936  1  0  -0.567859  0  2.136859  0  0  -0.495031  0  2.376056  0  0  -0.517049  0  2.368326  0  0  -0.407356  -0.479786  0  2.381614  0
O  O91  1  0.39172451  0.21176524  0.82996828  1  0  -0.567915  0  2.137197  0  0  -0.495057  0  2.376161  0  0  -0.517027  0  2.368355  0  0  -0.407781  -0.479762  0  2.381863  0
O  O92  1  0.89227267  0.61890056  0.82988050  1  0  -0.567896  0  2.137014  0  0  -0.495098  0  2.376194  0  0  -0.517118  0  2.36847  0  0  -0.407458  -0.479856  0  2.381752  0
O  O93  1  0.60825418  0.78823646  0.17003132  1  0  -0.567926  0  2.136854  0  0  -0.49509  0  2.375885  0  0  -0.517064  0  2.36808  0  0  -0.407794  -0.4798  0  2.381593  0
