# generated using pymatgen
data_ZnH11C15(NO2)2
_symmetry_space_group_name_H-M   'P 1'
_cell_length_a   9.22550634
_cell_length_b   10.33003808
_cell_length_c   14.22186831
_cell_angle_alpha   98.60962905
_cell_angle_beta   90.00006442
_cell_angle_gamma   89.99999179
_symmetry_Int_Tables_number   1
_chemical_formula_structural   ZnH11C15(NO2)2
_chemical_formula_sum   'Zn4 H44 C60 N8 O16'
_cell_volume   1340.06863278
_cell_formula_units_Z   4
loop_
 _symmetry_equiv_pos_site_id
 _symmetry_equiv_pos_as_xyz
  1  'x, y, z'
loop_
 _atom_site_type_symbol
 _atom_site_label
 _atom_site_symmetry_multiplicity
 _atom_site_fract_x
 _atom_site_fract_y
 _atom_site_fract_z
 _atom_site_occupancy
 _atom_site_hle17_bader_spin_density
 _atom_site_hle17_ddec_charge
 _atom_site_hle17_ddec_spin_density
 _atom_site_hle17_ddec_sum_bond_order
 _atom_site_hle17_magmom
 _atom_site_hse06_10hf_bader_spin_density
 _atom_site_hse06_10hf_ddec_charge
 _atom_site_hse06_10hf_ddec_spin_density
 _atom_site_hse06_10hf_ddec_sum_bond_order
 _atom_site_hse06_10hf_magmom
 _atom_site_hse06_bader_spin_density
 _atom_site_hse06_ddec_charge
 _atom_site_hse06_ddec_spin_density
 _atom_site_hse06_ddec_sum_bond_order
 _atom_site_hse06_magmom
 _atom_site_pbe_bader_spin_density
 _atom_site_pbe_cm5_charge
 _atom_site_pbe_ddec_charge
 _atom_site_pbe_ddec_spin_density
 _atom_site_pbe_ddec_sum_bond_order
 _atom_site_pbe_magmom
Zn  Zn0  1  0.85364383  0.93232204  0.91687647  1  0  1.104945  0  1.79077  0  0  0.925402  0  2.272739  0  0  0.9748  0  2.209789  0  0  0.711178  0.890658  0  2.31611  0
Zn  Zn1  1  0.35364612  0.06767937  0.58312486  1  0  1.104988  0  1.790746  0  0  0.925431  0  2.272727  0  0  0.974831  0  2.20978  0  0  0.711188  0.890678  0  2.316099  0
Zn  Zn2  1  0.14635626  0.06767811  0.08312471  1  0  1.104976  0  1.790724  0  0  0.925436  0  2.272691  0  0  0.974839  0  2.20974  0  0  0.711187  0.890689  0  2.316066  0
Zn  Zn3  1  0.64635613  0.93232077  0.41687632  1  0  1.104951  0  1.790693  0  0  0.925416  0  2.272656  0  0  0.974814  0  2.209708  0  0  0.711177  0.89067  0  2.316026  0
H  H4  1  0.76350075  0.03460951  0.13386193  1  0  0.126281  0  0.989848  0  0  0.133889  0  1.049736  0  0  0.136804  0  1.04823  0  0  0.119741  0.131777  0  1.050874  0
H  H5  1  0.26350122  0.96539133  0.36613941  1  0  0.126249  0  0.989895  0  0  0.133916  0  1.049714  0  0  0.136833  0  1.048203  0  0  0.11974  0.131806  0  1.050852  0
H  H6  1  0.23649825  0.96538965  0.86613915  1  0  0.12626  0  0.98989  0  0  0.133924  0  1.049709  0  0  0.13684  0  1.0482  0  0  0.119747  0.131817  0  1.050846  0
H  H7  1  0.73650320  0.03460980  0.63386188  1  0  0.126198  0  0.989902  0  0  0.133836  0  1.049763  0  0  0.136752  0  1.048258  0  0  0.119734  0.13173  0  1.0509  0
H  H8  1  0.35590939  0.41295922  0.59020459  1  0  0.105364  0  0.956259  0  0  0.113166  0  1.020747  0  0  0.116676  0  1.0184  0  0  0.102344  0.110391  0  1.022957  0
H  H9  1  0.85590931  0.58704121  0.90979594  1  0  0.105374  0  0.956243  0  0  0.113175  0  1.020734  0  0  0.116684  0  1.018387  0  0  0.102344  0.110397  0  1.022945  0
H  H10  1  0.64409178  0.58703995  0.40979649  1  0  0.105331  0  0.956285  0  0  0.113162  0  1.020753  0  0  0.116671  0  1.018406  0  0  0.102338  0.110396  0  1.022954  0
H  H11  1  0.14409186  0.41295991  0.09020394  1  0  0.105359  0  0.956241  0  0  0.113159  0  1.02074  0  0  0.116668  0  1.018394  0  0  0.102346  0.110397  0  1.022941  0
H  H12  1  0.72683711  0.48405509  0.09204799  1  0  0.105729  0  0.96555  0  0  0.11487  0  1.029883  0  0  0.116665  0  1.03089  0  0  0.107654  0.113672  0  1.028997  0
H  H13  1  0.22683772  0.51594770  0.40795353  1  0  0.105687  0  0.965547  0  0  0.114827  0  1.029896  0  0  0.116624  0  1.030895  0  0  0.107637  0.113632  0  1.029012  0
H  H14  1  0.27316406  0.51594603  0.90795330  1  0  0.105639  0  0.965658  0  0  0.1148  0  1.029981  0  0  0.116588  0  1.030989  0  0  0.107622  0.113603  0  1.029098  0
H  H15  1  0.77316345  0.48405439  0.59204716  1  0  0.105682  0  0.965581  0  0  0.11483  0  1.029905  0  0  0.116618  0  1.030923  0  0  0.107642  0.11363  0  1.029023  0
H  H16  1  0.66134755  0.55722310  0.81027191  1  0  0.095098  0  0.976378  0  0  0.103506  0  1.043403  0  0  0.106099  0  1.042919  0  0  0.099668  0.101521  0  1.043984  0
H  H17  1  0.16134671  0.44277732  0.68972777  1  0  0.095075  0  0.976405  0  0  0.103481  0  1.043433  0  0  0.106075  0  1.042948  0  0  0.099658  0.101496  0  1.044015  0
H  H18  1  0.33865146  0.44277705  0.18972928  1  0  0.095107  0  0.976362  0  0  0.10351  0  1.043396  0  0  0.106113  0  1.042903  0  0  0.099662  0.101525  0  1.043977  0
H  H19  1  0.83865337  0.55722282  0.31027130  1  0  0.095088  0  0.976392  0  0  0.103497  0  1.043417  0  0  0.10609  0  1.042934  0  0  0.099671  0.101512  0  1.043998  0
H  H20  1  0.37035622  0.62702489  0.52939173  1  0  0.090098  0  0.97291  0  0  0.098855  0  1.038495  0  0  0.101488  0  1.038506  0  0  0.098913  0.097003  0  1.038506  0
H  H21  1  0.87035736  0.37297456  0.97060870  1  0  0.090096  0  0.972881  0  0  0.098854  0  1.038465  0  0  0.101489  0  1.038472  0  0  0.098908  0.097006  0  1.038477  0
H  H22  1  0.62964278  0.37297427  0.47060865  1  0  0.090098  0  0.972905  0  0  0.09886  0  1.038483  0  0  0.101496  0  1.038488  0  0  0.098916  0.097009  0  1.038496  0
H  H23  1  0.12964381  0.62702656  0.02939118  1  0  0.090084  0  0.972959  0  0  0.098848  0  1.038532  0  0  0.101483  0  1.03854  0  0  0.09893  0.097002  0  1.038544  0
H  H24  1  0.49867783  0.37876700  0.73211368  1  0  0.089679  0  0.954977  0  0  0.102953  0  1.01157  0  0  0.105689  0  1.010905  0  0  0.099114  0.101047  0  1.011934  0
H  H25  1  0.99867750  0.62123343  0.76788695  1  0  0.089664  0  0.954898  0  0  0.102903  0  1.011543  0  0  0.105639  0  1.010877  0  0  0.099075  0.100994  0  1.011908  0
H  H26  1  0.50132225  0.62123216  0.26788740  1  0  0.08967  0  0.954911  0  0  0.102912  0  1.011551  0  0  0.105647  0  1.010884  0  0  0.099087  0.101002  0  1.011913  0
H  H27  1  0.00132367  0.37876769  0.23211223  1  0  0.089667  0  0.954916  0  0  0.102914  0  1.011549  0  0  0.105648  0  1.010882  0  0  0.099083  0.101007  0  1.011912  0
H  H28  1  0.51459684  0.13246552  0.82719250  1  0  0.158285  0  0.943766  0  0  0.175403  0  1.00446  0  0  0.178724  0  1.002325  0  0  0.103573  0.172918  0  1.006061  0
H  H29  1  0.01459808  0.86753490  0.67280848  1  0  0.158272  0  0.943734  0  0  0.175387  0  1.00443  0  0  0.178708  0  1.002296  0  0  0.103566  0.172905  0  1.006035  0
H  H30  1  0.48540216  0.86753462  0.17280728  1  0  0.158267  0  0.943734  0  0  0.175388  0  1.004429  0  0  0.178709  0  1.002295  0  0  0.103563  0.172907  0  1.006031  0
H  H31  1  0.98540309  0.13246426  0.32719119  1  0  0.15826  0  0.943781  0  0  0.175392  0  1.004457  0  0  0.178711  0  1.002325  0  0  0.103577  0.172911  0  1.006058  0
H  H32  1  0.69940403  0.08920297  0.80582754  1  0  0.144184  0  0.955117  0  0  0.16381  0  1.014266  0  0  0.166289  0  1.013041  0  0  0.10373  0.161849  0  1.015317  0
H  H33  1  0.19940529  0.91079648  0.69417416  1  0  0.144213  0  0.955122  0  0  0.163808  0  1.014302  0  0  0.166287  0  1.013077  0  0  0.103725  0.161844  0  1.01536  0
H  H34  1  0.30059497  0.91079718  0.19417364  1  0  0.144204  0  0.955064  0  0  0.1638  0  1.014246  0  0  0.166278  0  1.013021  0  0  0.103722  0.161838  0  1.015307  0
H  H35  1  0.80059479  0.08920170  0.30582611  1  0  0.144208  0  0.955099  0  0  0.163803  0  1.014285  0  0  0.166281  0  1.013061  0  0  0.10373  0.161843  0  1.015342  0
H  H36  1  0.64838678  0.25723946  0.82955478  1  0  0.123086  0  0.949194  0  0  0.142047  0  1.012277  0  0  0.143401  0  1.013035  0  0  0.095727  0.140965  0  1.011872  0
H  H37  1  0.14838695  0.74275998  0.67044619  1  0  0.123103  0  0.949234  0  0  0.142062  0  1.012301  0  0  0.143417  0  1.013059  0  0  0.095746  0.140984  0  1.011893  0
H  H38  1  0.35161222  0.74276068  0.17044570  1  0  0.123063  0  0.94923  0  0  0.14203  0  1.0123  0  0  0.143384  0  1.013059  0  0  0.095723  0.140955  0  1.011892  0
H  H39  1  0.85161314  0.25723820  0.32955338  1  0  0.123078  0  0.949201  0  0  0.142037  0  1.012282  0  0  0.143392  0  1.013039  0  0  0.095731  0.140962  0  1.011873  0
H  H40  1  0.63253885  0.27957102  0.17587883  1  0  0.116601  0  0.971595  0  0  0.125684  0  1.033792  0  0  0.127264  0  1.035065  0  0  0.121615  0.124578  0  1.033013  0
H  H41  1  0.13253712  0.72042884  0.32412090  1  0  0.116627  0  0.971573  0  0  0.1257  0  1.033785  0  0  0.12728  0  1.035059  0  0  0.121615  0.124594  0  1.033007  0
H  H42  1  0.36746124  0.72042815  0.82412155  1  0  0.116582  0  0.971624  0  0  0.12568  0  1.033806  0  0  0.12726  0  1.035079  0  0  0.121625  0.124578  0  1.033029  0
H  H43  1  0.86745863  0.27957619  0.67587730  1  0  0.116588  0  0.971599  0  0  0.125644  0  1.033834  0  0  0.127225  0  1.035107  0  0  0.121633  0.124543  0  1.033054  0
H  H44  1  0.63136806  0.70310214  0.07034923  1  0  0.126552  0  0.941464  0  0  0.135273  0  1.000509  0  0  0.138312  0  0.999549  0  0  0.115658  0.133046  0  1.00136  0
H  H45  1  0.13136766  0.29689967  0.42965070  1  0  0.126568  0  0.941449  0  0  0.135292  0  1.000491  0  0  0.138332  0  0.999529  0  0  0.115669  0.133066  0  1.001342  0
H  H46  1  0.36863203  0.29689800  0.92965195  1  0  0.126567  0  0.941438  0  0  0.135289  0  1.000477  0  0  0.138328  0  0.999516  0  0  0.115669  0.133061  0  1.001327  0
H  H47  1  0.86863243  0.70310341  0.57034939  1  0  0.126562  0  0.94151  0  0  0.135287  0  1.000553  0  0  0.138326  0  0.999594  0  0  0.115659  0.133059  0  1.001404  0
C  C48  1  0.71555047  0.79140421  0.75606796  1  0  0.640772  0  3.93642  0  0  0.591403  0  4.230431  0  0  0.625265  0  4.223574  0  0  0.204581  0.568497  0  4.234014  0
C  C49  1  0.21555302  0.20859720  0.74393257  1  0  0.640855  0  3.936307  0  0  0.591479  0  4.230329  0  0  0.625341  0  4.223471  0  0  0.204588  0.568567  0  4.233921  0
C  C50  1  0.28444854  0.20859496  0.24393312  1  0  0.640789  0  3.936307  0  0  0.591424  0  4.23032  0  0  0.625287  0  4.22346  0  0  0.20461  0.568509  0  4.233913  0
C  C51  1  0.78444815  0.79140392  0.25606802  1  0  0.640842  0  3.936349  0  0  0.591471  0  4.230359  0  0  0.625333  0  4.2235  0  0  0.204613  0.568563  0  4.23395  0
C  C52  1  0.72013940  0.09887650  0.08718075  1  0  0.015474  0  3.731496  0  0  -0.019483  0  3.996772  0  0  -0.017054  0  4.015864  0  0  -0.00321  -0.020846  0  3.983975  0
C  C53  1  0.22013887  0.90112238  0.41282034  1  0  0.015458  0  3.731639  0  0  -0.019561  0  3.9969  0  0  -0.017127  0  4.015995  0  0  -0.003283  -0.02092  0  3.984104  0
C  C54  1  0.27985960  0.90112266  0.91281892  1  0  0.015458  0  3.731546  0  0  -0.019554  0  3.99681  0  0  -0.017119  0  4.015903  0  0  -0.003227  -0.020915  0  3.984013  0
C  C55  1  0.77986338  0.09887874  0.58717884  1  0  0.015545  0  3.731724  0  0  -0.019439  0  3.996994  0  0  -0.017009  0  4.016086  0  0  -0.003221  -0.020804  0  3.984196  0
C  C56  1  0.42380271  0.49177481  0.62582655  1  0  -0.061167  0  3.757876  0  0  -0.077021  0  4.012589  0  0  -0.076827  0  4.03117  0  0  -0.088812  -0.076814  0  3.999879  0
C  C57  1  0.92380366  0.50822561  0.87417332  1  0  -0.061238  0  3.757924  0  0  -0.077092  0  4.012634  0  0  -0.076899  0  4.031216  0  0  -0.088853  -0.076899  0  3.999931  0
C  C58  1  0.57619521  0.50822532  0.37417252  1  0  -0.061191  0  3.75782  0  0  -0.077072  0  4.012529  0  0  -0.076881  0  4.031112  0  0  -0.088842  -0.076885  0  3.999822  0
C  C59  1  0.07619534  0.49177452  0.12582646  1  0  -0.061155  0  3.757782  0  0  -0.077006  0  4.012482  0  0  -0.076814  0  4.031066  0  0  -0.088821  -0.07682  0  3.999777  0
C  C60  1  0.62696613  0.49175435  0.05231362  1  0  -0.130082  0  3.735068  0  0  -0.149661  0  3.986593  0  0  -0.15282  0  4.00829  0  0  -0.081209  -0.147274  0  3.971654  0
C  C61  1  0.12696681  0.50824648  0.44768691  1  0  -0.130013  0  3.735024  0  0  -0.149592  0  3.986573  0  0  -0.152748  0  4.00827  0  0  -0.081198  -0.147199  0  3.971632  0
C  C62  1  0.37303395  0.50824579  0.94768756  1  0  -0.129931  0  3.735101  0  0  -0.149553  0  3.986641  0  0  -0.152701  0  4.008324  0  0  -0.08114  -0.147162  0  3.971702  0
C  C63  1  0.87303219  0.49175464  0.55231227  1  0  -0.129961  0  3.73504  0  0  -0.149544  0  3.98655  0  0  -0.152697  0  4.008235  0  0  -0.081153  -0.14715  0  3.971609  0
C  C64  1  0.52360205  0.83651067  0.59251770  1  0  0.697404  0  3.859971  0  0  0.638114  0  4.160525  0  0  0.674898  0  4.149907  0  0  0.229529  0.612769  0  4.167357  0
C  C65  1  0.02360164  0.16348975  0.90748398  1  0  0.697507  0  3.860019  0  0  0.638164  0  4.160643  0  0  0.67495  0  4.150019  0  0  0.229524  0.612826  0  4.167474  0
C  C66  1  0.47639804  0.16348849  0.40748338  1  0  0.69752  0  3.859946  0  0  0.638193  0  4.160553  0  0  0.674981  0  4.149926  0  0  0.229535  0.612849  0  4.167388  0
C  C67  1  0.97639737  0.83651039  0.09251650  1  0  0.69746  0  3.859992  0  0  0.638147  0  4.160581  0  0  0.674929  0  4.149966  0  0  0.229515  0.612808  0  4.167416  0
C  C68  1  0.60783603  0.69053631  0.71354126  1  0  -0.079386  0  3.73735  0  0  -0.062925  0  3.965928  0  0  -0.069203  0  3.987085  0  0  -0.015807  -0.059206  0  3.951906  0
C  C69  1  0.10783538  0.30946215  0.78645957  1  0  -0.079359  0  3.737405  0  0  -0.062891  0  3.96597  0  0  -0.06917  0  3.987128  0  0  -0.015787  -0.059159  0  3.951943  0
C  C70  1  0.39216298  0.30946383  0.28645992  1  0  -0.079303  0  3.737291  0  0  -0.062832  0  3.96585  0  0  -0.069111  0  3.987012  0  0  -0.015783  -0.059095  0  3.951816  0
C  C71  1  0.89216362  0.69053603  0.21354000  1  0  -0.079379  0  3.737341  0  0  -0.062908  0  3.965905  0  0  -0.069187  0  3.987065  0  0  -0.015785  -0.059185  0  3.95188  0
C  C72  1  0.52352622  0.71132726  0.63488208  1  0  -0.056026  0  3.70384  0  0  -0.038122  0  3.929956  0  0  -0.042309  0  3.950145  0  0  -0.005883  -0.035324  0  3.916558  0
C  C73  1  0.02352680  0.28867315  0.86511819  1  0  -0.056053  0  3.703843  0  0  -0.038127  0  3.929958  0  0  -0.042316  0  3.950147  0  0  -0.005869  -0.035338  0  3.91657  0
C  C74  1  0.47647387  0.28867190  0.36511899  1  0  -0.056121  0  3.703855  0  0  -0.038208  0  3.929993  0  0  -0.042397  0  3.95018  0  0  -0.005906  -0.035416  0  3.916608  0
C  C75  1  0.97647329  0.71132698  0.13488088  1  0  -0.056074  0  3.703886  0  0  -0.038165  0  3.930012  0  0  -0.042352  0  3.950202  0  0  -0.005903  -0.035371  0  3.916624  0
C  C76  1  0.59628656  0.57108109  0.74870653  1  0  -0.088931  0  3.757185  0  0  -0.113524  0  4.010356  0  0  -0.113183  0  4.029589  0  0  -0.091421  -0.113427  0  3.997261  0
C  C77  1  0.09628692  0.42891737  0.75129359  1  0  -0.088949  0  3.757257  0  0  -0.113543  0  4.010418  0  0  -0.113204  0  4.029651  0  0  -0.09143  -0.113467  0  3.997331  0
C  C78  1  0.40371244  0.42891807  0.25129384  1  0  -0.088997  0  3.757255  0  0  -0.11359  0  4.010415  0  0  -0.113257  0  4.029643  0  0  -0.09145  -0.113517  0  3.997325  0
C  C79  1  0.90371208  0.57108081  0.24870527  1  0  -0.08897  0  3.7573  0  0  -0.113565  0  4.010455  0  0  -0.113224  0  4.029688  0  0  -0.091456  -0.11349  0  3.997365  0
C  C80  1  0.43256316  0.61118482  0.59168443  1  0  -0.091851  0  3.748836  0  0  -0.111604  0  3.995045  0  0  -0.114468  0  4.016994  0  0  -0.09013  -0.110002  0  3.980275  0
C  C81  1  0.93256311  0.38881463  0.90831605  1  0  -0.091856  0  3.748742  0  0  -0.111614  0  3.994964  0  0  -0.114479  0  4.016913  0  0  -0.090143  -0.110002  0  3.980195  0
C  C82  1  0.56743584  0.38881336  0.40831655  1  0  -0.091829  0  3.748709  0  0  -0.111587  0  3.994931  0  0  -0.11445  0  4.016879  0  0  -0.090106  -0.109965  0  3.980166  0
C  C83  1  0.06743589  0.61118551  0.09168302  1  0  -0.091833  0  3.748883  0  0  -0.111591  0  3.995083  0  0  -0.114456  0  4.017033  0  0  -0.090114  -0.109977  0  3.98032  0
C  C84  1  0.65192491  0.15768142  0.95082194  1  0  0.394789  0  3.659306  0  0  0.370337  0  3.924279  0  0  0.38729  0  3.938252  0  0  0.226102  0.359327  0  3.91438  0
C  C85  1  0.15192594  0.84231900  0.54917913  1  0  0.394919  0  3.659162  0  0  0.370425  0  3.924148  0  0  0.387386  0  3.93812  0  0  0.226117  0.359414  0  3.914246  0
C  C86  1  0.34807409  0.84231774  0.04917843  1  0  0.394881  0  3.65922  0  0  0.370392  0  3.92422  0  0  0.387352  0  3.938192  0  0  0.226122  0.359374  0  3.914323  0
C  C87  1  0.84807632  0.15768016  0.45081984  1  0  0.394895  0  3.659107  0  0  0.370424  0  3.924099  0  0  0.387378  0  3.93807  0  0  0.22614  0.359409  0  3.914204  0
C  C88  1  0.55368233  0.37854476  0.01160229  1  0  0.1763  0  3.787357  0  0  0.168953  0  4.033214  0  0  0.17353  0  4.055622  0  0  0.097631  0.165587  0  4.018142  0
C  C89  1  0.05368197  0.62145509  0.48839737  1  0  0.176291  0  3.787416  0  0  0.168918  0  4.03331  0  0  0.173495  0  4.055718  0  0  0.097644  0.165546  0  4.01824  0
C  C90  1  0.44631668  0.62145539  0.98839889  1  0  0.176264  0  3.787453  0  0  0.168946  0  4.033271  0  0  0.173523  0  4.055676  0  0  0.097607  0.165575  0  4.018208  0
C  C91  1  0.94631703  0.37854504  0.51159959  1  0  0.176183  0  3.787565  0  0  0.168871  0  4.03336  0  0  0.173449  0  4.055766  0  0  0.097574  0.165503  0  4.018294  0
C  C92  1  0.50560642  0.47193206  0.70511839  1  0  -0.077089  0  3.769868  0  0  -0.092507  0  4.024687  0  0  -0.094593  0  4.044168  0  0  -0.093935  -0.090871  0  4.010946  0
C  C93  1  0.00560683  0.52806738  0.79488247  1  0  -0.077009  0  3.769793  0  0  -0.092389  0  4.024587  0  0  -0.094475  0  4.044071  0  0  -0.093875  -0.090748  0  4.01084  0
C  C94  1  0.49439258  0.52806710  0.29488198  1  0  -0.077022  0  3.769799  0  0  -0.09241  0  4.024609  0  0  -0.094494  0  4.044093  0  0  -0.093895  -0.090765  0  4.010854  0
C  C95  1  0.99439325  0.47193276  0.20511731  1  0  -0.077063  0  3.769754  0  0  -0.092451  0  4.024558  0  0  -0.094535  0  4.044039  0  0  -0.093921  -0.090806  0  4.010809  0
C  C96  1  0.62692023  0.15942943  0.84795331  1  0  -0.410873  0  3.688623  0  0  -0.489716  0  3.92328  0  0  -0.494736  0  3.928876  0  0  -0.235729  -0.485919  0  3.9194  0
C  C97  1  0.12692252  0.84057001  0.65204905  1  0  -0.410942  0  3.688614  0  0  -0.489741  0  3.923277  0  0  -0.49476  0  3.928869  0  0  -0.235758  -0.485952  0  3.919403  0
C  C98  1  0.37307769  0.84057071  0.15204787  1  0  -0.410878  0  3.688539  0  0  -0.489698  0  3.923228  0  0  -0.494717  0  3.928822  0  0  -0.235711  -0.485899  0  3.919346  0
C  C99  1  0.87307865  0.15942817  0.34795052  1  0  -0.410896  0  3.688583  0  0  -0.489725  0  3.923282  0  0  -0.494743  0  3.928876  0  0  -0.235756  -0.485932  0  3.919408  0
C  C100  1  0.65612016  0.21871153  0.10891033  1  0  -0.048486  0  3.664812  0  0  -0.091402  0  3.926802  0  0  -0.090309  0  3.945914  0  0  -0.001127  -0.092223  0  3.914055  0
C  C101  1  0.15611853  0.78129126  0.39109114  1  0  -0.048409  0  3.664836  0  0  -0.091326  0  3.926842  0  0  -0.090233  0  3.945955  0  0  -0.00103  -0.092147  0  3.914097  0
C  C102  1  0.34387884  0.78128861  0.89109015  1  0  -0.048393  0  3.664798  0  0  -0.091333  0  3.926805  0  0  -0.09024  0  3.945915  0  0  -0.001104  -0.092164  0  3.914065  0
C  C103  1  0.84387614  0.21871181  0.60890684  1  0  -0.048393  0  3.664851  0  0  -0.091296  0  3.926873  0  0  -0.090204  0  3.945984  0  0  -0.001094  -0.092121  0  3.914127  0
C  C104  1  0.57358368  0.61426742  0.04051229  1  0  -0.115643  0  3.702973  0  0  -0.134161  0  3.950964  0  0  -0.136975  0  3.970855  0  0  -0.077323  -0.132417  0  3.937838  0
C  C105  1  0.07358331  0.38573439  0.45948760  1  0  -0.11564  0  3.703017  0  0  -0.134165  0  3.951012  0  0  -0.13698  0  3.970903  0  0  -0.077326  -0.132427  0  3.937889  0
C  C106  1  0.42641641  0.38573272  0.95948890  1  0  -0.115697  0  3.702921  0  0  -0.134203  0  3.950935  0  0  -0.137016  0  3.970822  0  0  -0.077354  -0.132468  0  3.937808  0
C  C107  1  0.92641569  0.61426771  0.54051168  1  0  -0.115698  0  3.702976  0  0  -0.134218  0  3.951005  0  0  -0.137032  0  3.970893  0  0  -0.077359  -0.13248  0  3.937877  0
N  N108  1  0.61290728  0.25480856  0.02281388  1  0  -0.146409  0  3.558784  0  0  -0.060012  0  3.76923  0  0  -0.075263  0  3.792725  0  0  -0.224073  -0.049655  0  3.753183  0
N  N109  1  0.11290797  0.74519129  0.47718724  1  0  -0.146526  0  3.558796  0  0  -0.060095  0  3.769252  0  0  -0.075347  0  3.792745  0  0  -0.224116  -0.049731  0  3.753201  0
N  N110  1  0.38709172  0.74519158  0.97718730  1  0  -0.146477  0  3.558839  0  0  -0.060065  0  3.769279  0  0  -0.075316  0  3.792772  0  0  -0.224077  -0.049706  0  3.753236  0
N  N111  1  0.88709103  0.25480982  0.52281124  1  0  -0.146518  0  3.558751  0  0  -0.060111  0  3.769182  0  0  -0.075364  0  3.792676  0  0  -0.224095  -0.049754  0  3.753137  0
N  N112  1  0.71811427  0.06284884  0.98925278  1  0  -0.462879  0  3.258748  0  0  -0.385568  0  3.549897  0  0  -0.408326  0  3.561515  0  0  -0.364895  -0.370433  0  3.541984  0
N  N113  1  0.21811522  0.93715158  0.51074764  1  0  -0.462916  0  3.258779  0  0  -0.385567  0  3.549933  0  0  -0.408341  0  3.561564  0  0  -0.364853  -0.370434  0  3.542021  0
N  N114  1  0.28188473  0.93715032  0.01074760  1  0  -0.462926  0  3.258706  0  0  -0.385579  0  3.549863  0  0  -0.408356  0  3.561494  0  0  -0.364916  -0.370448  0  3.541952  0
N  N115  1  0.78188812  0.06284856  0.48925284  1  0  -0.462864  0  3.258752  0  0  -0.385547  0  3.549918  0  0  -0.408305  0  3.561536  0  0  -0.364878  -0.370413  0  3.542006  0
O  O116  1  0.56001190  0.82307650  0.50531802  1  0  -0.64257  0  2.088183  0  0  -0.57018  0  2.373801  0  0  -0.597987  0  2.354856  0  0  -0.313135  -0.550858  0  2.386518  0
O  O117  1  0.06001597  0.17692587  0.99468039  1  0  -0.64262  0  2.088265  0  0  -0.570197  0  2.373886  0  0  -0.598012  0  2.354954  0  0  -0.313154  -0.55088  0  2.386607  0
O  O118  1  0.43998818  0.17692267  0.49468306  1  0  -0.642629  0  2.088244  0  0  -0.570203  0  2.373843  0  0  -0.598026  0  2.354926  0  0  -0.313147  -0.550878  0  2.386559  0
O  O119  1  0.93998628  0.82307622  0.00531679  1  0  -0.642576  0  2.088268  0  0  -0.570159  0  2.373871  0  0  -0.597972  0  2.35494  0  0  -0.313123  -0.550831  0  2.386585  0
O  O120  1  0.76870739  0.86894689  0.70583020  1  0  -0.607884  0  1.962531  0  0  -0.560243  0  2.187327  0  0  -0.58358  0  2.178736  0  0  -0.308524  -0.543867  0  2.192616  0
O  O121  1  0.26870787  0.13105255  0.79417016  1  0  -0.607924  0  1.962475  0  0  -0.560285  0  2.18728  0  0  -0.583621  0  2.178683  0  0  -0.30853  -0.543911  0  2.192572  0
O  O122  1  0.23129269  0.13105031  0.29416926  1  0  -0.607895  0  1.962451  0  0  -0.560263  0  2.187254  0  0  -0.583597  0  2.178655  0  0  -0.308539  -0.543892  0  2.19255  0
O  O123  1  0.73129221  0.86894759  0.20583103  1  0  -0.607922  0  1.962531  0  0  -0.56028  0  2.187339  0  0  -0.58361  0  2.178729  0  0  -0.308538  -0.543906  0  2.192635  0
O  O124  1  0.74819699  0.78762712  0.84434229  1  0  -0.651991  0  2.052529  0  0  -0.576832  0  2.3297  0  0  -0.606254  0  2.313177  0  0  -0.331836  -0.555639  0  2.340105  0
O  O125  1  0.24820047  0.21237625  0.65565847  1  0  -0.652027  0  2.052496  0  0  -0.576869  0  2.329664  0  0  -0.606289  0  2.313143  0  0  -0.331836  -0.555677  0  2.340075  0
O  O126  1  0.25180201  0.21237400  0.15565759  1  0  -0.65201  0  2.052522  0  0  -0.576864  0  2.329708  0  0  -0.606288  0  2.313186  0  0  -0.33185  -0.55567  0  2.340119  0
O  O127  1  0.75180287  0.78762487  0.34434212  1  0  -0.651999  0  2.052478  0  0  -0.57684  0  2.32964  0  0  -0.606265  0  2.313118  0  0  -0.331826  -0.555642  0  2.340046  0
O  O128  1  0.47587354  0.94083252  0.64225108  1  0  -0.639386  0  2.063273  0  0  -0.570718  0  2.34021  0  0  -0.599318  0  2.323573  0  0  -0.309725  -0.550831  0  2.351191  0
O  O129  1  0.97587020  0.05916792  0.85775093  1  0  -0.639405  0  2.063204  0  0  -0.57075  0  2.340215  0  0  -0.599351  0  2.323571  0  0  -0.309698  -0.55087  0  2.351201  0
O  O130  1  0.52412871  0.05916763  0.35775010  1  0  -0.639382  0  2.063222  0  0  -0.570719  0  2.340202  0  0  -0.59932  0  2.323561  0  0  -0.309672  -0.550827  0  2.351184  0
O  O131  1  0.02412772  0.94083124  0.14224944  1  0  -0.639399  0  2.063221  0  0  -0.570749  0  2.340206  0  0  -0.599348  0  2.323565  0  0  -0.30971  -0.550874  0  2.351198  0
