# generated using pymatgen
data_CuH20(C4N3)6
_symmetry_space_group_name_H-M   'P 1'
_cell_length_a   9.27167858
_cell_length_b   11.31788281
_cell_length_c   11.71874457
_cell_angle_alpha   89.99969397
_cell_angle_beta   96.25752536
_cell_angle_gamma   89.99943870
_symmetry_Int_Tables_number   1
_chemical_formula_structural   CuH20(C4N3)6
_chemical_formula_sum   'Cu2 H40 C48 N36'
_cell_volume   1222.38889627
_cell_formula_units_Z   2
loop_
 _symmetry_equiv_pos_site_id
 _symmetry_equiv_pos_as_xyz
  1  'x, y, z'
loop_
 _atom_site_type_symbol
 _atom_site_label
 _atom_site_symmetry_multiplicity
 _atom_site_fract_x
 _atom_site_fract_y
 _atom_site_fract_z
 _atom_site_occupancy
 _atom_site_pbe_cm5_charge
 _atom_site_pbe_ddec_charge
 _atom_site_pbe_ddec_spin_density
 _atom_site_pbe_ddec_sum_bond_order
 _atom_site_pbe_magmom
Cu  Cu0  1  0.99999980  0.00000115  0.99999912  1  0.737402  0.633396  -0.68366  2.393535  -0.48
Cu  Cu1  1  0.00000125  0.50000114  0.49999991  1  0.737373  0.633323  0.68365  2.393432  0.48
H  H2  1  0.75476546  0.61317569  0.79428362  1  0.102768  0.105402  1.5e-05  1.028381  0.0
H  H3  1  0.24524066  0.11317900  0.70571609  1  0.102775  0.105421  -1.6e-05  1.028367  0.0
H  H4  1  0.24523994  0.38682256  0.20571847  1  0.102775  0.105454  1.6e-05  1.028332  0.0
H  H5  1  0.75476043  0.88682455  0.29428906  1  0.102773  0.105419  -1.5e-05  1.028424  0.0
H  H6  1  0.84786709  0.81976609  0.78900986  1  0.109817  0.077382  -0.000605  1.029187  0.0
H  H7  1  0.15213533  0.31977100  0.71099018  1  0.109822  0.07741  0.000603  1.029164  0.0
H  H8  1  0.15213070  0.18023304  0.21098905  1  0.109832  0.077391  -0.000603  1.029183  0.0
H  H9  1  0.84786900  0.68023431  0.28901268  1  0.109843  0.077385  0.000604  1.02913  0.0
H  H10  1  0.28690718  0.89073481  0.14911665  1  0.298392  0.267828  0.000132  0.995204  0.0
H  H11  1  0.71308980  0.39073531  0.35088035  1  0.29839  0.267897  -0.000131  0.995144  0.0
H  H12  1  0.71309492  0.10926609  0.85087920  1  0.298397  0.267794  0.000131  0.995325  0.0
H  H13  1  0.28690911  0.60926471  0.64912207  1  0.298415  0.267877  -0.000132  0.995249  0.0
H  H14  1  0.45649144  0.94419899  0.17973009  1  0.291986  0.2574  -2e-06  1.044754  0.0
H  H15  1  0.54350485  0.44420014  0.32026572  1  0.292052  0.2576  3e-06  1.044896  0.0
H  H16  1  0.54350958  0.05580102  0.82026653  1  0.29198  0.257435  -3e-06  1.044762  0.0
H  H17  1  0.45649406  0.55580076  0.67973670  1  0.292024  0.257527  2e-06  1.044856  0.0
H  H18  1  0.65271903  0.91323951  0.07724631  1  0.110541  0.075137  -1.2e-05  1.040284  0.0
H  H19  1  0.34727874  0.41324345  0.42275063  1  0.110507  0.075107  1.2e-05  1.040274  0.0
H  H20  1  0.34727440  0.08675962  0.92275055  1  0.110544  0.075167  -1.2e-05  1.040232  0.0
H  H21  1  0.65272448  0.58675392  0.57725042  1  0.110516  0.075082  1.2e-05  1.040323  0.0
H  H22  1  0.60190374  0.55659904  0.94928857  1  0.107637  0.105969  -2.7e-05  1.038459  0.0
H  H23  1  0.39809224  0.05660021  0.55070806  1  0.10765  0.105967  2.8e-05  1.038459  0.0
H  H24  1  0.39809841  0.44339832  0.05071240  1  0.107635  0.105902  -2.6e-05  1.038488  0.0
H  H25  1  0.60190233  0.94339892  0.44929487  1  0.107624  0.105943  2.7e-05  1.038475  0.0
H  H26  1  0.33026722  0.91356517  0.36196651  1  0.105936  0.099211  7.1e-05  1.062165  0.0
H  H27  1  0.66973928  0.41356367  0.13803625  1  0.105889  0.099224  -7e-05  1.062208  0.0
H  H28  1  0.66973488  0.08643573  0.63802934  1  0.105952  0.099319  7e-05  1.062086  0.0
H  H29  1  0.33026290  0.58643458  0.86196813  1  0.105886  0.099247  -7.1e-05  1.062153  0.0
H  H30  1  0.15358635  0.93295427  0.50815251  1  0.108659  0.116743  -4.7e-05  1.025658  0.0
H  H31  1  0.84641569  0.43295114  0.99184520  1  0.108662  0.11672  4.7e-05  1.025735  0.0
H  H32  1  0.84641683  0.06704663  0.49184342  1  0.108635  0.116654  -4.7e-05  1.02572  0.0
H  H33  1  0.15358103  0.56704888  0.00815619  1  0.108637  0.116666  4.7e-05  1.02576  0.0
H  H34  1  0.01868578  0.75683514  0.56424484  1  0.117433  0.095753  0.00033  1.026666  0.001
H  H35  1  0.98131417  0.25682594  0.93575277  1  0.117431  0.09572  -0.000331  1.02668  -0.001
H  H36  1  0.98132288  0.24316664  0.43575665  1  0.11739  0.0957  0.000331  1.026615  0.001
H  H37  1  0.01868035  0.74317231  0.06424503  1  0.117421  0.095702  -0.00033  1.026695  -0.001
H  H38  1  0.21623760  0.54332595  0.33946955  1  0.120676  0.076775  0.001139  1.056644  0.002
H  H39  1  0.78376269  0.04331987  0.16052612  1  0.120639  0.076754  -0.001138  1.056623  -0.002
H  H40  1  0.78376560  0.45667494  0.66052895  1  0.120658  0.0768  0.001138  1.056631  0.002
H  H41  1  0.21623945  0.95667838  0.83947400  1  0.120652  0.076764  -0.00114  1.056635  -0.002
C  C42  1  0.73008859  0.67700557  0.85890888  1  -0.088935  -0.124262  -5e-06  3.974863  0.0
C  C43  1  0.26991456  0.17700992  0.64109026  1  -0.088978  -0.124344  4e-06  3.974832  0.0
C  C44  1  0.26991246  0.32299268  0.14109030  1  -0.08898  -0.124379  -5e-06  3.974847  0.0
C  C45  1  0.73008545  0.82299363  0.35891395  1  -0.088948  -0.124381  2e-06  3.974775  0.0
C  C46  1  0.78230699  0.79241830  0.85616718  1  0.040096  0.093445  -8.2e-05  3.964489  0.0
C  C47  1  0.21769468  0.29242217  0.64383124  1  0.040053  0.093377  8.2e-05  3.964462  0.0
C  C48  1  0.21768970  0.20758083  0.14383079  1  0.040118  0.093399  -8.1e-05  3.964498  0.0
C  C49  1  0.78230747  0.70758138  0.35617059  1  0.04009  0.093525  8.6e-05  3.964449  0.0
C  C50  1  0.67324255  0.84439987  0.01603036  1  0.049199  0.065326  0.000279  3.93334  0.0
C  C51  1  0.32675610  0.34440274  0.48396616  1  0.049221  0.06535  -0.000276  3.933396  0.0
C  C52  1  0.32675196  0.15559926  0.98396573  1  0.049244  0.065286  0.000281  3.933286  0.0
C  C53  1  0.67324605  0.65559550  0.51603566  1  0.049279  0.065437  -0.000277  3.933316  0.0
C  C54  1  0.61488203  0.73096720  0.02554559  1  -0.002733  -0.014784  -0.000148  4.018505  0.0
C  C55  1  0.38511479  0.23096966  0.47444967  1  -0.002742  -0.014857  0.000145  4.018584  0.0
C  C56  1  0.38511465  0.26903281  0.97445153  1  -0.00278  -0.014898  -0.000148  4.018486  0.0
C  C57  1  0.61488412  0.76902947  0.52555275  1  -0.002805  -0.014926  0.000145  4.018623  0.0
C  C58  1  0.64625590  0.64536194  0.94518402  1  -0.064565  -0.059237  0.000242  3.912837  0.0
C  C59  1  0.35374438  0.14536521  0.55481335  1  -0.064508  -0.059098  -0.000245  3.912791  0.0
C  C60  1  0.35374298  0.35463630  0.05481498  1  -0.06453  -0.059057  0.000243  3.912811  0.0
C  C61  1  0.64625236  0.85463392  0.44518975  1  -0.064546  -0.059167  -0.000242  3.912827  0.0
C  C62  1  0.53102021  0.69653947  0.11804448  1  0.221679  0.185781  0.000103  4.034902  0.0
C  C63  1  0.46897705  0.19654088  0.38195185  1  0.221614  0.185778  -0.000104  4.034881  0.0
C  C64  1  0.46897756  0.30345790  0.88195273  1  0.221645  0.185859  0.000104  4.034895  0.0
C  C65  1  0.53102182  0.80345649  0.61804715  1  0.22168  0.185954  -0.000106  4.034737  0.0
C  C66  1  0.38922312  0.69496957  0.25662720  1  0.220838  0.182051  0.000376  4.011071  0.0
C  C67  1  0.61077854  0.19496972  0.24337375  1  0.220824  0.182013  -0.000376  4.01101  0.0
C  C68  1  0.61077576  0.30503044  0.74337265  1  0.220872  0.182096  0.000374  4.011043  0.0
C  C69  1  0.38922037  0.80502941  0.75662952  1  0.220815  0.18203  -0.000379  4.011075  0.0
C  C70  1  0.28716504  0.72474653  0.33845751  1  1.9e-05  -0.008227  0.003174  4.005613  0.003
C  C71  1  0.71284060  0.22474278  0.16154447  1  6.9e-05  -0.008146  -0.003173  4.005711  -0.003
C  C72  1  0.71283818  0.27525437  0.66154270  1  -3.4e-05  -0.008215  0.003173  4.005716  0.003
C  C73  1  0.28716049  0.77525459  0.83845898  1  9.5e-05  -0.008036  -0.003175  4.005652  -0.003
C  C74  1  0.26912771  0.83666758  0.38624541  1  -0.06522  -0.060835  -0.002789  3.896508  -0.002
C  C75  1  0.73087866  0.33666483  0.11375518  1  -0.06523  -0.060997  0.002792  3.896727  0.002
C  C76  1  0.73087548  0.16333509  0.61375138  1  -0.065312  -0.061198  -0.002792  3.896806  -0.002
C  C77  1  0.26912133  0.66333519  0.88624732  1  -0.065304  -0.061198  0.00279  3.896755  0.002
C  C78  1  0.17188011  0.84819993  0.46841185  1  -0.081171  -0.107231  0.00299  3.942405  0.004
C  C79  1  0.82812610  0.34819421  0.03158782  1  -0.08114  -0.107052  -0.00299  3.942583  -0.004
C  C80  1  0.82812634  0.15180361  0.53158605  1  -0.081059  -0.106897  0.002989  3.942461  0.004
C  C81  1  0.17187279  0.65180404  0.96841375  1  -0.081015  -0.106836  -0.00299  3.942434  -0.004
C  C82  1  0.09431874  0.75045750  0.49973158  1  0.048833  0.094469  -0.000411  3.88909  -0.001
C  C83  1  0.90568328  0.25045043  0.00026655  1  0.048825  0.094483  0.000409  3.889384  0.001
C  C84  1  0.90568772  0.24954428  0.50026803  1  0.048889  0.094535  -0.00041  3.889069  -0.001
C  C85  1  0.09431561  0.74954781  0.99973416  1  0.04883  0.094497  0.000412  3.889315  0.001
C  C86  1  0.20498188  0.63096420  0.37506032  1  0.056139  0.062838  -0.000983  3.919682  -0.002
C  C87  1  0.79501732  0.13095999  0.12493735  1  0.05615  0.062861  0.000985  3.919813  0.002
C  C88  1  0.79502026  0.36903758  0.62494065  1  0.056096  0.062678  -0.000985  3.91972  -0.002
C  C89  1  0.20498265  0.86903826  0.87506259  1  0.056134  0.062819  0.000986  3.919757  0.002
N  N90  1  0.39389663  0.87918367  0.13707399  1  -0.496744  -0.505833  0.000118  3.194299  0.0
N  N91  1  0.60610048  0.37918584  0.36292223  1  -0.496792  -0.506081  -0.000118  3.194523  0.0
N  N92  1  0.60610657  0.12081546  0.86292451  1  -0.496718  -0.505817  0.000118  3.194258  0.0
N  N93  1  0.39389841  0.62081505  0.63707933  1  -0.496807  -0.506012  -0.000118  3.19455  0.0
N  N94  1  0.75669104  0.87466767  0.93437902  1  -0.3232  -0.271346  0.000902  3.410818  0.0
N  N95  1  0.24330740  0.37467177  0.56561700  1  -0.323154  -0.2713  -0.000897  3.410815  0.0
N  N96  1  0.24330129  0.12533235  0.06561604  1  -0.323234  -0.271286  0.000898  3.41088  0.0
N  N97  1  0.75669690  0.62533002  0.43438244  1  -0.323243  -0.271418  -0.000899  3.410896  0.0
N  N98  1  0.43993515  0.76662257  0.17436124  1  -0.136119  0.090108  0.000249  3.736048  0.0
N  N99  1  0.56006451  0.26662179  0.32563833  1  -0.136117  0.090104  -0.000248  3.736094  0.0
N  N100  1  0.56006589  0.23337744  0.82563794  1  -0.136092  0.090157  0.000249  3.735996  0.0
N  N101  1  0.43993331  0.73337645  0.67436400  1  -0.136078  0.090143  -0.000246  3.736104  0.0
N  N102  1  0.53562750  0.58877093  0.16361712  1  -0.223057  -0.248652  3e-06  3.266928  0.0
N  N103  1  0.46437223  0.08877175  0.33638082  1  -0.222999  -0.248598  -2e-06  3.266891  0.0
N  N104  1  0.46436919  0.41122731  0.83638000  1  -0.223038  -0.248734  1e-06  3.266951  0.0
N  N105  1  0.53562668  0.91122473  0.66362245  1  -0.223033  -0.248691  -1e-06  3.267035  0.0
N  N106  1  0.44594328  0.58729463  0.24883568  1  -0.221291  -0.248429  0.000168  3.284205  0.0
N  N107  1  0.55405975  0.08729608  0.25116509  1  -0.221322  -0.248449  -0.000167  3.284204  0.0
N  N108  1  0.55405450  0.41270450  0.75116238  1  -0.221293  -0.248436  0.000167  3.284245  0.0
N  N109  1  0.44594132  0.91270305  0.74883750  1  -0.221353  -0.248551  -0.000167  3.284404  0.0
N  N110  1  0.11073583  0.64297545  0.45271608  1  -0.346241  -0.216852  0.05365  3.642194  0.064
N  N111  1  0.88926754  0.14296737  0.04728102  1  -0.346218  -0.216859  -0.05364  3.642339  -0.064
N  N112  1  0.88927064  0.35702722  0.54728439  1  -0.34619  -0.21674  0.053649  3.642007  0.064
N  N113  1  0.11073242  0.85703088  0.95271807  1  -0.346213  -0.216896  -0.053638  3.642329  -0.064
N  N114  1  0.97533746  0.06903404  0.83829154  1  -0.312416  -0.527337  -0.048823  3.000115  -0.056
N  N115  1  0.02465943  0.56903559  0.66170339  1  -0.312313  -0.527142  0.048848  2.999809  0.056
N  N116  1  0.02466355  0.93096509  0.16170422  1  -0.312381  -0.527261  -0.048868  2.999775  -0.056
N  N117  1  0.97533838  0.43096884  0.33829723  1  -0.312363  -0.527251  0.048848  2.999772  0.056
N  N118  1  0.97697599  0.00806968  0.75426988  1  0.070964  0.40096  -0.000239  4.507051  0.007
N  N119  1  0.02302388  0.50807166  0.74572902  1  0.07083  0.400714  0.00024  4.507142  -0.007
N  N120  1  0.02302616  0.99193386  0.24573109  1  0.070851  0.400735  -0.000239  4.507379  0.007
N  N121  1  0.97697281  0.49193630  0.25426895  1  0.070827  0.400704  0.000244  4.507124  -0.007
N  N122  1  0.97996640  0.95087079  0.67116257  1  -0.188608  -0.376258  -0.073287  2.602875  -0.075
N  N123  1  0.02003543  0.45087612  0.82883589  1  -0.188623  -0.376222  0.073296  2.603158  0.075
N  N124  1  0.02003459  0.04913010  0.32883149  1  -0.18853  -0.376098  -0.073303  2.603518  -0.075
N  N125  1  0.97995913  0.54912920  0.17116532  1  -0.188527  -0.376067  0.073267  2.603232  0.075
