# generated using pymatgen
data_CdH16C16N4(ClO)2
_symmetry_space_group_name_H-M   'P 1'
_cell_length_a   7.79687939
_cell_length_b   7.86433774
_cell_length_c   8.17149347
_cell_angle_alpha   83.11540040
_cell_angle_beta   76.53609027
_cell_angle_gamma   62.23847467
_symmetry_Int_Tables_number   1
_chemical_formula_structural   CdH16C16N4(ClO)2
_chemical_formula_sum   'Cd1 H16 C16 N4 Cl2 O2'
_cell_volume   431.15607620
_cell_formula_units_Z   1
loop_
 _symmetry_equiv_pos_site_id
 _symmetry_equiv_pos_as_xyz
  1  'x, y, z'
loop_
 _atom_site_type_symbol
 _atom_site_label
 _atom_site_symmetry_multiplicity
 _atom_site_fract_x
 _atom_site_fract_y
 _atom_site_fract_z
 _atom_site_occupancy
 _atom_site_hle17_bader_spin_density
 _atom_site_hle17_ddec_charge
 _atom_site_hle17_ddec_spin_density
 _atom_site_hle17_ddec_sum_bond_order
 _atom_site_hle17_magmom
 _atom_site_hse06_10hf_bader_spin_density
 _atom_site_hse06_10hf_ddec_charge
 _atom_site_hse06_10hf_ddec_spin_density
 _atom_site_hse06_10hf_ddec_sum_bond_order
 _atom_site_hse06_10hf_magmom
 _atom_site_hse06_bader_spin_density
 _atom_site_hse06_ddec_charge
 _atom_site_hse06_ddec_spin_density
 _atom_site_hse06_ddec_sum_bond_order
 _atom_site_hse06_magmom
 _atom_site_pbe_bader_spin_density
 _atom_site_pbe_cm5_charge
 _atom_site_pbe_ddec_charge
 _atom_site_pbe_ddec_spin_density
 _atom_site_pbe_ddec_sum_bond_order
 _atom_site_pbe_magmom
Cd  Cd0  1  0.99999879  0.00000160  0.99999996  1  0  1.040077  0  1.840205  0  0  0.860316  0  2.303969  0  0  0.910116  0  2.258085  0  0  0.671757  0.82537  0  2.334959  0
H  H1  1  0.45082642  0.68838587  0.90012864  1  0  0.077166  0  0.978657  0  0  0.083548  0  1.04726  0  0  0.086287  0  1.045302  0  0  0.100472  0.081426  0  1.048869  0
H  H2  1  0.54917216  0.31161478  0.09987274  1  0  0.077155  0  0.97867  0  0  0.08352  0  1.047294  0  0  0.086252  0  1.045344  0  0  0.100471  0.08141  0  1.048891  0
H  H3  1  0.78225505  0.55785892  0.98510518  1  0  0.12756  0  0.980547  0  0  0.135252  0  1.041192  0  0  0.139211  0  1.039336  0  0  0.108785  0.132362  0  1.042733  0
H  H4  1  0.21774286  0.44214317  0.01489740  1  0  0.127525  0  0.980532  0  0  0.135249  0  1.041155  0  0  0.139208  0  1.0393  0  0  0.108791  0.13237  0  1.042684  0
H  H5  1  0.48450059  0.94232785  0.40665894  1  0  0.103622  0  0.972596  0  0  0.111088  0  1.040857  0  0  0.114542  0  1.038924  0  0  0.102941  0.10857  0  1.042499  0
H  H6  1  0.51549600  0.05767424  0.59334394  1  0  0.103509  0  0.972715  0  0  0.111018  0  1.04093  0  0  0.114471  0  1.038999  0  0  0.102912  0.1085  0  1.042572  0
H  H7  1  0.16706252  0.04777702  0.30834078  1  0  0.078111  0  0.973584  0  0  0.08194  0  1.047067  0  0  0.085177  0  1.043837  0  0  0.103156  0.079544  0  1.049453  0
H  H8  1  0.83293275  0.95222506  0.69166117  1  0  0.078044  0  0.973646  0  0  0.081863  0  1.047159  0  0  0.085101  0  1.043928  0  0  0.103105  0.079466  0  1.049544  0
H  H9  1  0.05978383  0.71899816  0.51223232  1  0  0.083717  0  0.948579  0  0  0.094747  0  1.019854  0  0  0.095764  0  1.018685  0  0  0.099076  0.093892  0  1.020892  0
H  H10  1  0.94021938  0.28100100  0.48776209  1  0  0.083684  0  0.948558  0  0  0.094704  0  1.019863  0  0  0.09572  0  1.018696  0  0  0.099048  0.093844  0  1.020898  0
H  H11  1  0.17042475  0.65236515  0.29817341  1  0  0.095828  0  0.947541  0  0  0.110421  0  1.005732  0  0  0.111358  0  1.006075  0  0  0.116557  0.109641  0  1.005681  0
H  H12  1  0.82957782  0.34763259  0.70182376  1  0  0.095823  0  0.947554  0  0  0.110428  0  1.005723  0  0  0.111364  0  1.006068  0  0  0.11656  0.109639  0  1.005678  0
H  H13  1  0.65505801  0.59379634  0.49020128  1  0  0.091295  0  0.93484  0  0  0.107418  0  0.994684  0  0  0.107956  0  0.995036  0  0  0.114716  0.106945  0  0.994545  0
H  H14  1  0.34494587  0.40620141  0.50979682  1  0  0.091299  0  0.934872  0  0  0.10742  0  0.994709  0  0  0.107957  0  0.995058  0  0  0.114714  0.106947  0  0.994569  0
H  H15  1  0.73228178  0.68911135  0.63001177  1  0  0.074634  0  0.918489  0  0  0.090568  0  0.98227  0  0  0.090506  0  0.982878  0  0  0.107741  0.09056  0  0.981866  0
H  H16  1  0.26772145  0.31088498  0.36998787  1  0  0.074638  0  0.918425  0  0  0.09055  0  0.982233  0  0  0.090486  0  0.982839  0  0  0.107734  0.090543  0  0.981829  0
C  C17  1  0.46744894  0.73783683  0.01213994  1  0  0.117056  0  3.711188  0  0  0.08806  0  3.961282  0  0  0.093793  0  3.980013  0  0  0.039501  0.084339  0  3.948677  0
C  C18  1  0.53255561  0.26215951  0.98786062  1  0  0.117183  0  3.711332  0  0  0.088196  0  3.961426  0  0  0.093938  0  3.980157  0  0  0.039591  0.084464  0  3.948815  0
C  C19  1  0.64918755  0.66886144  0.05800192  1  0  -0.121122  0  3.680426  0  0  -0.142692  0  3.926343  0  0  -0.147928  0  3.945445  0  0  -0.079607  -0.139363  0  3.913813  0
C  C20  1  0.35080903  0.33114067  0.94200340  1  0  -0.12119  0  3.680231  0  0  -0.142747  0  3.926199  0  0  -0.147981  0  3.945301  0  0  -0.079668  -0.139426  0  3.913669  0
C  C21  1  0.65966004  0.74344422  0.20045657  1  0  0.014165  0  3.746852  0  0  0.030991  0  3.984738  0  0  0.029907  0  4.004142  0  0  0.009561  0.031628  0  3.971891  0
C  C22  1  0.34034050  0.25655786  0.79954297  1  0  0.014232  0  3.746568  0  0  0.030921  0  3.984716  0  0  0.02983  0  4.004135  0  0  0.009536  0.031558  0  3.971869  0
C  C23  1  0.48495259  0.88084229  0.29423555  1  0  -0.130834  0  3.716116  0  0  -0.155435  0  3.96992  0  0  -0.160263  0  3.989624  0  0  -0.080548  -0.152418  0  3.956927  0
C  C24  1  0.51504200  0.11916123  0.70576760  1  0  -0.130798  0  3.716101  0  0  -0.155379  0  3.96995  0  0  -0.160206  0  3.989659  0  0  -0.080523  -0.152364  0  3.956957  0
C  C25  1  0.30852715  0.94210229  0.23965903  1  0  0.127337  0  3.706984  0  0  0.097396  0  3.960836  0  0  0.103634  0  3.978556  0  0  0.044401  0.09335  0  3.948829  0
C  C26  1  0.69146944  0.05789978  0.76034140  1  0  0.127508  0  3.70681  0  0  0.097571  0  3.960653  0  0  0.10381  0  3.978373  0  0  0.044495  0.093526  0  3.948642  0
C  C27  1  0.86045858  0.69199695  0.23017375  1  0  0.49733  0  3.805005  0  0  0.441614  0  4.094835  0  0  0.472622  0  4.09228  0  0  0.249913  0.420713  0  4.09595  0
C  C28  1  0.13953801  0.30800511  0.76982546  1  0  0.497467  0  3.804699  0  0  0.441716  0  4.094688  0  0  0.472723  0  4.092133  0  0  0.249949  0.420818  0  4.095798  0
C  C29  1  0.09056617  0.61734712  0.41494698  1  0  -0.022269  0  3.61618  0  0  -0.082652  0  3.873164  0  0  -0.078609  0  3.883725  0  0  -0.061699  -0.08534  0  3.866138  0
C  C30  1  0.90943839  0.38264921  0.58505114  1  0  -0.022185  0  3.616154  0  0  -0.082561  0  3.873181  0  0  -0.078514  0  3.883747  0  0  -0.061651  -0.085225  0  3.866132  0
C  C31  1  0.78443200  0.58725238  0.52698344  1  0  -0.011615  0  3.625804  0  0  -0.075264  0  3.887334  0  0  -0.070766  0  3.89846  0  0  -0.052567  -0.078114  0  3.879641  0
C  C32  1  0.21557120  0.41274681  0.47301463  1  0  -0.011592  0  3.625782  0  0  -0.075196  0  3.887266  0  0  -0.070687  0  3.89838  0  0  -0.052546  -0.078043  0  3.879579  0
N  N33  1  0.30008633  0.87424664  0.10009317  1  0  -0.323442  0  3.26317  0  0  -0.246302  0  3.521587  0  0  -0.264663  0  3.541056  0  0  -0.325756  -0.233728  0  3.508049  0
N  N34  1  0.69990827  0.12575688  0.89990998  1  0  -0.323581  0  3.263414  0  0  -0.246435  0  3.52184  0  0  -0.264793  0  3.541299  0  0  -0.325821  -0.233859  0  3.508305  0
N  N35  1  0.90317427  0.64065653  0.38449292  1  0  -0.189145  0  3.401928  0  0  -0.103818  0  3.642632  0  0  -0.12508  0  3.664193  0  0  -0.267201  -0.089515  0  3.627681  0
N  N36  1  0.09682631  0.35934265  0.61550452  1  0  -0.189282  0  3.401974  0  0  -0.103979  0  3.642764  0  0  -0.125243  0  3.664318  0  0  -0.26726  -0.08968  0  3.627807  0
Cl  Cl37  1  0.79932049  0.15151371  0.29013989  1  0  -0.634864  0  0.750097  0  0  -0.57709  0  0.985528  0  0  -0.5943  0  0.968411  0  0  -0.365142  -0.564431  0  0.997083  0
Cl  Cl38  1  0.20067876  0.84848550  0.70986152  1  0  -0.634858  0  0.750093  0  0  -0.577084  0  0.985518  0  0  -0.594296  0  0.968403  0  0  -0.365147  -0.564423  0  0.997071  0
O  O39  1  0.98460928  0.70378884  0.10569103  1  0  -0.574551  0  2.07227  0  0  -0.519926  0  2.328824  0  0  -0.544186  0  2.319  0  0  -0.300167  -0.502732  0  2.33464  0
O  O40  1  0.01538799  0.29621177  0.89430698  1  0  -0.574636  0  2.072233  0  0  -0.519956  0  2.328804  0  0  -0.544218  0  2.31898  0  0  -0.300179  -0.502763  0  2.334617  0
