# generated using pymatgen
data_CdH16C19(NO2)4
_symmetry_space_group_name_H-M   'P 1'
_cell_length_a   7.87064231
_cell_length_b   11.35810327
_cell_length_c   11.96569008
_cell_angle_alpha   84.95660326
_cell_angle_beta   73.32278059
_cell_angle_gamma   82.28497955
_symmetry_Int_Tables_number   1
_chemical_formula_structural   CdH16C19(NO2)4
_chemical_formula_sum   'Cd2 H32 C38 N8 O16'
_cell_volume   1014.03494432
_cell_formula_units_Z   2
loop_
 _symmetry_equiv_pos_site_id
 _symmetry_equiv_pos_as_xyz
  1  'x, y, z'
loop_
 _atom_site_type_symbol
 _atom_site_label
 _atom_site_symmetry_multiplicity
 _atom_site_fract_x
 _atom_site_fract_y
 _atom_site_fract_z
 _atom_site_occupancy
 _atom_site_hle17_bader_spin_density
 _atom_site_hle17_ddec_charge
 _atom_site_hle17_ddec_spin_density
 _atom_site_hle17_ddec_sum_bond_order
 _atom_site_hle17_magmom
 _atom_site_hse06_10hf_bader_spin_density
 _atom_site_hse06_10hf_ddec_charge
 _atom_site_hse06_10hf_ddec_spin_density
 _atom_site_hse06_10hf_ddec_sum_bond_order
 _atom_site_hse06_10hf_magmom
 _atom_site_hse06_bader_spin_density
 _atom_site_hse06_ddec_charge
 _atom_site_hse06_ddec_spin_density
 _atom_site_hse06_ddec_sum_bond_order
 _atom_site_hse06_magmom
 _atom_site_pbe_bader_spin_density
 _atom_site_pbe_cm5_charge
 _atom_site_pbe_ddec_charge
 _atom_site_pbe_ddec_spin_density
 _atom_site_pbe_ddec_sum_bond_order
 _atom_site_pbe_magmom
Cd  Cd0  1  0.23835873  0.99442789  0.99682343  1  0  1.181802  0  1.621208  0  0  0.995548  0  2.066694  0  0  1.054269  0  2.012831  0  0  0.785818  0.95345  0  2.103709  0
Cd  Cd1  1  0.76164368  0.00557193  0.00317630  1  0  1.181822  0  1.621176  0  0  0.995574  0  2.066657  0  0  1.054296  0  2.012796  0  0  0.785815  0.953473  0  2.103666  0
H  H2  1  0.61224616  0.68941058  0.77035670  1  0  0.111709  0  0.939972  0  0  0.11998  0  1.001439  0  0  0.123495  0  0.999718  0  0  0.112675  0.117409  0  1.002802  0
H  H3  1  0.38775520  0.31058747  0.22964086  1  0  0.111707  0  0.939947  0  0  0.120003  0  1.001385  0  0  0.123503  0  0.999683  0  0  0.112665  0.117429  0  1.002745  0
H  H4  1  0.86154927  0.58959236  0.61339298  1  0  0.129732  0  0.960622  0  0  0.135019  0  1.025363  0  0  0.138893  0  1.022344  0  0  0.11607  0.132216  0  1.027622  0
H  H5  1  0.13845547  0.41040924  0.38660364  1  0  0.129728  0  0.960618  0  0  0.135027  0  1.025352  0  0  0.138902  0  1.022333  0  0  0.116057  0.13222  0  1.027606  0
H  H6  1  0.09611650  0.91822373  0.52546900  1  0  0.108158  0  0.96837  0  0  0.115001  0  1.034633  0  0  0.118176  0  1.032686  0  0  0.111239  0.11268  0  1.036116  0
H  H7  1  0.90388282  0.08177876  0.47453194  1  0  0.10815  0  0.968343  0  0  0.115008  0  1.034596  0  0  0.118169  0  1.032665  0  0  0.111244  0.112685  0  1.036078  0
H  H8  1  0.84750134  0.01755483  0.68371237  1  0  0.115317  0  0.9511  0  0  0.12023  0  1.017208  0  0  0.123977  0  1.014807  0  0  0.107662  0.11747  0  1.019102  0
H  H9  1  0.15249827  0.98244589  0.31628782  1  0  0.115309  0  0.951126  0  0  0.120219  0  1.01723  0  0  0.123966  0  1.014828  0  0  0.107665  0.117461  0  1.019124  0
H  H10  1  0.03406521  0.36156252  0.75171998  1  0  0.109728  0  0.928731  0  0  0.121125  0  0.984777  0  0  0.124681  0  0.983003  0  0  0.112772  0.118526  0  0.986197  0
H  H11  1  0.96593910  0.63844175  0.24827818  1  0  0.10974  0  0.92871  0  0  0.12113  0  0.984767  0  0  0.124688  0  0.982985  0  0  0.112763  0.118525  0  0.986189  0
H  H12  1  0.27053282  0.43727071  0.57992098  1  0  0.128444  0  0.961807  0  0  0.130298  0  1.031244  0  0  0.134387  0  1.027926  0  0  0.113454  0.127363  0  1.033681  0
H  H13  1  0.72947239  0.56272822  0.42007744  1  0  0.12843  0  0.961772  0  0  0.130285  0  1.031216  0  0  0.13437  0  1.027904  0  0  0.113469  0.127351  0  1.033648  0
H  H14  1  0.52884023  0.08073015  0.52631279  1  0  0.107914  0  0.963343  0  0  0.115758  0  1.027468  0  0  0.118944  0  1.02542  0  0  0.110168  0.113443  0  1.029025  0
H  H15  1  0.47115851  0.91926790  0.47368779  1  0  0.107895  0  0.963316  0  0  0.115761  0  1.027417  0  0  0.118953  0  1.025352  0  0  0.11016  0.113446  0  1.028977  0
H  H16  1  0.29204019  0.00424146  0.69722740  1  0  0.120082  0  0.945029  0  0  0.12748  0  1.006509  0  0  0.131206  0  1.004459  0  0  0.109939  0.124757  0  1.008127  0
H  H17  1  0.70795529  0.99576015  0.30277352  1  0  0.120124  0  0.944953  0  0  0.127508  0  1.006448  0  0  0.131237  0  1.004401  0  0  0.109949  0.124785  0  1.008064  0
H  H18  1  0.85572417  0.28098433  0.06041500  1  0  0.132532  0  0.938212  0  0  0.152527  0  0.998466  0  0  0.154977  0  0.996935  0  0  0.094952  0.15077  0  0.999582  0
H  H19  1  0.14427326  0.71901372  0.93958750  1  0  0.132535  0  0.938216  0  0  0.152534  0  0.998466  0  0  0.154984  0  0.996933  0  0  0.094957  0.150781  0  0.99958  0
H  H20  1  0.91414414  0.34841144  0.17051097  1  0  0.119873  0  0.93717  0  0  0.140066  0  0.996597  0  0  0.141929  0  0.995667  0  0  0.092397  0.138747  0  0.997238  0
H  H21  1  0.08585462  0.65158661  0.82949211  1  0  0.11985  0  0.937212  0  0  0.140084  0  0.99659  0  0  0.141947  0  0.995659  0  0  0.092406  0.138764  0  0.997232  0
H  H22  1  0.95363153  0.19176277  0.15892102  1  0  0.13098  0  0.953297  0  0  0.149626  0  1.01656  0  0  0.151604  0  1.016175  0  0  0.0928  0.148203  0  1.016865  0
H  H23  1  0.04636971  0.80823617  0.84107900  1  0  0.130974  0  0.953357  0  0  0.149623  0  1.016608  0  0  0.1516  0  1.016224  0  0  0.092796  0.148201  0  1.016916  0
H  H24  1  0.16422627  0.48539871  0.01060388  1  0  0.137685  0  0.963794  0  0  0.15181  0  1.016111  0  0  0.154566  0  1.016639  0  0  0.10769  0.149842  0  1.015878  0
H  H25  1  0.83577500  0.51460021  0.98939948  1  0  0.137591  0  0.963848  0  0  0.151747  0  1.016128  0  0  0.154502  0  1.016657  0  0  0.107664  0.149778  0  1.015893  0
H  H26  1  0.66548537  0.37680105  0.83789755  1  0  0.137682  0  0.950992  0  0  0.153521  0  1.01632  0  0  0.156952  0  1.013184  0  0  0.096533  0.151057  0  1.018552  0
H  H27  1  0.33451542  0.62320056  0.16210234  1  0  0.137606  0  0.951061  0  0  0.153474  0  1.016367  0  0  0.156901  0  1.013227  0  0  0.096508  0.151009  0  1.018599  0
H  H28  1  0.52903988  0.51218590  0.88528398  1  0  0.118665  0  0.948865  0  0  0.140856  0  1.00597  0  0  0.141995  0  1.006377  0  0  0.09543  0.14003  0  1.005679  0
H  H29  1  0.47095693  0.48781570  0.11471751  1  0  0.118677  0  0.948871  0  0  0.140877  0  1.005974  0  0  0.142014  0  1.006381  0  0  0.095442  0.14005  0  1.005682  0
H  H30  1  0.52520704  0.45073823  0.75475118  1  0  0.134652  0  0.951409  0  0  0.149291  0  1.019417  0  0  0.151773  0  1.017516  0  0  0.095009  0.147571  0  1.02071  0
H  H31  1  0.47478626  0.54926071  0.24525204  1  0  0.134694  0  0.951469  0  0  0.149324  0  1.019489  0  0  0.151807  0  1.017585  0  0  0.095062  0.147606  0  1.020775  0
H  H32  1  0.50396489  0.18108570  0.87061754  1  0  0.312442  0  0.892513  0  0  0.29527  0  0.952278  0  0  0.302471  0  0.946592  0  0  0.329508  0.290173  0  0.956405  0
H  H33  1  0.49603503  0.81891324  0.12938357  1  0  0.312408  0  0.89253  0  0  0.295237  0  0.952303  0  0  0.30244  0  0.946614  0  0  0.329505  0.290142  0  0.95643  0
C  C34  1  0.56701281  0.91956328  0.82733446  1  0  0.643498  0  3.913506  0  0  0.588144  0  4.211184  0  0  0.622849  0  4.204822  0  0  0.205847  0.564582  0  4.214577  0
C  C35  1  0.43298739  0.08043388  0.17266423  1  0  0.643399  0  3.913576  0  0  0.588051  0  4.211239  0  0  0.622758  0  4.204875  0  0  0.205805  0.564488  0  4.214628  0
C  C36  1  0.71576614  0.85893469  0.73522612  1  0  -0.035777  0  3.710896  0  0  -0.016028  0  3.946209  0  0  -0.021917  0  3.96808  0  0  -0.003453  -0.012147  0  3.931482  0
C  C37  1  0.28423228  0.14106514  0.26477354  1  0  -0.035809  0  3.710924  0  0  -0.016051  0  3.94621  0  0  -0.021945  0  3.968088  0  0  -0.003475  -0.012167  0  3.931478  0
C  C38  1  0.71952044  0.73830673  0.71679624  1  0  -0.046305  0  3.6895  0  0  -0.073035  0  3.942825  0  0  -0.07463  0  3.963868  0  0  -0.073791  -0.071929  0  3.928653  0
C  C39  1  0.28048343  0.26169220  0.28320161  1  0  -0.046229  0  3.689564  0  0  -0.072987  0  3.942895  0  0  -0.074568  0  3.963947  0  0  -0.07374  -0.071882  0  3.928716  0
C  C40  1  0.85722585  0.68269663  0.63010971  1  0  -0.101067  0  3.695903  0  0  -0.123944  0  3.951014  0  0  -0.12532  0  3.970998  0  0  -0.075648  -0.122846  0  3.937447  0
C  C41  1  0.14277788  0.31730319  0.36988892  1  0  -0.101087  0  3.69602  0  0  -0.123992  0  3.951141  0  0  -0.125371  0  3.971123  0  0  -0.075639  -0.122883  0  3.937565  0
C  C42  1  0.98775721  0.75094090  0.56132330  1  0  0.084497  0  3.713022  0  0  0.066756  0  3.965776  0  0  0.064298  0  3.989493  0  0  0.079754  0.068235  0  3.949802  0
C  C43  1  0.01224653  0.24905892  0.43867533  1  0  0.084487  0  3.713073  0  0  0.066782  0  3.965778  0  0  0.064325  0  3.989496  0  0  0.079745  0.068254  0  3.949808  0
C  C44  1  0.98848353  0.87035164  0.57939100  1  0  -0.088908  0  3.729832  0  0  -0.113129  0  3.98438  0  0  -0.113749  0  4.003938  0  0  -0.075718  -0.112495  0  3.971112  0
C  C45  1  0.01151889  0.12964818  0.42060956  1  0  -0.088892  0  3.729861  0  0  -0.113143  0  3.984399  0  0  -0.113752  0  4.003967  0  0  -0.075745  -0.112506  0  3.971131  0
C  C46  1  0.85198329  0.92423469  0.66744748  1  0  -0.060632  0  3.692797  0  0  -0.080752  0  3.938466  0  0  -0.082585  0  3.958579  0  0  -0.077116  -0.079459  0  3.924893  0
C  C47  1  0.14801366  0.07576603  0.33255238  1  0  -0.060617  0  3.692888  0  0  -0.080728  0  3.938537  0  0  -0.082555  0  3.958644  0  0  -0.077111  -0.079437  0  3.924962  0
C  C48  1  0.00285687  0.13337641  0.83164611  1  0  0.624055  0  3.932392  0  0  0.570744  0  4.229058  0  0  0.604506  0  4.22404  0  0  0.196514  0.547802  0  4.231548  0
C  C49  1  0.99714155  0.86662342  0.16835271  1  0  0.624027  0  3.932421  0  0  0.570713  0  4.22909  0  0  0.604475  0  4.224069  0  0  0.196462  0.547772  0  4.231581  0
C  C50  1  0.14809751  0.17884628  0.73315224  1  0  -0.031845  0  3.717603  0  0  -0.015838  0  3.960596  0  0  -0.020752  0  3.98172  0  0  -0.00647  -0.012574  0  3.946314  0
C  C51  1  0.85190077  0.82115444  0.26684737  1  0  -0.031817  0  3.717612  0  0  -0.015814  0  3.960604  0  0  -0.020726  0  3.981729  0  0  -0.006437  -0.01255  0  3.946317  0
C  C52  1  0.14299978  0.30091460  0.70184373  1  0  -0.048756  0  3.688368  0  0  -0.07712  0  3.945498  0  0  -0.078692  0  3.965691  0  0  -0.075013  -0.076043  0  3.931853  0
C  C53  1  0.85699982  0.69908612  0.29815562  1  0  -0.048789  0  3.688358  0  0  -0.077146  0  3.945492  0  0  -0.078715  0  3.965681  0  0  -0.075033  -0.076068  0  3.931846  0
C  C54  1  0.27320154  0.34333193  0.60715546  1  0  -0.086729  0  3.687756  0  0  -0.110717  0  3.94519  0  0  -0.111682  0  3.964271  0  0  -0.072261  -0.109845  0  3.932125  0
C  C55  1  0.72680115  0.65666612  0.39284268  1  0  -0.086591  0  3.687602  0  0  -0.110582  0  3.945068  0  0  -0.111551  0  3.964156  0  0  -0.07222  -0.109712  0  3.931998  0
C  C56  1  0.40714242  0.26122325  0.54455816  1  0  0.073444  0  3.712887  0  0  0.066185  0  3.967262  0  0  0.063763  0  3.990918  0  0  0.078206  0.067636  0  3.951322  0
C  C57  1  0.59286044  0.73877390  0.45544086  1  0  0.07331  0  3.712918  0  0  0.066038  0  3.967349  0  0  0.063618  0  3.990994  0  0  0.078154  0.067488  0  3.951405  0
C  C58  1  0.41855997  0.13994074  0.57635080  1  0  -0.091439  0  3.726518  0  0  -0.115141  0  3.979611  0  0  -0.115809  0  3.999157  0  0  -0.07944  -0.114498  0  3.966321  0
C  C59  1  0.58143726  0.86005820  0.42364748  1  0  -0.091381  0  3.726455  0  0  -0.115088  0  3.979531  0  0  -0.115753  0  3.999075  0  0  -0.079437  -0.114448  0  3.966241  0
C  C60  1  0.28808555  0.09869221  0.67116242  1  0  -0.0679  0  3.690165  0  0  -0.089673  0  3.93887  0  0  -0.09168  0  3.958898  0  0  -0.08151  -0.088296  0  3.925343  0
C  C61  1  0.71191155  0.90130762  0.32883749  1  0  -0.067985  0  3.690119  0  0  -0.089743  0  3.938839  0  0  -0.091755  0  3.958868  0  0  -0.081527  -0.088365  0  3.925309  0
C  C62  1  0.95639156  0.27731111  0.10863741  1  0  -0.368087  0  3.708847  0  0  -0.447926  0  3.947133  0  0  -0.451551  0  3.953549  0  0  -0.242952  -0.445191  0  3.942518  0
C  C63  1  0.04360791  0.72269049  0.89136357  1  0  -0.368088  0  3.708969  0  0  -0.447956  0  3.947247  0  0  -0.451581  0  3.953664  0  0  -0.242962  -0.44522  0  3.942635  0
C  C64  1  0.13686998  0.29073881  0.02772678  1  0  0.280457  0  3.784918  0  0  0.277615  0  4.054075  0  0  0.288978  0  4.074263  0  0  0.095108  0.27023  0  4.039987  0
C  C65  1  0.86312830  0.70926190  0.97227367  1  0  0.280489  0  3.78495  0  0  0.277601  0  4.054187  0  0  0.288963  0  4.074377  0  0  0.09511  0.270214  0  4.040101  0
C  C66  1  0.21928454  0.39522265  0.98753758  1  0  -0.358667  0  3.70652  0  0  -0.381167  0  3.95581  0  0  -0.394036  0  3.97616  0  0  -0.126963  -0.372694  0  3.941902  0
C  C67  1  0.78071509  0.60477806  0.01246428  1  0  -0.358516  0  3.706551  0  0  -0.381029  0  3.9558  0  0  -0.393897  0  3.97615  0  0  -0.126879  -0.372553  0  3.941887  0
C  C68  1  0.38762605  0.35998142  0.91306467  1  0  0.300611  0  3.734263  0  0  0.291945  0  3.998833  0  0  0.303476  0  4.016712  0  0  0.109347  0.284541  0  3.986325  0
C  C69  1  0.61237346  0.64002017  0.08693965  1  0  0.300532  0  3.734413  0  0  0.291923  0  3.998922  0  0  0.303455  0  4.016795  0  0  0.109345  0.28452  0  3.986414  0
C  C70  1  0.53520270  0.42859767  0.84410758  1  0  -0.374866  0  3.706374  0  0  -0.449754  0  3.937789  0  0  -0.453036  0  3.942915  0  0  -0.236898  -0.447236  0  3.933969  0
C  C71  1  0.46479575  0.57140215  0.15589457  1  0  -0.374819  0  3.706569  0  0  -0.449746  0  3.937935  0  0  -0.453032  0  3.943079  0  0  -0.236922  -0.44723  0  3.934111  0
N  N72  1  0.12785679  0.69668545  0.46436772  1  0  0.464446  0  3.949513  0  0  0.519524  0  4.212421  0  0  0.540343  0  4.220795  0  0  0.054535  0.50558  0  4.206736  0
N  N73  1  0.87214400  0.30331615  0.53563217  1  0  0.464582  0  3.949677  0  0  0.519681  0  4.212553  0  0  0.540501  0  4.220931  0  0  0.054659  0.505737  0  4.206871  0
N  N74  1  0.53658036  0.30221155  0.43809127  1  0  0.490534  0  3.909067  0  0  0.514582  0  4.215317  0  0  0.53539  0  4.223552  0  0  0.052541  0.500663  0  4.209712  0
N  N75  1  0.46342380  0.69778561  0.56190582  1  0  0.49058  0  3.909036  0  0  0.51464  0  4.215287  0  0  0.535449  0  4.223518  0  0  0.052573  0.500724  0  4.20968  0
N  N76  1  0.24960299  0.19612993  0.98015179  1  0  -0.359154  0  3.148647  0  0  -0.303762  0  3.431125  0  0  -0.325023  0  3.452035  0  0  -0.268774  -0.289154  0  3.416627  0
N  N77  1  0.75039412  0.80386990  0.01984979  1  0  -0.359257  0  3.148663  0  0  -0.303857  0  3.431194  0  0  -0.325119  0  3.452105  0  0  -0.268868  -0.289249  0  3.416698  0
N  N78  1  0.39911549  0.24034246  0.91127063  1  0  -0.204963  0  3.457739  0  0  -0.154698  0  3.693926  0  0  -0.167104  0  3.71362  0  0  -0.28775  -0.146549  0  3.680579  0
N  N79  1  0.60088547  0.75965825  0.08873097  1  0  -0.204838  0  3.457776  0  0  -0.154632  0  3.693995  0  0  -0.167036  0  3.713687  0  0  -0.287729  -0.146482  0  3.680647  0
O  O80  1  0.42285040  0.87156673  0.86546553  1  0  -0.590255  0  1.977122  0  0  -0.524511  0  2.223572  0  0  -0.553741  0  2.213335  0  0  -0.306295  -0.504067  0  2.229852  0
O  O81  1  0.57714951  0.12843221  0.13453392  1  0  -0.590253  0  1.977189  0  0  -0.524512  0  2.223638  0  0  -0.55374  0  2.213397  0  0  -0.306298  -0.504068  0  2.229912  0
O  O82  1  0.59105754  0.01745050  0.86284637  1  0  -0.688068  0  2.066401  0  0  -0.623003  0  2.325375  0  0  -0.650611  0  2.312776  0  0  -0.332251  -0.603405  0  2.333249  0
O  O83  1  0.40893987  0.98254755  0.13715447  1  0  -0.687985  0  2.066462  0  0  -0.622925  0  2.325433  0  0  -0.650538  0  2.312843  0  0  -0.332215  -0.603332  0  2.333311  0
O  O84  1  0.14467964  0.58678418  0.45984116  1  0  -0.349093  0  1.805626  0  0  -0.341977  0  2.0134  0  0  -0.35431  0  2.009469  0  0  -0.120782  -0.333687  0  2.016148  0
O  O85  1  0.85532365  0.41321831  0.54015817  1  0  -0.349139  0  1.805586  0  0  -0.342077  0  2.013389  0  0  -0.354402  0  2.009437  0  0  -0.120843  -0.333787  0  2.016139  0
O  O86  1  0.22141016  0.76338068  0.39120162  1  0  -0.346484  0  1.765111  0  0  -0.338796  0  1.964221  0  0  -0.350699  0  1.962379  0  0  -0.124181  -0.330901  0  1.965667  0
O  O87  1  0.77859075  0.23662004  0.60879581  1  0  -0.346549  0  1.765304  0  0  -0.338865  0  1.964415  0  0  -0.350763  0  1.962563  0  0  -0.124238  -0.330959  0  1.965846  0
O  O88  1  0.03444002  0.02451682  0.87170246  1  0  -0.696426  0  2.071491  0  0  -0.612706  0  2.334522  0  0  -0.646392  0  2.324042  0  0  -0.339877  -0.58873  0  2.340564  0
O  O89  1  0.96555944  0.97548479  0.12829769  1  0  -0.696462  0  2.071519  0  0  -0.612723  0  2.334523  0  0  -0.64642  0  2.324071  0  0  -0.339886  -0.588751  0  2.340579  0
O  O90  1  0.85799800  0.19666592  0.87098486  1  0  -0.584024  0  1.929782  0  0  -0.532591  0  2.158073  0  0  -0.557874  0  2.150097  0  0  -0.301756  -0.514828  0  2.162948  0
O  O91  1  0.14199922  0.80333302  0.12901176  1  0  -0.583982  0  1.929808  0  0  -0.532541  0  2.158087  0  0  -0.557822  0  2.150108  0  0  -0.301689  -0.514778  0  2.162964  0
O  O92  1  0.64954123  0.22636126  0.38102844  1  0  -0.367016  0  1.765672  0  0  -0.346324  0  1.981833  0  0  -0.35877  0  1.979482  0  0  -0.127189  -0.33799  0  1.983523  0
O  O93  1  0.35046041  0.77363501  0.61896754  1  0  -0.366978  0  1.765528  0  0  -0.346301  0  1.981693  0  0  -0.358748  0  1.979341  0  0  -0.127183  -0.337965  0  1.983384  0
O  O94  1  0.52470057  0.40996652  0.40914431  1  0  -0.352499  0  1.776066  0  0  -0.336325  0  1.994902  0  0  -0.34795  0  1.990712  0  0  -0.119867  -0.328428  0  1.997686  0
O  O95  1  0.47530747  0.59003151  0.59085614  1  0  -0.352565  0  1.776144  0  0  -0.336392  0  1.994998  0  0  -0.348021  0  1.990807  0  0  -0.119919  -0.328498  0  1.997789  0
