# generated using pymatgen
data_CoH22C24(NO)4
_symmetry_space_group_name_H-M   'P 1'
_cell_length_a   6.92009169
_cell_length_b   8.48605872
_cell_length_c   18.95070000
_cell_angle_alpha   96.35097002
_cell_angle_beta   98.03116580
_cell_angle_gamma   103.45992503
_symmetry_Int_Tables_number   1
_chemical_formula_structural   CoH22C24(NO)4
_chemical_formula_sum   'Co2 H44 C48 N8 O8'
_cell_volume   1059.77979433
_cell_formula_units_Z   2
loop_
 _symmetry_equiv_pos_site_id
 _symmetry_equiv_pos_as_xyz
  1  'x, y, z'
loop_
 _atom_site_type_symbol
 _atom_site_label
 _atom_site_symmetry_multiplicity
 _atom_site_fract_x
 _atom_site_fract_y
 _atom_site_fract_z
 _atom_site_occupancy
 _atom_site_hle17_ddec_charge
 _atom_site_hle17_ddec_spin_density
 _atom_site_hle17_ddec_sum_bond_order
 _atom_site_hle17_magmom
 _atom_site_hse06_10hf_ddec_charge
 _atom_site_hse06_10hf_ddec_spin_density
 _atom_site_hse06_10hf_ddec_sum_bond_order
 _atom_site_hse06_10hf_magmom
 _atom_site_hse06_ddec_charge
 _atom_site_hse06_ddec_spin_density
 _atom_site_hse06_ddec_sum_bond_order
 _atom_site_hse06_magmom
 _atom_site_pbe_bader_charge
 _atom_site_pbe_bader_spin_density
 _atom_site_pbe_cm5_charge
 _atom_site_pbe_ddec_charge
 _atom_site_pbe_ddec_spin_density
 _atom_site_pbe_ddec_sum_bond_order
 _atom_site_pbe_magmom
Co  Co0  1  0.95380402  0.50407080  0.24796254  1  0.923465  -2.809626  2.011193  -2.531  0.866354  -2.82238  2.457143  -2.593  0.962127  -2.869439  2.36843  -2.683  1.192044  -2.560769  0.655684  0.790187  -2.776395  2.524408  -2.508
Co  Co1  1  0.04619242  0.49593116  0.75203542  1  0.923423  -2.809575  2.011197  -2.531  0.866438  -2.822358  2.457102  -2.593  0.962226  -2.869431  2.368389  -2.683  1.191749  -2.560792  0.655722  0.790289  -2.776396  2.524368  -2.508
H  H2  1  0.91029425  0.20793639  0.11947642  1  0.107429  -7e-05  1.004954  -0.001  0.114247  -0.000185  1.068379  -0.001  0.116242  -0.000114  1.068373  -0.001  0.166215  -0.000871  0.114973  0.112765  -0.000257  1.068573  -0.001
H  H3  1  0.08970283  0.79205823  0.88052437  1  0.107375  -7e-05  1.005011  -0.001  0.114188  -0.000185  1.068448  -0.001  0.116183  -0.000114  1.068442  -0.001  0.166179  -0.000871  0.114952  0.112707  -0.000257  1.068641  -0.001
H  H4  1  0.17369200  0.14774128  0.17880266  1  0.102157  9.9e-05  0.918807  0.0  0.119025  8.1e-05  0.977555  0.0  0.120293  9.1e-05  0.976429  0.0  0.115446  -4.9e-05  0.1224  0.118022  6.2e-05  0.978451  0.0
H  H5  1  0.82630324  0.85225211  0.82119588  1  0.102108  9.3e-05  0.918863  0.0  0.119003  8.1e-05  0.977582  0.0  0.120253  9.1e-05  0.976478  0.0  0.115363  -4.9e-05  0.122362  0.117993  6.2e-05  0.978484  0.0
H  H6  1  0.21807419  0.94845990  0.16793161  1  0.08158  -0.000176  0.948069  0.0  0.094469  -0.000184  1.017538  0.0  0.096442  -9.5e-05  1.015207  0.0  0.084936  -0.000633  0.107754  0.092788  -0.000279  1.019443  0.0
H  H7  1  0.78192327  0.05153595  0.83206874  1  0.081612  -0.000178  0.948108  0.0  0.094467  -0.000184  1.017604  0.0  0.096439  -9.5e-05  1.015276  0.0  0.084991  -0.000633  0.107736  0.092809  -0.000279  1.019485  0.0
H  H8  1  0.28449691  0.24963689  0.03516517  1  0.099846  -6e-06  0.989086  0.0  0.104358  -0.0  1.060494  0.0  0.1065  6e-06  1.061159  0.0  0.080135  -4.4e-05  0.099458  0.10276  -7e-06  1.060153  0.0
H  H9  1  0.71550018  0.75035773  0.96483404  1  0.099798  -9e-06  0.989097  0.0  0.104308  -0.0  1.060509  0.0  0.106447  6e-06  1.061186  0.0  0.07998  -4.4e-05  0.09944  0.10271  -7e-06  1.060168  0.0
H  H10  1  0.17731908  0.57757508  0.96891322  1  0.095407  7.8e-05  0.946939  0.0  0.109329  5.7e-05  1.002824  0.0  0.111735  5.5e-05  1.002629  0.0  0.062452  -4.7e-05  0.100113  0.107549  6e-05  1.003142  0.0
H  H11  1  0.82267838  0.42242076  0.03108555  1  0.095395  7.5e-05  0.946945  0.0  0.109322  5.7e-05  1.002819  0.0  0.111728  5.5e-05  1.002627  0.0  0.062482  -4.7e-05  0.10014  0.107541  6e-05  1.003139  0.0
H  H12  1  0.92312655  0.80440431  0.08636102  1  0.092127  6.1e-05  0.977617  0.0  0.101726  8.3e-05  1.042572  0.0  0.104086  8.9e-05  1.042512  0.0  0.09133  -5.6e-05  0.098138  0.099952  7.8e-05  1.042786  0.0
H  H13  1  0.07687237  0.19559153  0.91363835  1  0.092164  5.8e-05  0.977588  0.0  0.101759  8.3e-05  1.04254  0.0  0.104118  8.9e-05  1.042482  0.0  0.091034  -5.6e-05  0.098159  0.099997  7.8e-05  1.042744  0.0
H  H14  1  0.47498353  0.34919463  0.23003514  1  0.104793  0.000182  0.93877  0.0  0.112018  1.8e-05  1.005592  0.0  0.1146  5.1e-05  1.001889  0.0  0.149087  -0.000677  0.13989  0.109927  -1.7e-05  1.008579  0.0
H  H15  1  0.52501361  0.65080489  0.76996380  1  0.104765  0.000182  0.938764  0.0  0.112027  1.8e-05  1.005553  0.0  0.114611  5.1e-05  1.001846  0.0  0.14908  -0.000677  0.13989  0.109936  -1.8e-05  1.00854  0.0
H  H16  1  0.96640316  0.87796372  0.23830749  1  0.105483  0.000125  0.970015  0.0  0.114886  1e-06  1.031519  0.0  0.117839  4.2e-05  1.029785  0.0  0.125285  -0.000677  0.116505  0.112576  -4.3e-05  1.033127  -0.001
H  H17  1  0.03358960  0.12203580  0.76168700  1  0.105519  0.000126  0.970023  0.0  0.114875  1e-06  1.03157  0.0  0.117827  4.2e-05  1.02984  0.0  0.1253  -0.000677  0.116502  0.112582  -4.3e-05  1.033157  -0.001
H  H18  1  0.53993220  0.98178059  0.07172497  1  0.116232  -0.000254  0.961843  0.0  0.126942  -0.000265  1.02226  0.0  0.129176  -0.000189  1.022032  0.0  0.138362  -0.00086  0.122206  0.12529  -0.000345  1.022587  0.0
H  H19  1  0.46006780  0.01821402  0.92827545  1  0.116238  -0.000255  0.961867  0.0  0.126978  -0.000265  1.022236  0.0  0.129213  -0.000189  1.022008  0.0  0.138292  -0.00086  0.122222  0.125326  -0.000345  1.022565  0.0
H  H20  1  0.25860626  0.75791290  0.08504485  1  0.098516  0.000153  0.968992  0.0  0.11298  -7.6e-05  1.034301  0.0  0.114945  -4.4e-05  1.033776  0.0  0.041749  -0.000333  0.097891  0.111635  -0.000114  1.034804  0.0
H  H21  1  0.74139818  0.24208661  0.91495446  1  0.098552  0.000151  0.969112  0.0  0.113023  -7.6e-05  1.03441  0.0  0.114986  -4.4e-05  1.033883  0.0  0.041785  -0.000333  0.097928  0.111676  -0.000114  1.034915  0.0
H  H22  1  0.47139774  0.76239014  0.14943632  1  0.102673  0.00024  0.944389  0.0  0.114054  -7e-06  1.012958  0.0  0.116021  1.5e-05  1.012675  0.0  0.045923  -0.000266  0.097428  0.112848  -3.3e-05  1.013104  0.0
H  H23  1  0.52860517  0.23760448  0.85056214  1  0.102653  0.000238  0.944381  0.0  0.114058  -7e-06  1.012934  0.0  0.116024  1.5e-05  1.012649  0.0  0.045898  -0.000266  0.097419  0.112848  -3.3e-05  1.013086  0.0
H  H24  1  0.69344198  0.57715113  0.12436599  1  0.085621  -0.000195  0.973  0.0  0.091908  -0.000508  1.044726  0.0  0.093679  -0.000328  1.044602  0.0  0.073513  -0.000962  0.096134  0.090721  -0.000701  1.044905  0.0
H  H25  1  0.30655656  0.42284349  0.87563224  1  0.085606  -0.000198  0.972997  0.0  0.091894  -0.000508  1.044722  0.0  0.093662  -0.000328  1.044603  0.0  0.073561  -0.000962  0.096131  0.090706  -0.0007  1.044902  0.0
H  H26  1  0.53027805  0.28582723  0.40480946  1  0.096563  -1.6e-05  0.956131  0.0  0.107386  -1.2e-05  1.017799  0.0  0.110823  6e-06  1.015786  0.0  0.090026  -9.9e-05  0.096428  0.104909  -3.3e-05  1.01933  0.0
H  H27  1  0.46972493  0.71417229  0.59519241  1  0.096586  -1.3e-05  0.956103  0.0  0.107406  -1.2e-05  1.017779  0.0  0.110844  6e-06  1.015766  0.0  0.090022  -9.9e-05  0.096434  0.104931  -3.3e-05  1.01931  0.0
H  H28  1  0.78595584  0.98423363  0.43601245  1  0.086636  -7e-06  0.970812  0.0  0.096267  -1.2e-05  1.035832  0.0  0.098821  -3e-06  1.03507  0.0  0.060581  -6.6e-05  0.099339  0.094456  -2.4e-05  1.036456  0.0
H  H29  1  0.21404930  0.01576343  0.56399046  1  0.086638  -6e-06  0.97083  0.0  0.096241  -1.2e-05  1.035878  0.0  0.098788  -3e-06  1.035118  0.0  0.060417  -6.6e-05  0.099312  0.094429  -2.4e-05  1.036505  0.0
H  H30  1  0.59257360  0.54345426  0.34175780  1  0.106811  6.3e-05  0.95267  0.0  0.113345  -3.3e-05  1.021366  0.0  0.116152  2e-05  1.018088  0.0  0.201206  -0.000656  0.138375  0.111079  -9.7e-05  1.023996  0.0
H  H31  1  0.40742436  0.45655260  0.65824101  1  0.106861  6.3e-05  0.952616  0.0  0.113336  -3.3e-05  1.021399  0.0  0.116133  2e-05  1.018114  0.0  0.20113  -0.000656  0.13838  0.111073  -9.7e-05  1.024021  0.0
H  H32  1  0.15008290  0.85341737  0.44257513  1  0.089699  3.3e-05  0.94186  0.0  0.104738  1.6e-05  0.995296  0.0  0.107237  2e-05  0.994714  0.0  0.040274  -6e-05  0.101683  0.102919  1.1e-05  0.995912  0.0
H  H33  1  0.84992109  0.14657602  0.55742860  1  0.089687  3.5e-05  0.941886  0.0  0.104722  1.7e-05  0.995334  0.0  0.10722  2e-05  0.994753  0.0  0.04033  -6e-05  0.101682  0.102903  1.1e-05  0.995951  0.0
H  H34  1  0.16587547  0.52140261  0.52662909  1  0.089165  2.6e-05  0.968723  0.0  0.100777  3.8e-05  1.03124  0.0  0.103462  4e-05  1.030427  0.0  0.051449  -4.5e-05  0.094783  0.098765  3.2e-05  1.031976  0.0
H  H35  1  0.83412713  0.47859568  0.47337217  1  0.089187  3e-05  0.968781  0.0  0.100794  3.8e-05  1.031303  0.0  0.103479  4e-05  1.030489  0.0  0.051392  -4.5e-05  0.094803  0.098779  3.2e-05  1.032045  0.0
H  H36  1  0.68468747  0.02650805  0.29082523  1  0.132773  -0.000219  0.947331  0.0  0.142418  -0.000173  1.00441  0.0  0.145797  -0.000109  1.002625  0.0  0.169783  -0.000762  0.126243  0.139836  -0.00024  1.005974  0.0
H  H37  1  0.31531595  0.97349759  0.70917327  1  0.132749  -0.00022  0.947362  0.0  0.142355  -0.000173  1.004485  0.0  0.145736  -0.000109  1.002695  0.0  0.169853  -0.000762  0.126198  0.139774  -0.00024  1.006048  0.0
H  H38  1  0.02397647  0.23363820  0.45168150  1  0.101393  -0.000492  0.944246  -0.001  0.116434  -0.000476  1.006589  -0.001  0.117683  -0.000308  1.006284  0.0  0.047412  -0.001684  0.098154  0.115757  -0.000664  1.006659  -0.001
H  H39  1  0.97602321  0.76636009  0.54831592  1  0.101463  -0.000491  0.944197  -0.001  0.116519  -0.000476  1.006502  -0.001  0.117771  -0.000308  1.006187  0.0  0.047368  -0.001684  0.098175  0.115842  -0.000664  1.006573  -0.001
H  H40  1  0.16863978  0.16391273  0.39069751  1  0.103374  0.000287  0.934048  0.0  0.116993  3.6e-05  0.996602  0.0  0.118953  3.1e-05  0.996123  0.0  0.040775  -8.1e-05  0.098339  0.115755  4.1e-05  0.996896  0.0
H  H41  1  0.83135743  0.83609168  0.60929797  1  0.103374  0.00029  0.934095  0.0  0.117004  3.6e-05  0.996634  0.0  0.118961  3.1e-05  0.996158  0.0  0.040994  -8.1e-05  0.098354  0.115768  4.1e-05  0.996924  0.0
H  H42  1  0.32518520  0.68227784  0.35931704  1  0.107229  5.1e-05  0.9496  0.0  0.120025  -0.000176  1.01532  0.0  0.121692  -8.3e-05  1.014982  0.0  0.152539  -0.000678  0.12091  0.118612  -0.000283  1.015789  0.0
H  H43  1  0.67482000  0.31772413  0.64068401  1  0.107152  5.1e-05  0.949664  0.0  0.119989  -0.000176  1.015352  0.0  0.121657  -8.3e-05  1.015013  0.0  0.152593  -0.000678  0.120886  0.118577  -0.000283  1.015822  0.0
H  H44  1  0.31872524  0.85899001  0.31911413  1  0.0885  -9e-05  0.911162  0.0  0.104442  -0.000155  0.972252  0.0  0.105439  -8.3e-05  0.971369  0.0  0.064533  -0.000565  0.114917  0.103567  -0.000235  0.973112  0.0
H  H45  1  0.68127527  0.14101563  0.68089056  1  0.088437  -9e-05  0.911181  0.0  0.104387  -0.000155  0.97227  0.0  0.105381  -8.3e-05  0.971391  0.0  0.064364  -0.000565  0.114913  0.103514  -0.000235  0.973131  0.0
C  C46  1  0.76629454  0.20080149  0.13650064  1  -0.002604  0.004141  3.752225  0.002  -0.03465  -0.000626  4.022974  -0.001  -0.031322  -0.000197  4.044228  -0.001  0.337635  -0.001978  -0.004877  -0.037386  -0.001056  4.00889  -0.002
C  C47  1  0.23370293  0.79919435  0.86349971  1  -0.002388  0.004123  3.752149  0.002  -0.03442  -0.000626  4.022881  -0.001  -0.031089  -0.000197  4.044134  -0.001  0.337643  -0.001979  -0.004786  -0.037157  -0.001056  4.008798  -0.002
C  C48  1  0.11868146  0.02997809  0.06898396  1  0.059519  -5.8e-05  3.756794  0.0  0.079814  -8.7e-05  3.994061  0.0  0.079172  -4.7e-05  4.016994  0.0  -0.122183  -0.000279  -0.016328  0.080244  -0.000137  3.978512  0.0
C  C49  1  0.88131962  0.97001530  0.93101487  1  0.059482  -0.000119  3.756947  0.0  0.079813  -8.7e-05  3.994154  0.0  0.079173  -4.6e-05  4.017081  0.0  -0.121884  -0.000279  -0.016349  0.080238  -0.000137  3.978611  0.0
C  C50  1  0.23414306  0.06348503  0.14500826  1  -0.047466  -0.00063  3.648539  -0.001  -0.116265  -0.000545  3.896964  -0.001  -0.111564  -0.000379  3.905694  -0.001  0.292341  -0.001254  -0.044902  -0.119231  -0.000715  3.891372  -0.001
C  C51  1  0.76585548  0.93650958  0.85499208  1  -0.047408  -0.000622  3.648692  -0.001  -0.116228  -0.000545  3.897151  -0.001  -0.111513  -0.00038  3.905873  -0.001  0.292402  -0.001254  -0.044832  -0.119189  -0.000715  3.891504  -0.001
C  C52  1  0.21166557  0.57527152  0.15351824  1  0.687602  0.006687  3.844105  0.006  0.651484  -0.000521  4.140206  0.001  0.685778  0.000118  4.136718  0.001  1.575317  -0.0018  0.203229  0.627363  -0.001337  4.140965  0.0
C  C53  1  0.78833196  0.42472922  0.84648183  1  0.687729  0.006679  3.844087  0.006  0.651625  -0.000521  4.140184  0.001  0.685919  0.000118  4.136691  0.001  1.575235  -0.001801  0.203219  0.627503  -0.001337  4.140945  0.0
C  C54  1  0.16152701  0.13923405  0.01974219  1  -0.102968  -9.5e-05  3.733645  0.0  -0.123846  -5.3e-05  3.982277  0.0  -0.12546  -2.3e-05  4.003358  0.0  -0.036035  -0.000198  -0.091747  -0.122641  -8.9e-05  3.968066  0.0
C  C55  1  0.83847375  0.86076302  0.98025628  1  -0.102789  -3.4e-05  3.73372  0.0  -0.123666  -5.3e-05  3.982321  0.0  -0.125283  -2.4e-05  4.0034  0.0  -0.035754  -0.000198  -0.091684  -0.122462  -8.9e-05  3.968105  0.0
C  C56  1  0.31916915  0.54365276  0.98280399  1  -0.120925  -0.000194  3.734598  0.0  -0.138313  -0.000127  3.979265  0.0  -0.140623  -4.5e-05  3.999629  0.0  -0.103207  -0.00063  -0.094117  -0.136596  -0.000238  3.965443  0.0
C  C57  1  0.68082946  0.45634675  0.01719397  1  -0.120915  -0.000139  3.734832  0.0  -0.138309  -0.000128  3.979492  0.0  -0.140621  -4.6e-05  3.999861  0.0  -0.103176  -0.00063  -0.094143  -0.136591  -0.000238  3.96567  0.0
C  C58  1  0.95684732  0.89083055  0.04851131  1  -0.126453  -6.1e-05  3.758123  0.0  -0.141259  -5e-05  3.998562  0.0  -0.144789  -2.7e-05  4.021262  0.0  -0.006189  -0.000189  -0.094438  -0.138789  -7.7e-05  3.983268  0.0
C  C59  1  0.04314830  0.10916406  0.95148731  1  -0.1264  1.3e-05  3.758098  0.0  -0.141211  -5.1e-05  3.998525  0.0  -0.14474  -2.8e-05  4.021225  0.0  -0.00624  -0.000189  -0.094416  -0.138753  -7.7e-05  3.983225  0.0
C  C60  1  0.54857548  0.28103142  0.19534587  1  0.184554  0.004241  3.630501  0.002  0.1234  -0.002229  3.903605  -0.003  0.140277  -0.001846  3.915097  -0.003  1.006684  -0.004041  0.150814  0.11154  -0.002433  3.896082  -0.004
C  C61  1  0.45142091  0.71896565  0.80465343  1  0.184642  0.004232  3.630574  0.002  0.123451  -0.002229  3.903671  -0.003  0.140328  -0.001845  3.915166  -0.003  1.006759  -0.004041  0.150807  0.11159  -0.002433  3.896149  -0.004
C  C62  1  0.84746221  0.83112924  0.26774606  1  -0.008515  0.001267  3.751625  0.0  -0.037138  -0.001848  4.018996  -0.003  -0.034688  -0.00147  4.039255  -0.002  0.362253  -0.003548  -0.006066  -0.039324  -0.002185  4.005947  -0.003
C  C63  1  0.15253170  0.16887396  0.73225026  1  -0.008611  0.00125  3.75154  0.0  -0.037188  -0.001848  4.018914  -0.003  -0.034739  -0.001469  4.039177  -0.002  0.362669  -0.003547  -0.006082  -0.039386  -0.002185  4.005856  -0.003
C  C64  1  0.58404065  0.08942700  0.11240310  1  -0.071328  -0.004131  3.679153  -0.006  -0.110907  -0.002027  3.937092  -0.003  -0.110431  -0.001422  3.956812  -0.002  0.324689  -0.005147  -0.00128  -0.111232  -0.002674  3.924252  -0.004
C  C65  1  0.41595719  0.91057007  0.88759733  1  -0.071439  -0.00412  3.679155  -0.005  -0.111061  -0.002027  3.937105  -0.003  -0.110587  -0.001422  3.956825  -0.002  0.32476  -0.005147  -0.001383  -0.111386  -0.002674  3.924266  -0.004
C  C66  1  0.34662266  0.68014092  0.10999274  1  -0.309595  -0.002315  3.720895  -0.003  -0.351263  -0.001282  3.956634  -0.001  -0.356312  -0.00072  3.962808  -0.001  -0.017194  -0.003327  -0.165368  -0.347807  -0.001887  3.952471  -0.002
C  C67  1  0.65337995  0.31985737  0.89000588  1  -0.309678  -0.002308  3.721109  -0.003  -0.351374  -0.001282  3.956833  -0.001  -0.356417  -0.00072  3.962995  -0.001  -0.017184  -0.003327  -0.165387  -0.347918  -0.001887  3.95267  -0.002
C  C68  1  0.42625139  0.58791658  0.05343727  1  0.108338  -0.000922  3.778138  -0.001  0.127964  -0.000759  4.01249  -0.001  0.128958  -0.000482  4.035143  -0.001  0.050576  -0.002146  -0.017114  0.127268  -0.001081  3.997091  -0.002
C  C69  1  0.57374645  0.41208049  0.94656158  1  0.108409  -0.000969  3.778362  -0.001  0.128059  -0.000758  4.01268  -0.001  0.129052  -0.000482  4.035335  -0.001  0.050432  -0.002146  -0.017136  0.127363  -0.001081  3.997281  -0.002
C  C70  1  0.60783587  0.54322881  0.06978284  1  -0.113061  -0.000294  3.74543  0.0  -0.131421  -0.000423  3.994274  -0.001  -0.133245  -0.000273  4.014831  -0.001  -0.098528  -0.001389  -0.095236  -0.130028  -0.000601  3.980125  -0.001
C  C71  1  0.39216819  0.45676948  0.93021586  1  -0.113045  -0.000244  3.745414  0.0  -0.131405  -0.000423  3.994236  -0.001  -0.133228  -0.000274  4.014791  -0.001  -0.098575  -0.001388  -0.095221  -0.130012  -0.0006  3.980086  -0.001
C  C72  1  0.51441141  0.37939695  0.44634857  1  -0.118236  -4e-06  3.762234  0.0  -0.139483  -0.000114  4.011953  0.0  -0.141755  -5.9e-05  4.032844  0.0  -0.091495  -0.000367  -0.098664  -0.13786  -0.000188  3.997752  0.0
C  C73  1  0.48559011  0.62060257  0.55365112  1  -0.118211  -9e-05  3.762206  0.0  -0.13946  -0.000113  4.011916  0.0  -0.14173  -5.8e-05  4.032803  0.0  -0.091577  -0.000367  -0.09862  -0.137838  -0.000188  3.997716  0.0
C  C74  1  0.65982882  0.99003909  0.46393848  1  -0.109748  -1.4e-05  3.758828  0.0  -0.13252  -5.6e-05  4.013155  0.0  -0.134594  -3.1e-05  4.034413  0.0  -0.064888  -0.000178  -0.092435  -0.13114  -9.1e-05  3.998837  0.0
C  C75  1  0.34017486  0.00995798  0.53606542  1  -0.109787  -3.3e-05  3.759053  0.0  -0.132558  -5.6e-05  4.013395  0.0  -0.134621  -3.1e-05  4.034645  0.0  -0.065267  -0.000178  -0.09241  -0.131184  -9.1e-05  3.999077  0.0
C  C76  1  0.46338892  0.90830082  0.43069166  1  0.070851  -4.7e-05  3.755554  0.0  0.087849  -9.9e-05  3.99896  0.0  0.087055  -7.5e-05  4.02386  0.0  -0.025215  -0.000339  -0.01164  0.088431  -0.000129  3.982038  0.0
C  C77  1  0.53661444  0.09169992  0.56931188  1  0.07076  -2.7e-05  3.755838  0.0  0.087813  -9.8e-05  3.999186  0.0  0.087014  -7.5e-05  4.024086  0.0  -0.024446  -0.000339  -0.011712  0.088401  -0.000129  3.982261  0.0
C  C78  1  0.65766670  0.65228015  0.31964989  1  0.178088  0.006249  3.613497  0.004  0.121647  -0.001679  3.878411  -0.002  0.137687  -0.001261  3.890737  -0.002  0.935187  -0.003745  0.151297  0.110312  -0.001993  3.870444  -0.003
C  C79  1  0.34233196  0.34772427  0.68034884  1  0.178034  0.006237  3.613511  0.004  0.121609  -0.00168  3.87851  -0.002  0.137668  -0.001261  3.890821  -0.002  0.936177  -0.003746  0.151325  0.110275  -0.001994  3.870543  -0.003
C  C80  1  0.30412349  0.91903196  0.46753794  1  -0.112098  9e-06  3.759104  0.0  -0.129058  -1e-05  4.007634  0.0  -0.131808  -1e-06  4.02934  0.0  -0.01385  -0.000107  -0.089474  -0.127254  -2.9e-05  3.993039  0.0
C  C81  1  0.69587981  0.08096388  0.53246588  1  -0.11208  -1.4e-05  3.759081  0.0  -0.129071  -1.1e-05  4.007633  0.0  -0.131817  -1e-06  4.029341  0.0  -0.014413  -0.000107  -0.089455  -0.12727  -2.9e-05  3.993037  0.0
C  C82  1  0.31193282  0.51113463  0.51409193  1  -0.129311  0.000113  3.75376  0.0  -0.149114  3.1e-05  4.001863  0.0  -0.152475  4.7e-05  4.023787  0.0  -0.07964  -0.000177  -0.101329  -0.146673  -1.2e-05  3.98701  0.0
C  C83  1  0.68806870  0.48886488  0.48590933  1  -0.12932  3.6e-05  3.7538  0.0  -0.14913  3.1e-05  4.001903  0.0  -0.152491  4.8e-05  4.023831  0.0  -0.079547  -0.000176  -0.101336  -0.146688  -1.2e-05  3.987048  0.0
C  C84  1  0.70661070  0.90421078  0.29193593  1  -0.06653  -0.001814  3.66233  -0.002  -0.104448  -0.000448  3.916315  -0.001  -0.102405  0.00012  3.932962  0.0  0.294581  -0.001978  0.002316  -0.106067  -0.000949  3.905925  -0.001
C  C85  1  0.29338796  0.09579363  0.70806280  1  -0.066399  -0.001805  3.662114  -0.002  -0.104276  -0.000448  3.916056  -0.001  -0.102236  0.000119  3.932706  0.0  0.294301  -0.001978  0.00237  -0.105895  -0.000949  3.905669  -0.001
C  C86  1  0.13390521  0.27419059  0.41676765  1  -0.301061  -0.001981  3.722164  -0.003  -0.345831  -0.001112  3.963437  -0.001  -0.350701  -0.000513  3.970549  0.0  -0.018672  -0.003056  -0.162649  -0.342388  -0.00178  3.958379  -0.002
C  C87  1  0.86609454  0.72581260  0.58323107  1  -0.301196  -0.001989  3.722368  -0.003  -0.345987  -0.001112  3.963597  -0.001  -0.350851  -0.000513  3.970713  0.0  -0.01893  -0.003056  -0.162679  -0.342543  -0.00178  3.958538  -0.002
C  C88  1  0.32347518  0.38894568  0.45984638  1  0.105697  -0.000101  3.779057  0.0  0.127717  -0.000272  4.01226  0.0  0.128264  -0.000165  4.036949  0.0  0.035662  -0.000859  -0.018022  0.127189  -0.000397  3.995539  0.0
C  C89  1  0.67652818  0.61105506  0.54015399  1  0.105711  -2.8e-05  3.779181  0.0  0.127744  -0.000272  4.012355  0.0  0.128291  -0.000165  4.037045  0.0  0.035786  -0.00086  -0.018058  0.127216  -0.000397  3.995635  0.0
C  C90  1  0.41346073  0.80675810  0.35683839  1  -0.049792  -0.000406  3.650162  0.0  -0.117591  -0.000583  3.901687  0.0  -0.113969  -0.000389  3.912272  0.0  0.289919  -0.00107  -0.04385  -0.119889  -0.000798  3.894781  -0.001
C  C91  1  0.58654340  0.19324509  0.64316425  1  -0.049529  -0.000409  3.650275  0.0  -0.117382  -0.000583  3.901801  0.0  -0.113755  -0.000389  3.912379  0.0  0.290528  -0.001069  -0.043802  -0.119686  -0.000798  3.894895  -0.001
C  C92  1  0.02874767  0.34880131  0.35761364  1  0.678172  0.007498  3.848202  0.006  0.642896  -0.000323  4.145427  0.0  0.677653  -5e-06  4.14233  0.0  1.538213  -0.001298  0.200284  0.618188  -0.000687  4.145827  0.001
C  C93  1  0.97125911  0.65121046  0.64238745  1  0.678291  0.007506  3.848227  0.006  0.643016  -0.000324  4.145431  0.0  0.677773  -7e-06  4.142333  0.0  1.538268  -0.0013  0.200362  0.618307  -0.000688  4.145835  0.001
N  N94  1  0.81534362  0.67343733  0.28518549  1  -0.390805  -0.035598  3.338356  -0.057  -0.345861  -0.026869  3.657186  -0.034  -0.375622  -0.021333  3.669786  -0.027  -1.235821  -0.060744  -0.366733  -0.323996  -0.031749  3.649087  -0.04
N  N95  1  0.18465028  0.32656586  0.71481188  1  -0.39077  -0.035593  3.338307  -0.057  -0.345848  -0.026869  3.65714  -0.034  -0.375614  -0.021332  3.66974  -0.027  -1.235864  -0.060739  -0.366755  -0.323989  -0.031747  3.649052  -0.04
N  N96  1  0.58746671  0.78893127  0.32440464  1  -0.047191  -0.002073  3.570444  -0.004  0.047662  -0.002466  3.784497  -0.004  0.033675  -0.001929  3.808888  -0.003  -1.232531  -0.006481  -0.237892  0.056659  -0.002983  3.768497  -0.005
N  N97  1  0.41253455  0.21107682  0.67559493  1  -0.047259  -0.002074  3.570335  -0.004  0.047603  -0.002466  3.784388  -0.004  0.033619  -0.001929  3.808774  -0.003  -1.233922  -0.006481  -0.237878  0.0566  -0.002983  3.76839  -0.005
N  N98  1  0.74252809  0.31951551  0.18842172  1  -0.388004  -0.039647  3.389926  -0.06  -0.341312  -0.028912  3.711849  -0.035  -0.373401  -0.022559  3.726832  -0.026  -1.243508  -0.065609  -0.371321  -0.317543  -0.034481  3.701634  -0.043
N  N99  1  0.25746829  0.68048156  0.81157863  1  -0.388037  -0.039646  3.390036  -0.06  -0.34137  -0.028914  3.711986  -0.035  -0.373467  -0.02256  3.726976  -0.026  -1.243572  -0.065607  -0.371311  -0.317606  -0.034481  3.701777  -0.043
N  N100  1  0.44796194  0.14208531  0.15036781  1  -0.053881  -0.001061  3.572424  -0.002  0.042312  -0.001472  3.785465  -0.002  0.028109  -0.001054  3.81025  -0.002  -1.243665  -0.004293  -0.241589  0.051461  -0.001816  3.769108  -0.003
N  N101  1  0.55203407  0.85791053  0.84963141  1  -0.053966  -0.001065  3.57247  -0.002  0.042244  -0.001472  3.785503  -0.002  0.028043  -0.001053  3.810284  -0.002  -1.243758  -0.004294  -0.241554  0.051389  -0.001816  3.769147  -0.003
O  O102  1  0.11747162  0.65620722  0.19343376  1  -0.651561  -0.053274  2.027317  -0.091  -0.613864  -0.039187  2.311642  -0.06  -0.6566  -0.029456  2.300712  -0.046  -1.173027  -0.094169  -0.342195  -0.580268  -0.048295  2.317079  -0.073
O  O103  1  0.88252558  0.34379720  0.80656383  1  -0.651605  -0.05328  2.027361  -0.091  -0.613943  -0.039191  2.311691  -0.06  -0.656686  -0.029458  2.300763  -0.046  -1.172939  -0.094168  -0.342184  -0.580354  -0.048296  2.317145  -0.073
O  O104  1  0.19566562  0.42538230  0.15127229  1  -0.611222  -0.00747  1.95148  -0.013  -0.568645  -0.008578  2.185255  -0.015  -0.595877  -0.005894  2.179915  -0.01  -1.190686  -0.024165  -0.305067  -0.548104  -0.011809  2.187913  -0.019
O  O105  1  0.80433667  0.57461967  0.84873125  1  -0.611288  -0.007468  1.951455  -0.013  -0.568719  -0.008578  2.18521  -0.015  -0.595948  -0.005894  2.179862  -0.01  -1.190695  -0.02416  -0.305077  -0.548181  -0.011807  2.187874  -0.019
O  O106  1  0.14231448  0.43318866  0.31870922  1  -0.633459  -0.054807  2.030487  -0.091  -0.598069  -0.03909  2.308224  -0.059  -0.641397  -0.028602  2.297499  -0.043  -1.149325  -0.095971  -0.335597  -0.563702  -0.048981  2.313327  -0.074
O  O107  1  0.85768754  0.56682188  0.68129209  1  -0.633548  -0.054815  2.030476  -0.091  -0.598196  -0.039096  2.308233  -0.059  -0.641531  -0.028605  2.297506  -0.043  -1.149058  -0.095963  -0.335706  -0.563832  -0.048985  2.313345  -0.074
O  O108  1  0.84093842  0.32706946  0.34704572  1  -0.624596  -0.013462  1.92243  -0.025  -0.587127  -0.013877  2.155564  -0.025  -0.617458  -0.009701  2.150491  -0.018  -1.18236  -0.038436  -0.315811  -0.563525  -0.018744  2.157586  -0.032
O  O109  1  0.15906329  0.67294476  0.65295681  1  -0.624615  -0.01346  1.922549  -0.025  -0.587154  -0.013875  2.155684  -0.025  -0.617486  -0.0097  2.150612  -0.018  -1.182408  -0.03843  -0.315814  -0.563556  -0.01874  2.157707  -0.032
