# generated using pymatgen
data_HgH6(CN2)4
_symmetry_space_group_name_H-M   'P 1'
_cell_length_a   10.38730041
_cell_length_b   10.38726702
_cell_length_c   10.38726779
_cell_angle_alpha   103.36026070
_cell_angle_beta   112.61041164
_cell_angle_gamma   112.61041490
_symmetry_Int_Tables_number   1
_chemical_formula_structural   HgH6(CN2)4
_chemical_formula_sum   'Hg4 H24 C16 N32'
_cell_volume   855.49389870
_cell_formula_units_Z   4
loop_
 _symmetry_equiv_pos_site_id
 _symmetry_equiv_pos_as_xyz
  1  'x, y, z'
loop_
 _atom_site_type_symbol
 _atom_site_label
 _atom_site_symmetry_multiplicity
 _atom_site_fract_x
 _atom_site_fract_y
 _atom_site_fract_z
 _atom_site_occupancy
 _atom_site_pbe_bader_spin_density
 _atom_site_pbe_cm5_charge
 _atom_site_pbe_ddec_charge
 _atom_site_pbe_ddec_spin_density
 _atom_site_pbe_ddec_sum_bond_order
 _atom_site_pbe_magmom
Hg  Hg0  1  0.24999953  0.37499852  0.62499860  1  0  0.717577  0.606647  0  2.370966  0
Hg  Hg1  1  0.75000008  0.62499869  0.37499930  1  0  0.717547  0.606593  0  2.370935  0
Hg  Hg2  1  0.74999984  0.12500161  0.87500040  1  0  0.710951  0.592648  0  2.39273  0
Hg  Hg3  1  0.25000053  0.87500043  0.12500068  1  0  0.710948  0.592633  0  2.392746  0
H  H4  1  0.62581925  0.74216647  0.99467172  1  0  0.097236  0.14815  0  1.033101  0
H  H5  1  0.74749493  0.61634551  0.74216587  1  0  0.097237  0.148151  0  1.033168  0
H  H6  1  0.87418258  0.36885166  0.61634614  1  0  0.097218  0.148139  0  1.033121  0
H  H7  1  0.75250648  0.99467245  0.36885146  1  0  0.097249  0.148163  0  1.033116  0
H  H8  1  0.37418007  0.25783299  0.00532827  1  0  0.097228  0.14814  0  1.033081  0
H  H9  1  0.25250505  0.38365507  0.25783364  1  0  0.097258  0.148176  0  1.033124  0
H  H10  1  0.12582014  0.63114937  0.38365493  1  0  0.097248  0.148167  0  1.033139  0
H  H11  1  0.24749454  0.00532780  0.63114907  1  0  0.097231  0.148145  0  1.033132  0
H  H12  1  0.42765011  0.70891332  0.94306518  1  0  0.093874  0.136962  0  1.040733  0
H  H13  1  0.76584736  0.78126075  0.70891458  1  0  0.09387  0.13696  0  1.040723  0
H  H14  1  0.07234957  0.51541436  0.78126175  1  0  0.093874  0.136994  0  1.040703  0
H  H15  1  0.73415238  0.94306664  0.51541271  1  0  0.093865  0.136945  0  1.040726  0
H  H16  1  0.57234818  0.29108551  0.05693376  1  0  0.093877  0.136946  0  1.04074  0
H  H17  1  0.23415131  0.21873953  0.29108594  1  0  0.093886  0.13698  0  1.040718  0
H  H18  1  0.92765211  0.48458604  0.21873828  1  0  0.093876  0.136956  0  1.040734  0
H  H19  1  0.26584657  0.05693235  0.48458573  1  0  0.09386  0.136933  0  1.040733  0
H  H20  1  0.59549758  0.90178392  0.02395913  1  0  0.09651  0.14866  0  1.018749  0
H  H21  1  0.87782516  0.80628455  0.90178369  1  0  0.096519  0.148675  0  1.018747  0
H  H22  1  0.90450501  0.42846162  0.80628646  1  0  0.096512  0.148692  0  1.01875  0
H  H23  1  0.62217512  0.02395782  0.42846080  1  0  0.096526  0.148689  0  1.018712  0
H  H24  1  0.40450175  0.09821555  0.97604086  1  0  0.09651  0.148658  0  1.018737  0
H  H25  1  0.12217417  0.19371492  0.09821630  1  0  0.096527  0.148683  0  1.018752  0
H  H26  1  0.09549770  0.57154038  0.19371464  1  0  0.096524  0.148687  0  1.018728  0
H  H27  1  0.37782421  0.97604164  0.57153919  1  0  0.096521  0.148669  0  1.018736  0
C  C28  1  0.54015822  0.77961243  0.94663667  1  0  -0.241853  -0.479697  0  3.952707  0
C  C29  1  0.83297634  0.73945259  0.77961212  1  0  -0.241887  -0.479745  0  3.952795  0
C  C30  1  0.95984390  0.40647791  0.73945389  1  0  -0.241829  -0.479764  0  3.95275  0
C  C31  1  0.66702433  0.94663694  0.40647685  1  0  -0.241906  -0.479766  0  3.95272  0
C  C32  1  0.45984111  0.22038704  0.05336333  1  0  -0.241849  -0.479692  0  3.952643  0
C  C33  1  0.16702365  0.26054799  0.22038738  1  0  -0.241927  -0.479798  0  3.952761  0
C  C34  1  0.04015882  0.59352312  0.26054719  1  0  -0.24189  -0.479773  0  3.952724  0
C  C35  1  0.33297566  0.05336364  0.59352265  1  0  -0.241866  -0.479689  0  3.952717  0
C  C36  1  0.50043939  0.75741388  0.78754883  1  0  0.230857  0.370946  0  4.011094  0
C  C37  1  0.96986577  0.75697293  0.75741423  1  0  0.230852  0.370979  0  4.011087  0
C  C38  1  0.99956114  0.28710784  0.75697372  1  0  0.23085  0.370967  0  4.011107  0
C  C39  1  0.53013500  0.78754781  0.28710726  1  0  0.23088  0.371032  0  4.011037  0
C  C40  1  0.49956097  0.24258718  0.21245223  1  0  0.230892  0.371066  0  4.010939  0
C  C41  1  0.03013356  0.24302751  0.24258578  1  0  0.230892  0.371037  0  4.011033  0
C  C42  1  0.00044055  0.71289256  0.24302631  1  0  0.230872  0.37102  0  4.011011  0
C  C43  1  0.46986602  0.21245244  0.71289328  1  0  0.230858  0.370974  0  4.011114  0
N  N44  1  0.39528599  0.62054027  0.65931802  1  0  -0.221993  -0.234862  0  3.472093  0
N  N45  1  0.96122313  0.72525293  0.62054173  1  0  -0.22195  -0.234846  0  3.472039  0
N  N46  1  0.10471364  0.26403092  0.72525358  1  0  -0.221994  -0.234891  0  3.47207  0
N  N47  1  0.53877826  0.65931874  0.26403077  1  0  -0.221966  -0.234871  0  3.472054  0
N  N48  1  0.60471334  0.37945920  0.34068197  1  0  -0.221989  -0.234872  0  3.472043  0
N  N49  1  0.03877723  0.27474620  0.37945929  1  0  -0.222001  -0.234899  0  3.472068  0
N  N50  1  0.89528804  0.73596948  0.27474645  1  0  -0.221978  -0.234891  0  3.472059  0
N  N51  1  0.46122277  0.34068151  0.73596976  1  0  -0.221962  -0.234887  0  3.472081  0
N  N52  1  0.39445733  0.64568081  0.53667787  1  0  -0.089104  -0.06462  0  3.240591  0
N  N53  1  0.10900298  0.75122327  0.64568126  1  0  -0.089118  -0.064623  0  3.240608  0
N  N54  1  0.10554363  0.14222047  0.75122358  1  0  -0.089095  -0.064603  0  3.240485  0
N  N55  1  0.39099691  0.53667769  0.14222017  1  0  -0.089128  -0.064638  0  3.240598  0
N  N56  1  0.60554303  0.35431929  0.46332317  1  0  -0.089101  -0.064635  0  3.240587  0
N  N57  1  0.89099739  0.24877587  0.35431976  1  0  -0.08908  -0.064583  0  3.240519  0
N  N58  1  0.89445739  0.85777978  0.24877695  1  0  -0.089086  -0.064571  0  3.240533  0
N  N59  1  0.60900242  0.46332275  0.85777984  1  0  -0.089096  -0.064561  0  3.240491  0
N  N60  1  0.49498036  0.79337733  0.58703142  1  0  -0.09715  -0.085066  0  3.250261  0
N  N61  1  0.20634478  0.79839640  0.79337703  1  0  -0.097168  -0.085086  0  3.250312  0
N  N62  1  0.00502067  0.09205141  0.79839768  1  0  -0.09717  -0.085078  0  3.250201  0
N  N63  1  0.29365518  0.58703202  0.09205203  1  0  -0.097158  -0.085075  0  3.250322  0
N  N64  1  0.50501962  0.20662326  0.41296809  1  0  -0.097166  -0.085078  0  3.25034  0
N  N65  1  0.79365455  0.20160211  0.20662294  1  0  -0.09719  -0.085107  0  3.250299  0
N  N66  1  0.99498036  0.90794885  0.20160285  1  0  -0.097179  -0.085136  0  3.250249  0
N  N67  1  0.70634481  0.41296857  0.90794747  1  0  -0.097174  -0.085096  0  3.250243  0
N  N68  1  0.56306781  0.86595293  0.74373685  1  0  -0.225494  -0.240287  0  3.466553  0
N  N69  1  0.12221673  0.80288500  0.86595367  1  0  -0.22549  -0.240275  0  3.466577  0
N  N70  1  0.93693303  0.18066876  0.80288509  1  0  -0.225487  -0.240281  0  3.466556  0
N  N71  1  0.37778463  0.74373680  0.18066943  1  0  -0.225494  -0.240283  0  3.466552  0
N  N72  1  0.43693152  0.13404750  0.25626316  1  0  -0.225514  -0.240333  0  3.466563  0
N  N73  1  0.87778364  0.19711510  0.13404737  1  0  -0.225507  -0.240312  0  3.46661  0
N  N74  1  0.06306762  0.81933101  0.19711389  1  0  -0.225505  -0.240274  0  3.466529  0
N  N75  1  0.62221640  0.25626345  0.81933110  1  0  -0.225515  -0.240318  0  3.466608  0
