# generated using pymatgen
data_Zn4H3C15Br3N6O13
_symmetry_space_group_name_H-M   'P 1'
_cell_length_a   16.95247420
_cell_length_b   17.02057418
_cell_length_c   17.46376776
_cell_angle_alpha   62.06033092
_cell_angle_beta   62.47290851
_cell_angle_gamma   61.43626255
_symmetry_Int_Tables_number   1
_chemical_formula_structural   Zn4H3C15Br3N6O13
_chemical_formula_sum   'Zn8 H6 C30 Br6 N12 O26'
_cell_volume   3721.13530729
_cell_formula_units_Z   2
loop_
 _symmetry_equiv_pos_site_id
 _symmetry_equiv_pos_as_xyz
  1  'x, y, z'
loop_
 _atom_site_type_symbol
 _atom_site_label
 _atom_site_symmetry_multiplicity
 _atom_site_fract_x
 _atom_site_fract_y
 _atom_site_fract_z
 _atom_site_occupancy
 _atom_site_pbe_bader_charge
 _atom_site_pbe_bader_spin_density
 _atom_site_pbe_cm5_charge
 _atom_site_pbe_ddec_charge
 _atom_site_pbe_ddec_spin_density
 _atom_site_pbe_ddec_sum_bond_order
 _atom_site_pbe_magmom
Zn  Zn0  1  0.08433056  0.00606721  0.82373485  1  1.320913  0  0.684367  0.990397  0  2.282629  0
Zn  Zn1  1  0.07204861  0.82976486  0.01653869  1  1.318858  0  0.675341  0.975444  0  2.342341  0
Zn  Zn2  1  0.89773801  0.01567927  0.99396911  1  1.292681  0  0.660509  0.949227  0  2.464698  0
Zn  Zn3  1  0.06884508  0.02372480  0.01076045  1  1.321019  0  0.670001  0.972703  0  2.358227  0
Zn  Zn4  1  0.50145990  0.41608437  0.59286012  1  1.314587  0  0.682775  0.964497  0  2.420378  0
Zn  Zn5  1  0.47856831  0.60065939  0.44254733  1  1.32129  0  0.678094  0.970088  0  2.394335  0
Zn  Zn6  1  0.46843105  0.42496346  0.42357563  1  1.32674  0  0.676196  0.987726  0  2.293374  0
Zn  Zn7  1  0.67338128  0.42369860  0.40740560  1  1.314177  0  0.672198  0.986853  0  2.250284  0
H  H8  1  0.22586227  0.61847561  0.90780663  1  0.491984  0  0.358174  0.291744  0  0.876992  0
H  H9  1  0.70871384  0.19038779  0.86316845  1  0.492327  0  0.35628  0.288762  0  0.884324  0
H  H10  1  0.24017627  0.18189137  0.89060765  1  0.484032  0  0.358441  0.291481  0  0.879409  0
H  H11  1  0.68942224  0.90530310  0.17115077  1  0.492786  0  0.355824  0.28897  0  0.882354  0
H  H12  1  0.20010220  0.90628528  0.20296910  1  0.482592  0  0.358025  0.291446  0  0.876591  0
H  H13  1  0.68817267  0.18104393  0.14328547  1  0.492736  0  0.354022  0.286899  0  0.884104  0
C  C14  1  0.17606248  0.80658190  0.83259490  1  1.596629  0  0.227537  0.599385  0  4.220995  0
C  C15  1  0.23331011  0.73475719  0.78663725  1  0.437013  0  0.07578  -0.034143  0  3.976645  0
C  C16  1  0.32192465  0.63701699  0.70316702  1  0.506128  0  0.084247  -0.015468  0  3.978414  0
C  C17  1  0.38102843  0.59077025  0.63179417  1  1.596468  0  0.229244  0.603732  0  4.182455  0
C  C18  1  0.28007003  0.73407394  0.69652121  1  -0.058947  0  -0.017151  -0.003406  0  3.96178  0
C  C19  1  0.89446615  0.10918394  0.80320724  1  1.583202  0  0.227569  0.599343  0  4.215579  0
C  C20  1  0.83004388  0.17530712  0.74850099  1  0.427692  0  0.075358  -0.034738  0  3.964108  0
C  C21  1  0.74217988  0.27916217  0.65511362  1  0.529638  0  0.083067  -0.018479  0  3.96937  0
C  C22  1  0.69818224  0.34421241  0.58139838  1  1.578746  0  0.226139  0.602363  0  4.181999  0
C  C23  1  0.83592263  0.21966963  0.65609544  1  -0.052513  0  -0.016355  -0.001007  0  3.964145  0
C  C24  1  0.17883481  0.11344124  0.82496113  1  1.551526  0  0.226164  0.599951  0  4.213192  0
C  C25  1  0.24145282  0.17016072  0.77448200  1  0.4102  0  0.076492  -0.032644  0  3.970356  0
C  C26  1  0.34128157  0.25216049  0.68411721  1  0.49894  0  0.084833  -0.013001  0  3.970303  0
C  C27  1  0.40497979  0.30563120  0.61030288  1  1.589189  0  0.229338  0.607092  0  4.171454  0
C  C28  1  0.28999448  0.20706439  0.68289376  1  -0.002372  0  -0.019254  -0.00621  0  3.966714  0
C  C29  1  0.87693839  0.82864450  0.10772429  1  1.604361  0  0.224017  0.595679  0  4.218028  0
C  C30  1  0.80782982  0.78002762  0.17003719  1  0.35769  0  0.075826  -0.031806  0  3.972046  0
C  C31  1  0.71344603  0.69310293  0.26675924  1  0.502532  0  0.083924  -0.016618  0  3.970389  0
C  C32  1  0.66731771  0.62023405  0.32887791  1  1.645211  0  0.230223  0.608717  0  4.187281  0
C  C33  1  0.80928464  0.68650552  0.21678660  1  0.001489  0  -0.018166  -0.003213  0  3.960928  0
C  C34  1  0.16406567  0.83201496  0.12151436  1  1.580845  0  0.224969  0.597598  0  4.216926  0
C  C35  1  0.21775251  0.78259359  0.18651053  1  0.421843  0  0.07554  -0.033263  0  3.971047  0
C  C36  1  0.30320282  0.69365600  0.28368961  1  0.512991  0  0.083471  -0.017587  0  3.965003  0
C  C37  1  0.36287739  0.62004413  0.34327244  1  1.587365  0  0.228529  0.604885  0  4.187431  0
C  C38  1  0.26648917  0.68871782  0.22807313  1  -0.023484  0  -0.018364  -0.003729  0  3.960814  0
C  C39  1  0.87553513  0.12729729  0.09681644  1  1.574753  0  0.224024  0.597003  0  4.216146  0
C  C40  1  0.80429093  0.18455633  0.15638484  1  0.433158  0  0.074586  -0.03486  0  3.968789  0
C  C41  1  0.70571048  0.27129562  0.25039006  1  0.527095  0  0.084221  -0.015747  0  3.964458  0
C  C42  1  0.65779963  0.32802691  0.31328516  1  1.623749  0  0.229156  0.607633  0  4.18487  0
C  C43  1  0.80290441  0.22877918  0.20769270  1  -0.063297  0  -0.01799  -0.001727  0  3.955127  0
Br  Br44  1  0.28328976  0.83935618  0.59230517  1  0.046311  0  0.057643  0.009639  0  1.425851  0
Br  Br45  1  0.94459612  0.20345495  0.55728221  1  0.043964  0  0.054627  0.003279  0  1.403429  0
Br  Br46  1  0.28907707  0.19541549  0.58241254  1  0.038111  0  0.054041  0.003923  0  1.41183  0
Br  Br47  1  0.91576881  0.57841406  0.21281210  1  0.042946  0  0.050937  0.000591  0  1.41532  0
Br  Br48  1  0.28017762  0.58213445  0.21100240  1  0.036543  0  0.05072  0.001046  0  1.418741  0
Br  Br49  1  0.90807021  0.22963176  0.21644269  1  0.03109  0  0.046928  -0.003772  0  1.418507  0
N  N50  1  0.25006255  0.64175785  0.83866031  1  -0.760878  0  -0.252954  -0.076906  0  3.773399  0
N  N51  1  0.30209439  0.58214933  0.79139454  1  -0.534299  0  -0.201254  -0.146336  0  3.127907  0
N  N52  1  0.73651723  0.20955504  0.79428621  1  -0.767442  0  -0.255148  -0.07631  0  3.786779  0
N  N53  1  0.68294159  0.27139798  0.74140081  1  -0.530892  0  -0.199486  -0.142821  0  3.143045  0
N  N54  1  0.26538537  0.19606771  0.82199572  1  -0.754583  0  -0.255929  -0.080966  0  3.77862  0
N  N55  1  0.32480804  0.24391557  0.77072596  1  -0.527488  0  -0.201324  -0.146918  0  3.129354  0
N  N56  1  0.71463316  0.83371950  0.19416294  1  -0.766486  0  -0.256487  -0.081078  0  3.782862  0
N  N57  1  0.65719151  0.78463838  0.25153983  1  -0.548181  0  -0.201367  -0.145344  0  3.138712  0
N  N58  1  0.22818062  0.83488811  0.21927414  1  -0.776992  0  -0.253962  -0.078769  0  3.777593  0
N  N59  1  0.27800307  0.78462945  0.27682130  1  -0.513413  0  -0.202063  -0.145465  0  3.136998  0
N  N60  1  0.71123521  0.20331625  0.17141607  1  -0.749719  0  -0.256709  -0.079167  0  3.783213  0
N  N61  1  0.65135984  0.25407956  0.22666822  1  -0.559179  0  -0.203091  -0.148344  0  3.138867  0
O  O62  1  0.03483603  0.96795571  0.95884348  1  -1.209391  0  -0.569387  -1.028462  0  2.510284  0
O  O63  1  0.14704084  0.77213674  0.91972358  1  -1.170159  0  -0.323838  -0.562407  0  2.33935  0
O  O64  1  0.16039603  0.89321296  0.78481218  1  -1.162261  0  -0.307358  -0.531916  0  2.351396  0
O  O65  1  0.41000873  0.64277907  0.55085391  1  -1.159573  0  -0.307791  -0.532983  0  2.349199  0
O  O66  1  0.39785577  0.50224694  0.65817947  1  -1.154811  0  -0.311007  -0.529492  0  2.34066  0
O  O67  1  0.85101652  0.08565127  0.88931611  1  -1.178676  0  -0.329681  -0.570619  0  2.35214  0
O  O68  1  0.98300443  0.08213764  0.76490140  1  -1.151149  0  -0.30261  -0.524418  0  2.328233  0
O  O69  1  0.74226234  0.33888054  0.50090805  1  -1.150449  0  -0.305843  -0.52908  0  2.274924  0
O  O70  1  0.61584692  0.40157021  0.60676350  1  -1.177608  0  -0.325935  -0.556126  0  2.361813  0
O  O71  1  0.14911309  0.09709406  0.91162241  1  -1.166312  0  -0.326316  -0.567468  0  2.325131  0
O  O72  1  0.16019930  0.08579177  0.78102160  1  -1.147069  0  -0.305986  -0.530398  0  2.349563  0
O  O73  1  0.39410666  0.34596554  0.53151588  1  -1.159193  0  -0.308029  -0.539359  0  2.304261  0
O  O74  1  0.46450825  0.30721938  0.63443540  1  -1.162412  0  -0.317767  -0.537732  0  2.333872  0
O  O75  1  0.83908595  0.91870402  0.07716461  1  -1.184551  0  -0.328618  -0.56883  0  2.346488  0
O  O76  1  0.96459291  0.78151036  0.08965396  1  -1.162043  0  -0.305917  -0.529738  0  2.342159  0
O  O77  1  0.71713975  0.53453529  0.33276964  1  -1.162187  0  -0.313046  -0.545749  0  2.328899  0
O  O78  1  0.58092299  0.65254714  0.37188849  1  -1.175496  0  -0.310248  -0.52893  0  2.37264  0
O  O79  1  0.13682902  0.92240845  0.09757536  1  -1.188434  0  -0.325444  -0.567489  0  2.329755  0
O  O80  1  0.14876413  0.78373121  0.09529269  1  -1.159048  0  -0.308583  -0.531747  0  2.350176  0
O  O81  1  0.38460532  0.53377780  0.35269564  1  -1.157407  0  -0.311419  -0.539278  0  2.319599  0
O  O82  1  0.38642528  0.65199385  0.37930941  1  -1.155709  0  -0.312294  -0.536006  0  2.381538  0
O  O83  1  0.84010826  0.10426198  0.06250486  1  -1.19052  0  -0.329057  -0.571504  0  2.343688  0
O  O84  1  0.96281130  0.10504669  0.08389652  1  -1.140815  0  -0.309137  -0.533696  0  2.336559  0
O  O85  1  0.71030425  0.34960139  0.32874493  1  -1.159498  0  -0.312956  -0.542805  0  2.337668  0
O  O86  1  0.56867309  0.34900123  0.34488517  1  -1.185925  0  -0.311565  -0.535053  0  2.351588  0
O  O87  1  0.53438928  0.46487352  0.45903441  1  -1.223279  0  -0.572509  -1.036966  0  2.510256  0
