# generated using pymatgen
data_NaFeH24C20(S2O)2
_symmetry_space_group_name_H-M   'P 1'
_cell_length_a   8.80021422
_cell_length_b   9.90291438
_cell_length_c   13.69280000
_cell_angle_alpha   109.40109033
_cell_angle_beta   98.10746405
_cell_angle_gamma   103.75370292
_symmetry_Int_Tables_number   1
_chemical_formula_structural   NaFeH24C20(S2O)2
_chemical_formula_sum   'Na2 Fe2 H48 C40 S8 O4'
_cell_volume   1061.27470204
_cell_formula_units_Z   2
loop_
 _symmetry_equiv_pos_site_id
 _symmetry_equiv_pos_as_xyz
  1  'x, y, z'
loop_
 _atom_site_type_symbol
 _atom_site_label
 _atom_site_symmetry_multiplicity
 _atom_site_fract_x
 _atom_site_fract_y
 _atom_site_fract_z
 _atom_site_occupancy
 _atom_site_hle17_ddec_charge
 _atom_site_hle17_ddec_spin_density
 _atom_site_hle17_ddec_sum_bond_order
 _atom_site_hle17_magmom
 _atom_site_hse06_10hf_ddec_charge
 _atom_site_hse06_10hf_ddec_spin_density
 _atom_site_hse06_10hf_ddec_sum_bond_order
 _atom_site_hse06_10hf_magmom
 _atom_site_hse06_ddec_charge
 _atom_site_hse06_ddec_spin_density
 _atom_site_hse06_ddec_sum_bond_order
 _atom_site_hse06_magmom
 _atom_site_pbe_bader_charge
 _atom_site_pbe_bader_spin_density
 _atom_site_pbe_cm5_charge
 _atom_site_pbe_ddec_charge
 _atom_site_pbe_ddec_spin_density
 _atom_site_pbe_ddec_sum_bond_order
 _atom_site_pbe_magmom
Na  Na0  1  0.95097589  0.13591413  0.91168260  1  0.835768  0.000608  0.458788  -0.001  0.757441  0.000446  0.643689  -0.001  0.76916  -0.000161  0.624807  -0.001  0.86437  0.000154  0.562677  0.748815  0.001263  0.657366  -0.001
Na  Na1  1  0.04902850  0.86408754  0.08831944  1  0.835771  -0.000608  0.458782  0.001  0.757442  -0.000446  0.643676  0.001  0.769162  0.000161  0.624792  0.001  0.864371  -0.000153  0.562661  0.748813  -0.001262  0.65735  0.001
Fe  Fe2  1  0.62213562  0.99317629  0.94153235  1  0.245737  3.009788  3.616628  2.527  0.232477  2.700544  4.123173  2.298  0.331345  3.060524  4.050537  2.632  0.748959  2.013423  0.374651  0.163676  2.344773  4.177523  1.968
Fe  Fe3  1  0.37785958  0.00682538  0.05846886  1  0.245644  -3.009786  3.61671  -2.527  0.232533  -2.700571  4.123202  -2.298  0.331338  -3.060538  4.050561  -2.632  0.748952  -2.01346  0.374632  0.163633  -2.344801  4.177587  -1.968
H  H4  1  0.38792270  0.97997066  0.58527058  1  0.087768  -0.000394  0.959118  0.0  0.102129  -0.000235  1.018395  0.0  0.105082  -0.000249  1.016827  0.0  0.054137  -0.000337  0.095494  0.100057  -0.000227  1.019373  0.0
H  H5  1  0.61207250  0.02003101  0.41473063  1  0.087832  0.000395  0.959009  0.0  0.102144  0.000235  1.018343  0.0  0.105098  0.000249  1.016779  0.0  0.054577  0.000337  0.09549  0.100067  0.000227  1.019321  0.0
H  H6  1  0.39857242  0.77899396  0.42150467  1  0.079076  -0.000165  0.978134  0.0  0.092813  1.3e-05  1.038966  0.0  0.095126  -2.7e-05  1.038616  0.0  0.07063  4.7e-05  0.094544  0.091199  3.8e-05  1.039112  0.0
H  H7  1  0.60142048  0.22100772  0.57849633  1  0.079052  0.000164  0.978069  0.0  0.092786  -1.3e-05  1.038923  0.0  0.095101  2.7e-05  1.038567  0.0  0.070727  -4.7e-05  0.09456  0.091171  -3.8e-05  1.039064  0.0
H  H8  1  0.55111434  0.60118780  0.43603994  1  0.079448  -0.000249  0.970275  -0.001  0.092798  -4.9e-05  1.029863  0.0  0.095077  -7.4e-05  1.029375  0.0  0.048566  -1e-06  0.094324  0.091259  -2.1e-05  1.030111  0.0
H  H9  1  0.44888578  0.39881837  0.56395841  1  0.079415  0.000246  0.970237  0.001  0.092756  4.9e-05  1.029848  0.0  0.095037  7.4e-05  1.029356  0.0  0.048534  1e-06  0.094296  0.091216  2.1e-05  1.030095  0.0
H  H10  1  0.69582022  0.62694148  0.61387367  1  0.089517  -0.000383  0.959054  0.0  0.101244  -0.00027  1.022355  0.0  0.104278  -0.00027  1.02069  0.0  0.064629  -0.000416  0.094811  0.099143  -0.000287  1.023438  0.0
H  H11  1  0.30418287  0.37307031  0.38612630  1  0.089453  0.00038  0.959224  0.0  0.101232  0.00027  1.022471  0.0  0.104267  0.00027  1.020806  0.0  0.064512  0.000416  0.094788  0.099128  0.000287  1.023556  0.0
H  H12  1  0.98659832  0.85601556  0.71033401  1  0.096771  0.000456  0.974563  0.001  0.106353  0.000233  1.040022  0.0  0.109951  0.00019  1.037646  0.0  0.092069  0.000541  0.099048  0.103582  0.000247  1.042019  0.0
H  H13  1  0.01341350  0.14397375  0.28964675  1  0.096671  -0.000459  0.974558  -0.001  0.106261  -0.000233  1.040001  0.0  0.109854  -0.00019  1.037626  0.0  0.09205  -0.000543  0.098985  0.103482  -0.000247  1.042007  0.0
H  H14  1  0.99866820  0.64742775  0.55194870  1  0.07717  -3.5e-05  0.986128  0.0  0.091863  0.000157  1.044203  0.0  0.094034  0.000147  1.043715  0.0  0.067155  0.00029  0.09648  0.090162  0.000162  1.044892  0.0
H  H15  1  0.00135569  0.35254583  0.44805055  1  0.077296  3.3e-05  0.986061  0.0  0.091978  -0.000157  1.044122  0.0  0.094153  -0.000147  1.043623  0.0  0.05264  -0.000303  0.096535  0.090273  -0.000162  1.04482  0.0
H  H16  1  0.19121685  0.50348097  0.56908958  1  0.078779  0.000323  0.972709  0.001  0.09326  -1e-06  1.031328  0.0  0.095507  1.7e-05  1.030702  0.0  0.049212  -1.6e-05  0.097136  0.091368  -1.7e-05  1.032415  0.0
H  H17  1  0.80878878  0.49648586  0.43091954  1  0.078694  -0.000322  0.972675  -0.001  0.093181  1e-06  1.031292  0.0  0.095427  -1.7e-05  1.030667  0.0  0.050963  1.3e-05  0.097116  0.091289  1.7e-05  1.03238  0.0
H  H18  1  0.36837212  0.56567491  0.74636933  1  0.090222  8.3e-05  0.963989  0.0  0.104793  0.00031  1.022937  0.0  0.108001  0.000257  1.020886  0.0  0.063614  0.000752  0.097641  0.102577  0.000361  1.023989  0.0
H  H19  1  0.63163428  0.43431890  0.25364561  1  0.090251  -8.4e-05  0.963918  0.0  0.104801  -0.00031  1.022868  0.0  0.108011  -0.000257  1.020813  0.0  0.063966  -0.000752  0.097625  0.102593  -0.000361  1.023918  0.0
H  H20  1  0.26042012  0.50682397  0.96962233  1  0.038704  0.000351  0.938911  0.0  0.04979  0.000505  1.009351  0.0  0.050897  0.00047  1.008322  0.0  0.053215  0.000749  0.087062  0.049147  0.000474  1.009679  0.0
H  H21  1  0.73958858  0.49319794  0.03037912  1  0.038713  -0.000353  0.938961  0.0  0.049779  -0.000505  1.009443  0.0  0.050887  -0.00047  1.008412  0.0  0.053682  -0.000749  0.087093  0.049145  -0.000474  1.00977  0.0
H  H22  1  0.31223393  0.34070145  0.96712825  1  0.055118  -0.000168  0.946031  0.0  0.067354  -0.000259  1.015795  0.0  0.067367  -0.000186  1.016137  0.0  0.054165  -0.000378  0.100208  0.067168  -0.000236  1.015763  0.0
H  H23  1  0.68777711  0.65931708  0.03286530  1  0.055199  0.000167  0.94584  0.0  0.067381  0.000259  1.015704  0.0  0.06739  0.000187  1.016055  0.0  0.054127  0.000379  0.100189  0.067198  0.000236  1.015673  0.0
H  H24  1  0.46445469  0.62772609  0.13023586  1  0.071041  0.000122  0.969497  0.0  0.085974  6e-05  1.036381  0.0  0.087011  9.1e-05  1.036799  0.0  0.042729  -0.000195  0.082879  0.084728  5e-05  1.036766  0.0
H  H25  1  0.53555420  0.37228233  0.86976602  1  0.071093  -0.000126  0.969477  0.0  0.085963  -6e-05  1.036422  0.0  0.08698  -9.1e-05  1.036859  0.0  0.042723  0.000195  0.082873  0.084723  -5e-05  1.036803  0.0
H  H26  1  0.45167217  0.45483102  0.14776918  1  0.066171  -0.000534  0.984211  0.0  0.078125  -0.000629  1.054491  0.0  0.079174  -0.000527  1.054677  0.0  0.022012  -0.001223  0.079514  0.077244  -0.000715  1.05442  0.0
H  H27  1  0.54833483  0.54517516  0.85222542  1  0.06614  0.000532  0.98414  0.0  0.078114  0.000629  1.054423  0.0  0.079162  0.000527  1.054607  0.0  0.021805  0.001223  0.079486  0.077236  0.000715  1.054348  0.0
H  H28  1  0.28371206  0.67389521  0.23823030  1  0.060716  -0.000238  0.983754  0.0  0.073819  -0.000357  1.055265  0.0  0.074932  -0.000253  1.055075  0.0  0.047472  -0.000803  0.083255  0.072888  -0.000448  1.055455  0.0
H  H29  1  0.71629384  0.32610759  0.76176996  1  0.060744  0.000236  0.983763  0.0  0.073886  0.000356  1.055256  0.0  0.075  0.000254  1.055062  0.0  0.047468  0.000803  0.083281  0.072955  0.000448  1.055448  0.0
H  H30  1  0.28046888  0.50572800  0.26026246  1  0.070764  4.1e-05  0.948076  0.0  0.086961  -3.6e-05  1.010053  0.0  0.087684  3.9e-05  1.010407  0.0  0.01989  -0.000279  0.085782  0.086404  -7.8e-05  1.009815  0.0
H  H31  1  0.71953711  0.49426806  0.73973327  1  0.070795  -4.3e-05  0.948015  0.0  0.087023  3.6e-05  1.009986  0.0  0.087745  -3.9e-05  1.010343  0.0  0.020042  0.000279  0.085818  0.086469  7.7e-05  1.009746  0.0
H  H32  1  0.00980239  0.41096962  0.15541285  1  0.060337  6.3e-05  0.955397  0.0  0.071235  2.3e-05  1.022921  0.0  0.070671  2e-05  1.02476  0.0  0.073721  -2.6e-05  0.099888  0.071538  5.5e-05  1.021637  0.0
H  H33  1  0.99020434  0.58902869  0.84457983  1  0.060353  -6.8e-05  0.955282  0.0  0.07126  -2.3e-05  1.022787  0.0  0.070695  -2e-05  1.024627  0.0  0.073849  2.6e-05  0.0999  0.071565  -5.5e-05  1.021503  0.0
H  H34  1  0.04470722  0.55465111  0.10163615  1  0.037801  1.3e-05  0.952647  0.0  0.047846  1.5e-05  1.023844  0.0  0.049641  1.8e-05  1.02143  0.0  0.037713  9e-06  0.095056  0.04631  1.5e-05  1.025798  0.0
H  H35  1  0.95530135  0.44535282  0.89836170  1  0.03785  -9e-06  0.952707  0.0  0.047917  -1.5e-05  1.023877  0.0  0.049699  -1.8e-05  1.021476  0.0  0.037739  -9e-06  0.095062  0.046382  -1.5e-05  1.025829  0.0
H  H36  1  0.77702463  0.13210689  0.68158179  1  0.049604  0.000234  0.973219  0.0  0.061787  0.000326  1.04422  0.0  0.061967  0.000242  1.044239  0.0  0.044859  0.000622  0.098052  0.061663  0.000402  1.044118  0.0
H  H37  1  0.22296539  0.86788242  0.31842182  1  0.049652  -0.000238  0.973175  0.0  0.061792  -0.000326  1.044165  0.0  0.062008  -0.000241  1.044161  0.0  0.044926  -0.000622  0.098034  0.06164  -0.000402  1.044085  0.0
H  H38  1  0.85099917  0.98734459  0.60779112  1  0.043778  4e-05  0.940018  0.0  0.05809  5e-05  1.005254  0.0  0.058077  3.8e-05  1.006176  0.0  0.010448  0.000146  0.091989  0.05797  7e-05  1.004787  0.0
H  H39  1  0.14899764  0.01265146  0.39220889  1  0.043801  -3.9e-05  0.939978  0.0  0.058077  -5e-05  1.005228  0.0  0.05807  -3.8e-05  1.006159  0.0  0.01051  -0.000146  0.091964  0.057956  -7e-05  1.004758  0.0
H  H40  1  0.96274567  0.32128531  0.63973555  1  0.07715  -6.2e-05  0.938861  0.0  0.096232  -6e-05  0.996183  0.0  0.096652  -4.8e-05  0.997788  0.0  0.056801  -9.3e-05  0.092077  0.09593  -7.2e-05  0.995125  0.0
H  H41  1  0.03723461  0.67871637  0.36027015  1  0.077199  5.9e-05  0.938688  0.0  0.096237  6e-05  0.99607  0.0  0.096658  4.8e-05  0.997669  0.0  0.056858  9.3e-05  0.092085  0.095937  7.2e-05  0.995012  0.0
H  H42  1  0.90787229  0.16446226  0.51697184  1  0.077295  -5.3e-05  0.953028  0.0  0.095271  -6.9e-05  1.015513  0.0  0.095686  -6.3e-05  1.016501  0.0  0.070048  -0.000124  0.093555  0.095091  -6.9e-05  1.014652  0.0
H  H43  1  0.09211258  0.83553942  0.48303281  1  0.077261  5.1e-05  0.953013  0.0  0.095291  6.9e-05  1.015439  0.0  0.095705  6.4e-05  1.016427  0.0  0.069987  0.000123  0.093564  0.095109  6.9e-05  1.014581  0.0
H  H44  1  0.15265622  0.10242457  0.55956421  1  0.064566  -1.6e-05  0.965978  0.0  0.082119  -2.9e-05  1.029694  0.0  0.082632  -1.6e-05  1.030624  0.0  -0.000426  -5.6e-05  0.087029  0.081781  -3.3e-05  1.029025  0.0
H  H45  1  0.84733844  0.89758947  0.44043408  1  0.064586  1.2e-05  0.965987  0.0  0.082144  2.9e-05  1.029689  0.0  0.082657  1.6e-05  1.030618  0.0  -0.000495  5.6e-05  0.087065  0.081806  3.3e-05  1.02902  0.0
H  H46  1  0.22774261  0.29908596  0.62755652  1  0.072091  -1.6e-05  0.96473  0.0  0.088943  -2.1e-05  1.028362  0.0  0.089164  -1.3e-05  1.029568  0.0  0.046251  -5.8e-05  0.090123  0.088788  -3.1e-05  1.027459  0.0
H  H47  1  0.77224249  0.70092696  0.37245012  1  0.072123  1.4e-05  0.964627  0.0  0.08896  2.1e-05  1.028285  0.0  0.089181  1.3e-05  1.02949  0.0  0.046379  5.8e-05  0.090132  0.088805  3.1e-05  1.027381  0.0
H  H48  1  0.24156094  0.27712041  0.79615340  1  0.046602  -5.7e-05  0.950843  0.0  0.060018  -8.7e-05  1.018291  0.0  0.06034  -7.7e-05  1.017824  0.0  0.020576  -7.7e-05  0.097553  0.060197  -7.3e-05  1.0178  0.0
H  H49  1  0.75843403  0.72287003  0.20384655  1  0.046614  5.8e-05  0.950812  0.0  0.060043  8.7e-05  1.018236  0.0  0.060366  7.7e-05  1.017775  0.0  0.020532  7.7e-05  0.097527  0.060221  7.3e-05  1.017748  0.0
H  H50  1  0.21119461  0.08217774  0.72669431  1  0.050177  -2e-05  0.961491  0.0  0.057613  0.000105  1.038097  0.0  0.058958  -4.7e-05  1.036831  0.0  0.049301  0.000407  0.087441  0.056555  0.000236  1.038947  0.0
H  H51  1  0.78879650  0.91781495  0.27329634  1  0.050209  1.7e-05  0.961517  0.0  0.057593  -0.000104  1.038156  0.0  0.058966  4.7e-05  1.036867  0.0  0.049094  -0.000408  0.087485  0.056537  -0.000236  1.039004  0.0
C  C52  1  0.53268611  0.91528578  0.69218310  1  0.039393  -0.001611  3.806459  -0.004  0.059815  -0.000186  4.047516  -0.002  0.062704  -0.001487  4.071696  -0.003  -0.157845  0.003594  -0.019071  0.056962  0.001097  4.031795  -0.001
C  C53  1  0.46730790  0.08471927  0.30782174  1  0.039395  0.001629  3.806512  0.004  0.059784  0.000185  4.047562  0.002  0.062712  0.001486  4.071685  0.003  -0.157723  -0.003594  -0.019078  0.0569  -0.001098  4.031873  0.001
C  C54  1  0.45433633  0.90191154  0.59128155  1  -0.113451  0.004609  3.761249  0.006  -0.131179  0.004971  4.007114  0.006  -0.133348  0.003358  4.027285  0.004  0.005484  0.012496  -0.100632  -0.129406  0.006254  3.993219  0.007
C  C55  1  0.54564891  0.09809126  0.40872268  1  -0.113534  -0.004633  3.761402  -0.006  -0.131199  -0.004971  4.00726  -0.006  -0.133384  -0.003358  4.027422  -0.004  0.004184  -0.012497  -0.100578  -0.129429  -0.006255  3.993405  -0.007
C  C56  1  0.46109921  0.78956363  0.49950633  1  -0.088334  0.003687  3.812025  0.004  -0.103209  0.003997  4.063138  0.004  -0.105871  0.002471  4.086519  0.002  -0.078092  0.010022  -0.105905  -0.10147  0.005146  4.046944  0.005
C  C57  1  0.53889140  0.21043804  0.50049446  1  -0.088304  -0.00366  3.812279  -0.004  -0.103189  -0.003997  4.063376  -0.004  -0.105849  -0.002471  4.086759  -0.002  -0.077521  -0.010023  -0.105985  -0.101455  -0.005146  4.047179  -0.005
C  C58  1  0.54773901  0.69046520  0.50758941  1  -0.091675  0.004861  3.829417  0.005  -0.106313  0.005019  4.085195  0.005  -0.108493  0.003404  4.108409  0.003  -0.075026  0.012521  -0.106204  -0.104459  0.006407  4.068927  0.006
C  C59  1  0.45225201  0.30953423  0.49240942  1  -0.091621  -0.004883  3.82945  -0.005  -0.106257  -0.00502  4.08525  -0.005  -0.108435  -0.003405  4.10846  -0.003  -0.074586  -0.012524  -0.106177  -0.104406  -0.006408  4.068983  -0.006
C  C60  1  0.62819603  0.70399007  0.60736049  1  -0.12825  0.003277  3.772435  0.004  -0.14754  0.003988  4.023141  0.005  -0.150282  0.00252  4.043474  0.003  -0.022262  0.009903  -0.104532  -0.145342  0.004939  4.008838  0.006
C  C61  1  0.37178811  0.29600936  0.39263844  1  -0.128193  -0.003249  3.772343  -0.004  -0.147538  -0.003988  4.023062  -0.005  -0.150278  -0.00252  4.043394  -0.003  -0.022395  -0.009903  -0.104465  -0.145342  -0.004939  4.008757  -0.006
C  C62  1  0.62003502  0.81536115  0.70028314  1  0.041599  0.000297  3.802745  -0.001  0.062367  0.001361  4.045791  0.001  0.065003  -0.000127  4.070242  -0.001  -0.170397  0.00695  -0.018225  0.060272  0.002993  4.029698  0.002
C  C63  1  0.37995637  0.18463940  0.29971673  1  0.041625  -0.000316  3.802742  0.001  0.06241  -0.001359  4.045825  -0.001  0.06503  0.000126  4.070267  0.001  -0.170523  -0.00695  -0.018268  0.060324  -0.002993  4.029732  -0.002
C  C64  1  0.17313378  0.83081043  0.81757571  1  0.066986  0.01316  3.792044  0.02  0.086323  0.007994  4.031184  0.012  0.089943  0.009015  4.054515  0.014  -0.16002  0.011935  -0.0114  0.083626  0.006579  4.015563  0.01
C  C65  1  0.82686905  0.16919349  0.18242016  1  0.067118  -0.013166  3.791684  -0.02  0.086495  -0.007993  4.030769  -0.012  0.090116  -0.009013  4.054099  -0.014  -0.159781  -0.011935  -0.011306  0.083804  -0.006578  4.015142  -0.01
C  C66  1  0.06967745  0.79201636  0.71787339  1  -0.116969  -0.011738  3.737692  -0.016  -0.133727  -0.007112  3.983484  -0.009  -0.136267  -0.007019  4.002287  -0.01  -0.030209  -0.014234  -0.096073  -0.132124  -0.007055  3.971115  -0.009
C  C67  1  0.93033937  0.20797070  0.28211678  1  -0.116879  0.011747  3.737285  0.016  -0.13365  0.007112  3.983139  0.009  -0.136183  0.007019  4.001935  0.01  -0.030344  0.014234  -0.096044  -0.132038  0.007055  3.970771  0.009
C  C68  1  0.07596790  0.67412677  0.62948565  1  -0.074778  0.009095  3.795349  0.013  -0.08764  0.005177  4.042827  0.007  -0.089613  0.006162  4.065476  0.008  -0.039689  0.008122  -0.097494  -0.086433  0.00398  4.027876  0.006
C  C69  1  0.92405356  0.32585692  0.37051362  1  -0.074988  -0.009097  3.794943  -0.013  -0.087843  -0.005176  4.042404  -0.007  -0.089823  -0.006161  4.065064  -0.008  -0.025324  -0.008109  -0.097518  -0.086628  -0.00398  4.027442  -0.006
C  C70  1  0.18262129  0.59199962  0.63907072  1  -0.079214  -0.011566  3.802794  -0.015  -0.095345  -0.007231  4.056753  -0.009  -0.097808  -0.006947  4.080252  -0.009  -0.053817  -0.014466  -0.100036  -0.094107  -0.007331  4.041416  -0.009
C  C71  1  0.81739030  0.40797845  0.36093653  1  -0.079011  0.011573  3.802129  0.015  -0.095126  0.00723  4.056077  0.009  -0.09759  0.006946  4.079573  0.009  -0.055724  0.014466  -0.100059  -0.093889  0.007331  4.040745  0.009
C  C72  1  0.28267574  0.62689877  0.73798032  1  -0.10331  0.009058  3.758561  0.012  -0.122542  0.005154  4.005385  0.007  -0.12499  0.006194  4.026143  0.009  -0.038029  0.007951  -0.093318  -0.120029  0.004024  3.990041  0.006
C  C73  1  0.71732309  0.37308942  0.26202966  1  -0.103508  -0.009064  3.758337  -0.012  -0.122706  -0.005153  4.0052  -0.007  -0.12515  -0.006193  4.025952  -0.009  -0.038122  -0.00795  -0.093327  -0.120202  -0.004024  3.989863  -0.006
C  C74  1  0.27894885  0.74666219  0.82692935  1  0.022977  -0.005734  3.756068  -0.009  0.043123  -0.002262  3.998869  -0.005  0.045637  -0.002554  4.022413  -0.005  -0.140354  -0.003748  -0.018516  0.041167  -0.001896  3.982481  -0.004
C  C75  1  0.72105402  0.25333836  0.17307228  1  0.023024  0.005739  3.756025  0.009  0.043097  0.002261  3.998934  0.005  0.045611  0.002552  4.022474  0.005  -0.140203  0.003751  -0.018543  0.041139  0.001896  3.982547  0.004
C  C76  1  0.27208683  0.43331060  0.01403138  1  0.100055  0.00011  3.595411  0.0  0.048796  0.000154  3.860144  0.0  0.055517  0.000172  3.866201  0.0  0.378438  0.000216  -0.073929  0.044126  0.000116  3.856131  0.0
C  C77  1  0.72792274  0.56670344  0.98596753  1  0.099893  -0.000107  3.595222  0.0  0.048603  -0.000154  3.860127  0.0  0.055325  -0.000172  3.866173  0.0  0.378627  -0.000216  -0.074044  0.043926  -0.000116  3.856126  0.0
C  C78  1  0.38148993  0.52274424  0.12598477  1  -0.146502  -0.000512  3.64985  -0.001  -0.182093  -0.000827  3.898326  -0.001  -0.184341  -0.000633  3.911375  -0.001  -0.025754  -0.001531  -0.173127  -0.180204  -0.000915  3.889818  -0.001
C  C79  1  0.61851744  0.47726305  0.87401305  1  -0.146499  0.000522  3.649635  0.001  -0.182013  0.000827  3.898153  0.001  -0.18424  0.000633  3.911203  0.001  -0.025831  0.001532  -0.17309  -0.180127  0.000916  3.889646  0.001
C  C80  1  0.26428247  0.55288294  0.19887466  1  -0.138138  -0.000104  3.644555  0.0  -0.175028  -0.000362  3.895279  0.0  -0.176822  -0.000154  3.908062  0.0  -0.036874  -0.000778  -0.168495  -0.173791  -0.000469  3.886545  0.0
C  C81  1  0.73572347  0.44711649  0.80112333  1  -0.13825  0.000109  3.644519  0.0  -0.17523  0.000362  3.895318  0.0  -0.177021  0.000154  3.908091  0.0  -0.0371  0.000778  -0.168569  -0.173995  0.000469  3.886587  0.0
C  C82  1  0.09575592  0.47423030  0.12365567  1  0.096315  2.6e-05  3.583678  0.0  0.047617  -2.5e-05  3.845586  0.0  0.054381  -1.5e-05  3.851293  0.0  0.372328  -2.1e-05  -0.072136  0.043215  -9e-06  3.84169  0.0
C  C83  1  0.90424961  0.52577138  0.87633991  1  0.096241  -2.3e-05  3.583661  0.0  0.047556  2.5e-05  3.845613  0.0  0.054327  1.6e-05  3.851323  0.0  0.372107  2.1e-05  -0.072137  0.043153  1e-05  3.841718  0.0
C  C84  1  0.88447420  0.10851481  0.65729079  1  0.092213  5.8e-05  3.62779  0.0  0.037947  0.000154  3.896164  0.0  0.04473  0.000116  3.902341  0.0  0.435986  0.000213  -0.076208  0.033403  0.00021  3.89192  0.0
C  C85  1  0.11551728  0.89147900  0.34270892  1  0.092104  -5.6e-05  3.627709  0.0  0.037931  -0.000154  3.89604  0.0  0.044661  -0.000116  3.902244  0.0  0.435705  -0.000213  -0.076182  0.033414  -0.00021  3.891795  0.0
C  C86  1  0.96550720  0.20531901  0.60216190  1  -0.152415  -7.8e-05  3.687372  0.0  -0.193326  -0.000121  3.946677  0.0  -0.195268  -0.000103  3.959774  0.0  -0.085725  -0.000187  -0.171861  -0.19187  -0.000115  3.937492  0.0
C  C87  1  0.03447997  0.79468267  0.39784224  1  -0.152306  8.7e-05  3.686917  0.0  -0.193223  0.000122  3.946182  0.0  -0.195157  0.000102  3.959288  0.0  -0.08563  0.000187  -0.171854  -0.19177  0.000115  3.936995  0.0
C  C88  1  0.13889029  0.19765057  0.62334262  1  -0.142035  -2.6e-05  3.654163  0.0  -0.181223  -6.3e-05  3.908605  0.0  -0.183339  -3.9e-05  3.922323  0.0  -0.007251  -0.000148  -0.169252  -0.179435  -8.8e-05  3.89861  0.0
C  C89  1  0.86109798  0.80235448  0.37665877  1  -0.14214  3.4e-05  3.654066  0.0  -0.181361  6.3e-05  3.908533  0.0  -0.183478  3.9e-05  3.922254  0.0  -0.007233  0.000148  -0.169287  -0.179569  8.8e-05  3.898537  0.0
C  C90  1  0.16240828  0.17566254  0.72974581  1  0.09474  -0.000151  3.570311  0.0  0.042441  -0.000104  3.835269  0.0  0.049717  -0.000193  3.839513  0.0  0.395577  0.000275  -0.075747  0.037598  -2.1e-05  3.831595  0.0
C  C91  1  0.83758357  0.82433239  0.27025129  1  0.094725  0.000155  3.570401  0.0  0.0425  0.000104  3.835281  0.0  0.049756  0.000192  3.839515  0.0  0.395705  -0.000275  -0.075753  0.037657  2.1e-05  3.831604  0.0
S  S92  1  0.52979563  0.05589350  0.80943351  1  -0.279752  0.023292  2.417822  0.02  -0.27878  0.039815  2.796655  0.039  -0.309393  0.014287  2.795131  0.004  -0.265973  0.10618  -0.159142  -0.255852  0.056293  2.797636  0.06
S  S93  1  0.47019759  0.94411268  0.19056933  1  -0.279736  -0.023295  2.417801  -0.02  -0.278799  -0.039809  2.796662  -0.039  -0.309408  -0.014283  2.795117  -0.004  -0.26586  -0.106171  -0.159149  -0.255842  -0.056288  2.797644  -0.06
S  S94  1  0.71700349  0.83544499  0.82739985  1  -0.279722  0.009074  2.405291  0.004  -0.278274  0.026591  2.788119  0.027  -0.304485  0.004022  2.782295  -0.005  -0.275256  0.070732  -0.172055  -0.259892  0.037905  2.792543  0.041
S  S95  1  0.28299135  0.16455556  0.17259886  1  -0.27976  -0.009084  2.405443  -0.004  -0.278321  -0.026588  2.788227  -0.027  -0.304515  -0.004021  2.782407  0.005  -0.275439  -0.070724  -0.172061  -0.259919  -0.0379  2.792633  -0.041
S  S96  1  0.17991166  0.98412412  0.93008912  1  -0.383742  -0.028556  2.523519  -0.03  -0.370222  -0.035943  2.919026  -0.036  -0.397822  -0.018985  2.90931  -0.013  -0.32393  -0.084561  -0.212885  -0.350827  -0.045805  2.927036  -0.048
S  S97  1  0.82009043  0.01587756  0.06990322  1  -0.383779  0.028549  2.523464  0.03  -0.370252  0.035949  2.91898  0.036  -0.397867  0.01899  2.909275  0.013  -0.324035  0.084577  -0.212902  -0.350873  0.045814  2.926996  0.048
S  S98  1  0.41263972  0.80143611  0.95141041  1  -0.153895  0.062149  2.710057  0.076  -0.142197  0.05031  3.124112  0.057  -0.181156  0.060694  3.114672  0.076  -0.243793  0.068711  -0.131529  -0.115747  0.037381  3.133266  0.037
S  S99  1  0.58736609  0.19857343  0.04859000  1  -0.153935  -0.062154  2.709894  -0.076  -0.142169  -0.050304  3.12389  -0.057  -0.181162  -0.060688  3.114519  -0.076  -0.243935  -0.068701  -0.131515  -0.115732  -0.037372  3.133062  -0.037
O  O100  1  0.11646779  0.36682383  0.02880271  1  -0.391283  -6.2e-05  2.21886  0.0  -0.318013  -8.2e-05  2.476704  0.0  -0.333691  -3.4e-05  2.474725  0.0  -1.066648  4.4e-05  -0.316242  -0.307125  -2.9e-05  2.477937  0.0
O  O101  1  0.88353770  0.63318122  0.97118929  1  -0.391167  5.9e-05  2.218964  0.0  -0.317854  8.2e-05  2.476788  0.0  -0.33353  3.4e-05  2.474807  0.0  -1.066777  -4.4e-05  -0.316151  -0.306964  2.9e-05  2.478019  0.0
O  O102  1  0.00437318  0.14457738  0.75328061  1  -0.392946  4e-06  2.199784  0.0  -0.318152  9e-06  2.455739  0.0  -0.333049  5.3e-05  2.45287  0.0  -1.062921  0.000234  -0.314219  -0.30747  2e-06  2.457178  0.0
O  O103  1  0.99562170  0.85541980  0.24671949  1  -0.392966  -4e-06  2.199932  0.0  -0.318192  -9e-06  2.455828  0.0  -0.333088  -5.3e-05  2.453003  0.0  -1.062817  -0.000234  -0.314241  -0.307512  -2e-06  2.457259  0.0
