# generated using pymatgen
data_CuH13C19N3O5
_symmetry_space_group_name_H-M   'P 1'
_cell_length_a   8.38070117
_cell_length_b   10.19221429
_cell_length_c   11.56819138
_cell_angle_alpha   114.24811353
_cell_angle_beta   102.87884752
_cell_angle_gamma   98.39250850
_symmetry_Int_Tables_number   1
_chemical_formula_structural   CuH13C19N3O5
_chemical_formula_sum   'Cu2 H26 C38 N6 O10'
_cell_volume   846.35646409
_cell_formula_units_Z   2
loop_
 _symmetry_equiv_pos_site_id
 _symmetry_equiv_pos_as_xyz
  1  'x, y, z'
loop_
 _atom_site_type_symbol
 _atom_site_label
 _atom_site_symmetry_multiplicity
 _atom_site_fract_x
 _atom_site_fract_y
 _atom_site_fract_z
 _atom_site_occupancy
 _atom_site_pbe_cm5_charge
 _atom_site_pbe_ddec_charge
 _atom_site_pbe_ddec_spin_density
 _atom_site_pbe_ddec_sum_bond_order
 _atom_site_pbe_magmom
Cu  Cu0  1  0.13942296  0.84984950  0.43422670  1  0.738769  0.791267  0.736373  2.229976  0.575
Cu  Cu1  1  0.86058400  0.15017202  0.56576960  1  0.738706  0.791186  0.736378  2.230099  0.575
H  H2  1  0.59958707  0.32546972  0.81577251  1  0.305515  0.285378  3e-05  1.003645  0.0
H  H3  1  0.40041610  0.67453507  0.18422578  1  0.305521  0.285402  3e-05  1.003623  0.0
H  H4  1  0.13063448  0.89407509  0.19182576  1  0.121043  0.10102  0.00074  1.014922  0.002
H  H5  1  0.86936219  0.10591630  0.80816751  1  0.12101  0.100969  0.00074  1.014781  0.002
H  H6  1  0.96193849  0.75772706  0.94608481  1  0.11253  0.119517  0.000641  0.985189  0.0
H  H7  1  0.03807224  0.24227438  0.05391260  1  0.112529  0.119454  0.000642  0.985096  0.0
H  H8  1  0.74521682  0.51790507  0.86082273  1  0.108495  0.101189  2.6e-05  1.080534  0.0
H  H9  1  0.25479243  0.48209971  0.13917047  1  0.108565  0.10124  2.6e-05  1.080448  0.0
H  H10  1  0.87745128  0.56912170  0.26275394  1  0.128325  0.115003  0.000945  1.001711  0.002
H  H11  1  0.12254938  0.43088307  0.73723530  1  0.12833  0.115043  0.000945  1.001677  0.002
H  H12  1  0.41679470  0.12969185  0.63192982  1  0.126156  0.122321  0.000997  1.01997  0.002
H  H13  1  0.58325018  0.87029289  0.36807387  1  0.126139  0.122449  0.000997  1.019734  0.002
H  H14  1  0.44053173  0.15730551  0.01824726  1  0.109958  0.122922  1.8e-05  1.050182  0.0
H  H15  1  0.55946874  0.84269034  0.98174737  1  0.109925  0.122888  1.8e-05  1.050135  0.0
H  H16  1  0.21844944  0.91214011  0.89928142  1  0.109276  0.115769  0.000844  0.99279  0.001
H  H17  1  0.78156743  0.08785351  0.10070722  1  0.109284  0.11577  0.000845  0.992641  0.001
H  H18  1  0.10391764  0.78774715  0.64922129  1  0.123109  0.101873  0.000961  1.014177  0.002
H  H19  1  0.89612251  0.21224649  0.35077277  1  0.123092  0.101777  0.000961  1.01409  0.002
H  H20  1  0.42624868  0.10097601  0.32685430  1  0.097995  0.098383  0.000153  1.038988  0.0
H  H21  1  0.57374071  0.89903992  0.67314151  1  0.098  0.098335  0.000153  1.038989  0.0
H  H22  1  0.58021375  0.26095170  0.24793971  1  0.098293  0.104309  0.000106  1.048221  0.0
H  H23  1  0.41977082  0.73908434  0.75207992  1  0.098171  0.10407  0.000106  1.04832  0.0
H  H24  1  0.51468218  0.49884108  0.27789080  1  0.102934  0.106197  -3.8e-05  1.01023  0.0
H  H25  1  0.48528040  0.50118268  0.72213387  1  0.103084  0.106372  -3.8e-05  1.010057  0.0
H  H26  1  0.14680217  0.42333264  0.46654603  1  0.11059  0.125339  0.000337  0.995007  0.0
H  H27  1  0.85317409  0.57664758  0.53345467  1  0.110642  0.125374  0.000337  0.994983  0.0
C  C28  1  0.03376286  0.78862365  0.14835499  1  0.049677  0.092735  -0.000902  3.912154  0.0
C  C29  1  0.96623963  0.21137890  0.85164065  1  0.049722  0.092808  -0.0009  3.911988  0.0
C  C30  1  0.93991543  0.71273139  0.01357309  1  -0.082338  -0.123974  0.003851  3.985336  0.005
C  C31  1  0.06009760  0.28727785  0.98641887  1  -0.082348  -0.123798  0.003852  3.985328  0.005
C  C32  1  0.81855555  0.57840971  0.96612255  1  -0.064387  -0.052463  -0.00422  3.933879  -0.002
C  C33  1  0.18144547  0.42159617  0.03386974  1  -0.064422  -0.052575  -0.004219  3.934244  -0.002
C  C34  1  0.79560979  0.52245730  0.05482616  1  -0.011778  -0.079062  0.003885  3.97656  0.005
C  C35  1  0.20439544  0.47755419  0.94517921  1  -0.011787  -0.07892  0.003885  3.976703  0.005
C  C36  1  0.89298469  0.60692358  0.18959788  1  0.062404  0.091184  -0.001592  3.855513  -0.001
C  C37  1  0.10702694  0.39308902  0.81040112  1  0.062397  0.091108  -0.001594  3.855429  -0.001
C  C38  1  0.37398392  0.08588245  0.69441363  1  0.052811  0.007232  -0.001948  3.850452  -0.001
C  C39  1  0.62604485  0.91409779  0.30557724  1  0.052728  0.006926  -0.001946  3.850451  -0.001
C  C40  1  0.44773815  0.16237081  0.83414858  1  0.106391  0.212908  0.003781  3.982176  0.005
C  C41  1  0.55228604  0.83761054  0.16583850  1  0.106573  0.213158  0.003781  3.982277  0.005
C  C42  1  0.38827538  0.10078235  0.91024263  1  -0.076719  -0.138086  -0.00458  3.919274  -0.003
C  C43  1  0.61174918  0.89922023  0.08976170  1  -0.076779  -0.138137  -0.004578  3.919808  -0.003
C  C44  1  0.26321648  0.96552993  0.84364311  1  -0.0813  -0.106765  0.004057  4.004273  0.005
C  C45  1  0.73680446  0.03445255  0.15635597  1  -0.081252  -0.106962  0.004056  4.004941  0.005
C  C46  1  0.19819262  0.89529920  0.70529510  1  0.040949  0.072936  -0.001457  3.929883  -0.001
C  C47  1  0.80184238  0.10468551  0.29469578  1  0.040893  0.073216  -0.001458  3.929841  -0.001
C  C48  1  0.67575498  0.37672215  0.01749647  1  0.239679  0.468427  0.000884  4.13101  0.001
C  C49  1  0.32425400  0.62328153  0.98250579  1  0.239653  0.468277  0.000884  4.131011  0.001
C  C50  1  0.27705953  0.25155454  0.40052198  1  -0.02541  -0.047488  0.00745  3.978684  0.008
C  C51  1  0.72291907  0.74846586  0.59948845  1  -0.025259  -0.047277  0.00745  3.978319  0.008
C  C52  1  0.39711633  0.20483859  0.33668477  1  -0.086115  -0.080662  -0.00134  3.954846  -0.001
C  C53  1  0.60285897  0.79516283  0.66331913  1  -0.086124  -0.080628  -0.00134  3.954921  -0.001
C  C54  1  0.48212740  0.29331126  0.29256544  1  -0.09623  -0.09244  0.000639  4.007826  0.001
C  C55  1  0.51785695  0.70669576  0.70744452  1  -0.096178  -0.092243  0.00064  4.007769  0.001
C  C56  1  0.44507376  0.42744915  0.30906727  1  -0.081949  -0.080443  -0.000434  3.961678  0.0
C  C57  1  0.55491160  0.57254894  0.69094480  1  -0.082098  -0.080693  -0.000434  3.961631  0.0
C  C58  1  0.32100614  0.47324348  0.36824872  1  -0.022256  -0.047811  0.006539  3.979871  0.007
C  C59  1  0.67896462  0.52675123  0.63174339  1  -0.022227  -0.047626  0.00654  3.979357  0.007
C  C60  1  0.23865167  0.38564147  0.41571749  1  -0.07624  -0.101353  0.000208  3.915928  0.001
C  C61  1  0.76133050  0.61436665  0.58428127  1  -0.076404  -0.101609  0.000207  3.915395  0.001
C  C62  1  0.19540475  0.15849245  0.45508280  1  0.209574  0.580136  -0.000809  4.218759  -0.002
C  C63  1  0.80458871  0.84151235  0.54492692  1  0.209402  0.579935  -0.000811  4.218731  -0.002
C  C64  1  0.28223352  0.61661568  0.38085056  1  0.19756  0.557157  -0.001748  4.226373  -0.003
C  C65  1  0.71772289  0.38336786  0.61914302  1  0.197388  0.556736  -0.001746  4.226391  -0.003
N  N66  1  0.25197606  0.95695058  0.63286636  1  -0.342669  -0.210895  0.058579  3.646047  0.077
N  N67  1  0.74806023  0.04302632  0.36711930  1  -0.342629  -0.210877  0.058587  3.645856  0.077
N  N68  1  0.57339873  0.29673817  0.88707224  1  -0.391674  -0.374734  0.000887  3.555584  0.001
N  N69  1  0.42661449  0.70326329  0.11293335  1  -0.39169  -0.374672  0.000887  3.55544  0.001
N  N70  1  0.00854091  0.73693227  0.23484958  1  -0.332638  -0.203052  0.055554  3.566397  0.072
N  N71  1  0.99146832  0.26308033  0.76515509  1  -0.332589  -0.203159  0.05556  3.566399  0.072
O  O72  1  0.67247735  0.33432870  0.10349778  1  -0.280022  -0.473747  0.00054  2.174431  0.001
O  O73  1  0.32752531  0.66567832  0.89650643  1  -0.27997  -0.473697  0.000539  2.174586  0.001
O  O74  1  0.21152528  0.02398261  0.40759100  1  -0.331277  -0.572124  0.062792  2.458824  0.091
O  O75  1  0.78845184  0.97601660  0.59242017  1  -0.331072  -0.572  0.062795  2.45861  0.091
O  O76  1  0.12205132  0.21418321  0.53968311  1  -0.324049  -0.58691  0.002031  2.332589  0.005
O  O77  1  0.87796623  0.78581604  0.46033706  1  -0.324063  -0.586879  0.00203  2.332372  0.005
O  O78  1  0.35923293  0.69103220  0.33526613  1  -0.330913  -0.597245  -0.000165  2.25192  0.002
O  O79  1  0.64072529  0.30896922  0.66474372  1  -0.330733  -0.596942  -0.000166  2.251995  0.002
O  O80  1  0.16827138  0.65623207  0.43591101  1  -0.314123  -0.523963  0.065385  2.318232  0.092
O  O81  1  0.83167160  0.34373137  0.56407231  1  -0.314081  -0.523783  0.065356  2.318539  0.092
