# generated using pymatgen
data_AgH9C8S(NO)2
_symmetry_space_group_name_H-M   'P 1'
_cell_length_a   8.82935722
_cell_length_b   9.03797354
_cell_length_c   12.67983017
_cell_angle_alpha   90.00022243
_cell_angle_beta   89.99980155
_cell_angle_gamma   108.79278716
_symmetry_Int_Tables_number   1
_chemical_formula_structural   AgH9C8S(NO)2
_chemical_formula_sum   'Ag4 H36 C32 S4 N8 O8'
_cell_volume   957.90248139
_cell_formula_units_Z   4
loop_
 _symmetry_equiv_pos_site_id
 _symmetry_equiv_pos_as_xyz
  1  'x, y, z'
loop_
 _atom_site_type_symbol
 _atom_site_label
 _atom_site_symmetry_multiplicity
 _atom_site_fract_x
 _atom_site_fract_y
 _atom_site_fract_z
 _atom_site_occupancy
 _atom_site_pbe_bader_spin_density
 _atom_site_pbe_cm5_charge
 _atom_site_pbe_ddec_charge
 _atom_site_pbe_ddec_spin_density
 _atom_site_pbe_ddec_sum_bond_order
 _atom_site_pbe_magmom
Ag  Ag0  1  0.46648052  0.02348316  0.85117175  1  0  0.428667  0.36172  0  1.951226  0
Ag  Ag1  1  0.53351968  0.47651305  0.35117270  1  0  0.428619  0.361683  0  1.951253  0
Ag  Ag2  1  0.53351800  0.97651377  0.14882841  1  0  0.428651  0.361718  0  1.951195  0
Ag  Ag3  1  0.46648074  0.52348623  0.64882589  1  0  0.428611  0.361644  0  1.951225  0
H  H4  1  0.16191262  0.07257734  0.15256110  1  0  0.108316  0.144766  0  1.03822  0
H  H5  1  0.83808714  0.42742150  0.65256825  1  0  0.108344  0.144823  0  1.038337  0
H  H6  1  0.83808931  0.92742661  0.84743828  1  0  0.108342  0.144751  0  1.03823  0
H  H7  1  0.16191403  0.57257661  0.34743980  1  0  0.108304  0.144751  0  1.038234  0
H  H8  1  0.30274449  0.23049665  0.94644875  1  0  0.093202  0.145296  0  1.044328  0
H  H9  1  0.69725462  0.26949763  0.44645582  1  0  0.09323  0.145331  0  1.044249  0
H  H10  1  0.69724722  0.76949675  0.05354432  1  0  0.093212  0.145316  0  1.044297  0
H  H11  1  0.30274278  0.73050280  0.55354828  1  0  0.093211  0.145325  0  1.04426  0
H  H12  1  0.34829931  0.32930133  0.06831641  1  0  0.097731  0.151877  0  0.991869  0
H  H13  1  0.65169734  0.17069363  0.56832330  1  0  0.097722  0.151928  0  0.991889  0
H  H14  1  0.65170185  0.67069328  0.93167508  1  0  0.09773  0.151929  0  0.991881  0
H  H15  1  0.34830081  0.82930913  0.43168238  1  0  0.097705  0.151906  0  0.991831  0
H  H16  1  0.27155060  0.41290391  0.96058803  1  0  0.093721  0.141128  0  1.012935  0
H  H17  1  0.72844998  0.08709160  0.46059610  1  0  0.093753  0.141122  0  1.012956  0
H  H18  1  0.72844603  0.58709068  0.03940267  1  0  0.093754  0.141151  0  1.01292  0
H  H19  1  0.27154780  0.91291000  0.53940722  1  0  0.093723  0.141104  0  1.013011  0
H  H20  1  0.85853878  0.99395441  0.31802195  1  0  0.100685  0.151094  0  0.997164  0
H  H21  1  0.14146315  0.50604751  0.81802726  1  0  0.1007  0.151099  0  0.997169  0
H  H22  1  0.14146579  0.00604372  0.68197821  1  0  0.100697  0.151102  0  0.997164  0
H  H23  1  0.85854143  0.49395412  0.18197526  1  0  0.100674  0.151083  0  0.997149  0
H  H24  1  0.96823670  0.88235767  0.25825430  1  0  0.096267  0.150199  0  0.999795  0
H  H25  1  0.03176657  0.61764400  0.75825861  1  0  0.096254  0.150215  0  0.999752  0
H  H26  1  0.03176977  0.11764280  0.74174350  1  0  0.096259  0.150214  0  0.999806  0
H  H27  1  0.96823801  0.38235763  0.24174391  1  0  0.096266  0.150211  0  0.99976  0
H  H28  1  0.75756711  0.83724476  0.23344107  1  0  0.097558  0.160105  0  1.038673  0
H  H29  1  0.24243549  0.66275446  0.73344499  1  0  0.097545  0.160072  0  1.038697  0
H  H30  1  0.24243823  0.16275571  0.76655752  1  0  0.097528  0.160073  0  1.038702  0
H  H31  1  0.75756909  0.33724717  0.26655832  1  0  0.097569  0.160099  0  1.038659  0
H  H32  1  0.85006316  0.46719160  0.90119544  1  0  0.104153  0.135498  0  1.018489  0
H  H33  1  0.14992667  0.03281177  0.40120082  1  0  0.104138  0.13547  0  1.018489  0
H  H34  1  0.14993272  0.53281116  0.09880393  1  0  0.104146  0.135484  0  1.01849  0
H  H35  1  0.85007754  0.96719219  0.59879619  1  0  0.104162  0.135524  0  1.018426  0
H  H36  1  0.82146659  0.29602157  0.82318709  1  0  0.112113  0.15099  0  0.99398  0
H  H37  1  0.17853409  0.20397218  0.32318736  1  0  0.112107  0.15099  0  0.993969  0
H  H38  1  0.17853383  0.70397770  0.17681465  1  0  0.112103  0.150973  0  0.993972  0
H  H39  1  0.82147239  0.79603179  0.67681043  1  0  0.112128  0.151007  0  0.99395  0
C  C40  1  0.83050437  0.19171939  0.03247840  1  0  0.239882  0.32589  0  4.084001  0
C  C41  1  0.16949392  0.30827660  0.53248212  1  0  0.239789  0.325792  0  4.083906  0
C  C42  1  0.16949302  0.80827754  0.96752098  1  0  0.239786  0.325696  0  4.084156  0
C  C43  1  0.83050612  0.69172501  0.46751962  1  0  0.23982  0.325865  0  4.084163  0
C  C44  1  0.09766018  0.22354727  0.04002991  1  0  0.13877  0.37528  0  3.960693  0
C  C45  1  0.90233771  0.27644758  0.54003570  1  0  0.138698  0.375206  0  3.960687  0
C  C46  1  0.90233948  0.77645317  0.95996710  1  0  0.138745  0.375218  0  3.960829  0
C  C47  1  0.09766271  0.72355169  0.45996604  1  0  0.138742  0.375229  0  3.960956  0
C  C48  1  0.06648621  0.10970955  0.11895119  1  0  -0.097904  -0.312037  0  3.85273  0
C  C49  1  0.93350384  0.39028677  0.61895801  1  0  -0.097924  -0.312114  0  3.852532  0
C  C50  1  0.93350589  0.89028852  0.88104818  1  0  -0.09799  -0.312079  0  3.852688  0
C  C51  1  0.06649279  0.60971482  0.38104767  1  0  -0.097937  -0.312042  0  3.8528  0
C  C52  1  0.91027682  0.04354460  0.15553889  1  0  0.136611  0.3729  0  3.936479  0
C  C53  1  0.08972597  0.45645661  0.65554401  1  0  0.136637  0.372859  0  3.936514  0
C  C54  1  0.08972549  0.95645702  0.84445970  1  0  0.136662  0.372933  0  3.936439  0
C  C55  1  0.91027710  0.54354735  0.34445773  1  0  0.136659  0.372948  0  3.936451  0
C  C56  1  0.26379140  0.30432259  0.00207190  1  0  -0.241582  -0.460676  0  3.893044  0
C  C57  1  0.73620548  0.19567208  0.50208023  1  0  -0.241644  -0.460724  0  3.893108  0
C  C58  1  0.73620599  0.69567433  0.99792117  1  0  -0.241634  -0.460736  0  3.893091  0
C  C59  1  0.26379267  0.80433068  0.49792624  1  0  -0.241559  -0.460671  0  3.893015  0
C  C60  1  0.87115806  0.93141330  0.24559343  1  0  -0.243261  -0.471553  0  3.884461  0
C  C61  1  0.12884526  0.56858832  0.74559580  1  0  -0.24323  -0.471486  0  3.88454  0
C  C62  1  0.12884501  0.06858716  0.75440673  1  0  -0.243228  -0.471539  0  3.884624  0
C  C63  1  0.87115857  0.43141448  0.25440673  1  0  -0.243277  -0.471571  0  3.884537  0
C  C64  1  0.76083094  0.36127441  0.87120131  1  0  -0.15253  -0.325521  0  3.862102  0
C  C65  1  0.23916390  0.13871952  0.37120125  1  0  -0.152521  -0.325504  0  3.861992  0
C  C66  1  0.23916834  0.63872486  0.12879964  1  0  -0.152504  -0.325487  0  3.862102  0
C  C67  1  0.76084069  0.86128561  0.62879655  1  0  -0.152569  -0.325605  0  3.861987  0
C  C68  1  0.63535683  0.39814200  0.80296558  1  0  0.191095  0.621706  0  4.174945  0
C  C69  1  0.36463103  0.10183643  0.30296669  1  0  0.191006  0.621566  0  4.175175  0
C  C70  1  0.36464131  0.60185376  0.19703379  1  0  0.191148  0.621785  0  4.174858  0
C  C71  1  0.63537733  0.89816989  0.69703190  1  0  0.190898  0.621462  0  4.175417  0
S  S72  1  0.66577270  0.23656337  0.98054735  1  0  0.028276  0.004751  0  3.037215  0
S  S73  1  0.33422402  0.26343454  0.48054977  1  0  0.028251  0.004747  0  3.037134  0
S  S74  1  0.33422355  0.76343355  0.01945202  1  0  0.028231  0.004724  0  3.037237  0
S  S75  1  0.66577677  0.73656590  0.51944960  1  0  0.02827  0.004777  0  3.037175  0
N  N76  1  0.97743161  0.26483965  0.99656221  1  0  -0.319128  -0.383254  0  3.243183  0
N  N77  1  0.02256203  0.23515598  0.49656847  1  0  -0.319068  -0.383182  0  3.243274  0
N  N78  1  0.02256199  0.73515609  0.00343480  1  0  -0.319029  -0.383118  0  3.243359  0
N  N79  1  0.97743461  0.76484561  0.50343406  1  0  -0.319076  -0.383243  0  3.243358  0
N  N80  1  0.79016674  0.08409273  0.11045016  1  0  -0.346379  -0.352709  0  3.504992  0
N  N81  1  0.20983015  0.41590708  0.61045408  1  0  -0.346297  -0.352596  0  3.5049  0
N  N82  1  0.20983254  0.91590654  0.88954921  1  0  -0.346332  -0.352585  0  3.504932  0
N  N83  1  0.79016535  0.58409450  0.38954844  1  0  -0.346349  -0.352675  0  3.504963  0
O  O84  1  0.49395580  0.30434221  0.80128185  1  0  -0.331179  -0.55598  0  2.277668  0
O  O85  1  0.50603926  0.19563742  0.30128129  1  0  -0.331271  -0.556027  0  2.277405  0
O  O86  1  0.50604347  0.69565006  0.19871753  1  0  -0.331258  -0.556022  0  2.277544  0
O  O87  1  0.49396494  0.80436655  0.69871571  1  0  -0.33121  -0.555981  0  2.277403  0
O  O88  1  0.68605729  0.52271200  0.74782852  1  0  -0.335035  -0.531459  0  2.24868  0
O  O89  1  0.31392897  0.97726853  0.24783632  1  0  -0.334863  -0.531256  0  2.249025  0
O  O90  1  0.31393896  0.47728492  0.25217085  1  0  -0.335009  -0.531499  0  2.24873  0
O  O91  1  0.68607637  0.02273193  0.75216305  1  0  -0.334802  -0.531171  0  2.249179  0
