# generated using pymatgen
data_CdH16C25(NO3)2
_symmetry_space_group_name_H-M   'P 1'
_cell_length_a   10.13127976
_cell_length_b   10.71111504
_cell_length_c   11.61718088
_cell_angle_alpha   75.97875355
_cell_angle_beta   74.07297837
_cell_angle_gamma   61.86695994
_symmetry_Int_Tables_number   1
_chemical_formula_structural   CdH16C25(NO3)2
_chemical_formula_sum   'Cd2 H32 C50 N4 O12'
_cell_volume   1059.53179297
_cell_formula_units_Z   2
loop_
 _symmetry_equiv_pos_site_id
 _symmetry_equiv_pos_as_xyz
  1  'x, y, z'
loop_
 _atom_site_type_symbol
 _atom_site_label
 _atom_site_symmetry_multiplicity
 _atom_site_fract_x
 _atom_site_fract_y
 _atom_site_fract_z
 _atom_site_occupancy
 _atom_site_hle17_bader_spin_density
 _atom_site_hle17_ddec_charge
 _atom_site_hle17_ddec_spin_density
 _atom_site_hle17_ddec_sum_bond_order
 _atom_site_hle17_magmom
 _atom_site_hse06_10hf_bader_spin_density
 _atom_site_hse06_10hf_ddec_charge
 _atom_site_hse06_10hf_ddec_spin_density
 _atom_site_hse06_10hf_ddec_sum_bond_order
 _atom_site_hse06_10hf_magmom
 _atom_site_hse06_bader_spin_density
 _atom_site_hse06_ddec_charge
 _atom_site_hse06_ddec_spin_density
 _atom_site_hse06_ddec_sum_bond_order
 _atom_site_hse06_magmom
 _atom_site_pbe_bader_spin_density
 _atom_site_pbe_cm5_charge
 _atom_site_pbe_ddec_charge
 _atom_site_pbe_ddec_spin_density
 _atom_site_pbe_ddec_sum_bond_order
 _atom_site_pbe_magmom
Cd  Cd0  1  0.94895551  0.04753159  0.34883060  1  0  1.179139  0  1.633178  0  0  0.99626  0  2.076739  0  0  1.055772  0  2.020269  0  0  0.770638  0.949872  0  2.118581  0
Cd  Cd1  1  0.05104524  0.95246866  0.65116854  1  0  1.179143  0  1.633157  0  0  0.996259  0  2.076717  0  0  1.055771  0  2.02025  0  0  0.770637  0.94987  0  2.118567  0
H  H2  1  0.97333588  0.65723672  0.47135932  1  0  0.094741  0  0.959921  0  0  0.102579  0  1.026191  0  0  0.105444  0  1.024963  0  0  0.101117  0.100505  0  1.027145  0
H  H3  1  0.02666389  0.34276567  0.52864129  1  0  0.09475  0  0.959961  0  0  0.102601  0  1.026213  0  0  0.105467  0  1.02498  0  0  0.101126  0.100522  0  1.027177  0
H  H4  1  0.85335242  0.53483869  0.40587296  1  0  0.095544  0  0.939505  0  0  0.109158  0  0.991379  0  0  0.112276  0  0.990413  0  0  0.103553  0.106825  0  0.992271  0
H  H5  1  0.14664784  0.46516262  0.59412863  1  0  0.095521  0  0.939497  0  0  0.109135  0  0.991374  0  0  0.112253  0  0.990408  0  0  0.103541  0.106801  0  0.992268  0
H  H6  1  0.57123319  0.61794414  0.46110183  1  0  0.095169  0  0.945686  0  0  0.105872  0  1.006368  0  0  0.109643  0  1.003109  0  0  0.102564  0.103148  0  1.008742  0
H  H7  1  0.42876654  0.38205610  0.53890013  1  0  0.095244  0  0.945561  0  0  0.105878  0  1.006326  0  0  0.109649  0  1.003064  0  0  0.10258  0.103154  0  1.008704  0
H  H8  1  0.53052669  0.94442544  0.63893795  1  0  0.097811  0  0.969432  0  0  0.103996  0  1.041025  0  0  0.10749  0  1.038359  0  0  0.101739  0.101377  0  1.043315  0
H  H9  1  0.46947155  0.05557801  0.36106194  1  0  0.097905  0  0.969369  0  0  0.104018  0  1.041021  0  0  0.10752  0  1.038348  0  0  0.101749  0.101396  0  1.043311  0
H  H10  1  0.27943086  0.78366944  0.37272366  1  0  0.10637  0  0.958845  0  0  0.111551  0  1.023458  0  0  0.114759  0  1.02062  0  0  0.119984  0.108828  0  1.026183  0
H  H11  1  0.72057036  0.21632760  0.62727692  1  0  0.106332  0  0.958873  0  0  0.11156  0  1.023439  0  0  0.114767  0  1.020601  0  0  0.119983  0.108839  0  1.026169  0
H  H12  1  0.44979617  0.54517404  0.30419430  1  0  0.113473  0  0.942043  0  0  0.125091  0  0.999994  0  0  0.128192  0  0.998942  0  0  0.114463  0.123033  0  1.000353  0
H  H13  1  0.55020607  0.45482301  0.69580604  1  0  0.113445  0  0.942099  0  0  0.125063  0  1.000045  0  0  0.128163  0  0.998994  0  0  0.114442  0.123007  0  1.00041  0
H  H14  1  0.95383987  0.85298584  0.18228738  1  0  0.087734  0  0.942028  0  0  0.096475  0  1.004533  0  0  0.098193  0  1.004141  0  0  0.118814  0.095577  0  1.004037  0
H  H15  1  0.04616137  0.14701334  0.81771187  1  0  0.087745  0  0.94198  0  0  0.096461  0  1.004522  0  0  0.098176  0  1.00413  0  0  0.118806  0.095562  0  1.004026  0
H  H16  1  0.11138012  0.61827453  0.10394916  1  0  0.112582  0  0.975294  0  0  0.121196  0  1.038481  0  0  0.123575  0  1.038936  0  0  0.110382  0.119625  0  1.038088  0
H  H17  1  0.88862010  0.38172465  0.89605033  1  0  0.112584  0  0.975313  0  0  0.121199  0  1.038495  0  0  0.123578  0  1.03895  0  0  0.110376  0.119627  0  1.038101  0
H  H18  1  0.61163575  0.40704798  0.15600393  1  0  0.132681  0  0.92502  0  0  0.141441  0  0.984299  0  0  0.1457  0  0.982139  0  0  0.121253  0.138292  0  0.986261  0
H  H19  1  0.38836294  0.59295228  0.84399570  1  0  0.132647  0  0.925024  0  0  0.141406  0  0.984309  0  0  0.145663  0  0.982149  0  0  0.121239  0.138255  0  0.986277  0
H  H20  1  0.75338457  0.15766309  0.11850840  1  0  0.125896  0  0.972729  0  0  0.128503  0  1.03998  0  0  0.132319  0  1.036201  0  0  0.131911  0.126108  0  1.041795  0
H  H21  1  0.24661515  0.84233716  0.88149184  1  0  0.125897  0  0.972747  0  0  0.12849  0  1.040004  0  0  0.132305  0  1.036224  0  0  0.131905  0.126093  0  1.04182  0
H  H22  1  0.19491040  0.38433997  0.15199443  1  0  0.136478  0  0.919068  0  0  0.147555  0  0.972503  0  0  0.150837  0  0.971957  0  0  0.125824  0.144451  0  0.974231  0
H  H23  1  0.80508927  0.61565816  0.84800285  1  0  0.136464  0  0.919105  0  0  0.14752  0  0.972565  0  0  0.1508  0  0.972023  0  0  0.125828  0.144423  0  0.97428  0
H  H24  1  0.35485754  0.13505634  0.10934967  1  0  0.108554  0  0.969069  0  0  0.113761  0  1.035056  0  0  0.116003  0  1.033723  0  0  0.130586  0.112182  0  1.036043  0
H  H25  1  0.64514266  0.86494286  0.89064810  1  0  0.108591  0  0.969071  0  0  0.113799  0  1.035048  0  0  0.116047  0  1.033709  0  0  0.130602  0.11222  0  1.036035  0
H  H26  1  0.81983503  0.02407924  0.95403333  1  0  0.120163  0  0.957528  0  0  0.124923  0  1.02712  0  0  0.128569  0  1.024969  0  0  0.109626  0.122201  0  1.02902  0
H  H27  1  0.18016519  0.97591994  0.04596789  1  0  0.12017  0  0.957527  0  0  0.124934  0  1.027118  0  0  0.12858  0  1.024967  0  0  0.109634  0.122216  0  1.029014  0
H  H28  1  0.48227885  0.92854047  0.23129550  1  0  0.127409  0  0.965697  0  0  0.135846  0  1.028172  0  0  0.139961  0  1.024936  0  0  0.111891  0.132437  0  1.031013  0
H  H29  1  0.51772235  0.07145659  0.76870423  1  0  0.127424  0  0.965648  0  0  0.135854  0  1.028136  0  0  0.139969  0  1.024898  0  0  0.111899  0.132445  0  1.030984  0
H  H30  1  0.64107764  0.66884439  0.21169278  1  0  0.094251  0  0.943946  0  0  0.106688  0  0.999132  0  0  0.109388  0  0.998479  0  0  0.105081  0.104978  0  0.998976  0
H  H31  1  0.35892459  0.33115267  0.78830584  1  0  0.094261  0  0.943946  0  0  0.106703  0  0.999127  0  0  0.109403  0  0.998473  0  0  0.105093  0.104996  0  0.998974  0
H  H32  1  0.88269490  0.58900995  0.06303801  1  0  0.119114  0  0.982894  0  0  0.123465  0  1.053687  0  0  0.128158  0  1.049188  0  0  0.103476  0.119718  0  1.057636  0
H  H33  1  0.11730786  0.41098818  0.93696024  1  0  0.119137  0  0.982825  0  0  0.12349  0  1.053611  0  0  0.128183  0  1.049111  0  0  0.103482  0.119744  0  1.05756  0
C  C34  1  0.83004979  0.87850067  0.60498572  1  0  0.642167  0  3.919188  0  0  0.592455  0  4.207423  0  0  0.627184  0  4.201259  0  0  0.198075  0.568546  0  4.210387  0
C  C35  1  0.16995046  0.12150065  0.39501415  1  0  0.642252  0  3.91909  0  0  0.592539  0  4.207326  0  0  0.627269  0  4.201159  0  0  0.198131  0.568634  0  4.210284  0
C  C36  1  0.76035130  0.80637603  0.56182071  1  0  -0.061594  0  3.763849  0  0  -0.033473  0  3.993165  0  0  -0.042231  0  4.015447  0  0  -0.020715  -0.028326  0  3.979145  0
C  C37  1  0.23964744  0.19362636  0.43817930  1  0  -0.061605  0  3.763834  0  0  -0.033487  0  3.993136  0  0  -0.042245  0  4.015418  0  0  -0.02074  -0.028333  0  3.979107  0
C  C38  1  0.85054800  0.69213391  0.49425392  1  0  -0.056634  0  3.7102  0  0  -0.083455  0  3.958984  0  0  -0.081168  0  3.977831  0  0  -0.081833  -0.084302  0  3.945783  0
C  C39  1  0.14945074  0.30786847  0.50574781  1  0  -0.056613  0  3.710235  0  0  -0.083447  0  3.959019  0  0  -0.081161  0  3.977865  0  0  -0.081816  -0.084298  0  3.945825  0
C  C40  1  0.78312888  0.62420697  0.45786765  1  0  -0.085117  0  3.778767  0  0  -0.094567  0  4.031065  0  0  -0.099492  0  4.053547  0  0  -0.093294  -0.090787  0  4.014904  0
C  C41  1  0.21687139  0.37579434  0.54213394  1  0  -0.085121  0  3.778866  0  0  -0.094564  0  4.031141  0  0  -0.099487  0  4.053622  0  0  -0.093273  -0.090778  0  4.014979  0
C  C42  1  0.62556462  0.67048262  0.48795471  1  0  -0.063871  0  3.734345  0  0  -0.090109  0  3.983819  0  0  -0.088529  0  4.003822  0  0  -0.08296  -0.090457  0  3.969603  0
C  C43  1  0.37443461  0.32951870  0.51204628  1  0  -0.06394  0  3.734338  0  0  -0.090127  0  3.983826  0  0  -0.088544  0  4.003825  0  0  -0.083019  -0.090477  0  3.969616  0
C  C44  1  0.60274088  0.85298145  0.59016658  1  0  -0.069176  0  3.715966  0  0  -0.106848  0  3.965505  0  0  -0.10433  0  3.985132  0  0  -0.081272  -0.108588  0  3.953528  0
C  C45  1  0.39725838  0.14702201  0.40983306  1  0  -0.069239  0  3.715961  0  0  -0.10683  0  3.96547  0  0  -0.104322  0  3.985106  0  0  -0.081251  -0.108562  0  3.953486  0
C  C46  1  0.53418445  0.78601434  0.55407128  1  0  -0.072576  0  3.769841  0  0  -0.044877  0  4.001847  0  0  -0.054351  0  4.02609  0  0  -0.023345  -0.038454  0  3.98535  0
C  C47  1  0.46581479  0.21398698  0.44592970  1  0  -0.072611  0  3.769903  0  0  -0.044917  0  4.001873  0  0  -0.054397  0  4.026121  0  0  -0.023382  -0.038504  0  3.985386  0
C  C48  1  0.36467552  0.83818704  0.58729562  1  0  0.612678  0  3.967688  0  0  0.566222  0  4.255182  0  0  0.599617  0  4.252156  0  0  0.182666  0.543628  0  4.255807  0
C  C49  1  0.63532322  0.16181534  0.41270524  1  0  0.612648  0  3.967752  0  0  0.566209  0  4.25522  0  0  0.599607  0  4.252193  0  0  0.182736  0.543618  0  4.255844  0
C  C50  1  0.24804152  0.74473566  0.31069200  1  0  0.148396  0  3.658523  0  0  0.118585  0  3.909435  0  0  0.126116  0  3.925937  0  0  0.057186  0.113167  0  3.898866  0
C  C51  1  0.75195767  0.25526353  0.68930775  1  0  0.148338  0  3.658607  0  0  0.118471  0  3.909537  0  0  0.126001  0  3.92604  0  0  0.057133  0.113054  0  3.898979  0
C  C52  1  0.34297704  0.61188910  0.27165647  1  0  -0.153056  0  3.688358  0  0  -0.173657  0  3.935237  0  0  -0.181064  0  3.956888  0  0  -0.074942  -0.168409  0  3.920022  0
C  C53  1  0.65702265  0.38810902  0.72834425  1  0  -0.152962  0  3.688359  0  0  -0.173534  0  3.935234  0  0  -0.18094  0  3.956885  0  0  -0.074893  -0.168294  0  3.920027  0
C  C54  1  0.06541031  0.78206737  0.20573354  1  0  0.134  0  3.700382  0  0  0.103878  0  3.954759  0  0  0.11072  0  3.973541  0  0  0.051654  0.099294  0  3.941277  0
C  C55  1  0.93458942  0.21793288  0.79426670  1  0  0.134012  0  3.70038  0  0  0.1039  0  3.954757  0  0  0.110742  0  3.973538  0  0  0.051664  0.099319  0  3.941274  0
C  C56  1  0.15308695  0.65063794  0.16321673  1  0  -0.154465  0  3.687706  0  0  -0.172658  0  3.930909  0  0  -0.180231  0  3.953512  0  0  -0.078748  -0.168337  0  3.915843  0
C  C57  1  0.84691224  0.34936125  0.83678301  1  0  -0.154485  0  3.687867  0  0  -0.172669  0  3.931073  0  0  -0.180241  0  3.953678  0  0  -0.07875  -0.168343  0  3.915999  0
C  C58  1  0.29544588  0.56239286  0.19660352  1  0  0.080527  0  3.777188  0  0  0.095226  0  4.005884  0  0  0.097197  0  4.028734  0  0  0.009897  0.093971  0  3.99078  0
C  C59  1  0.70455381  0.43760526  0.80339720  1  0  0.080479  0  3.777204  0  0  0.095146  0  4.005917  0  0  0.097114  0  4.02877  0  0  0.009878  0.093901  0  3.990808  0
C  C60  1  0.38834527  0.41907488  0.15928515  1  0  0.119476  0  3.725738  0  0  0.125596  0  3.962121  0  0  0.133388  0  3.981001  0  0  0.029171  0.120711  0  3.949696  0
C  C61  1  0.61165441  0.58092324  0.84071471  1  0  0.119444  0  3.725746  0  0  0.125582  0  3.962113  0  0  0.133373  0  3.980996  0  0  0.029153  0.120694  0  3.949688  0
C  C62  1  0.54805388  0.35334058  0.14538617  1  0  -0.137496  0  3.661785  0  0  -0.160746  0  3.91989  0  0  -0.169664  0  3.938479  0  0  -0.066321  -0.15627  0  3.908694  0
C  C63  1  0.45194580  0.64665755  0.85461283  1  0  -0.137447  0  3.66178  0  0  -0.160713  0  3.919869  0  0  -0.169628  0  3.938454  0  0  -0.066327  -0.156234  0  3.908668  0
C  C64  1  0.63045785  0.21348092  0.12240787  1  0  0.116351  0  3.564705  0  0  0.074968  0  3.816394  0  0  0.085439  0  3.828879  0  0  0.071119  0.068638  0  3.807334  0
C  C65  1  0.36954340  0.78651826  0.87759223  1  0  0.116306  0  3.564742  0  0  0.074967  0  3.816385  0  0  0.085438  0  3.82887  0  0  0.071149  0.068642  0  3.807316  0
C  C66  1  0.31805667  0.34067444  0.14245779  1  0  -0.132206  0  3.660305  0  0  -0.151839  0  3.910746  0  0  -0.160834  0  3.930206  0  0  -0.061859  -0.145941  0  3.898538  0
C  C67  1  0.68194301  0.65932368  0.85754121  1  0  -0.132064  0  3.660192  0  0  -0.151679  0  3.910618  0  0  -0.160672  0  3.930079  0  0  -0.061797  -0.145787  0  3.898399  0
C  C68  1  0.40439550  0.20150871  0.11877276  1  0  0.115468  0  3.602681  0  0  0.072954  0  3.854832  0  0  0.083227  0  3.868979  0  0  0.073507  0.06604  0  3.845193  0
C  C69  1  0.59560623  0.79848941  0.88122574  1  0  0.11531  0  3.602674  0  0  0.072787  0  3.85486  0  0  0.083057  0  3.869004  0  0  0.073446  0.065878  0  3.845216  0
C  C70  1  0.64408577  0.98994112  0.09552833  1  0  0.150363  0  3.754818  0  0  0.143891  0  4.010361  0  0  0.146504  0  4.033075  0  0  0.087539  0.141625  0  3.995864  0
C  C71  1  0.35591598  0.01005699  0.90447276  1  0  0.150317  0  3.754762  0  0  0.143902  0  4.010232  0  0  0.146513  0  4.03295  0  0  0.087554  0.141645  0  3.995726  0
C  C72  1  0.77963551  0.94745512  0.01153909  1  0  -0.141229  0  3.702396  0  0  -0.172258  0  3.954309  0  0  -0.172433  0  3.971381  0  0  -0.081058  -0.173239  0  3.943842  0
C  C73  1  0.22036623  0.05254301  0.98846027  1  0  -0.141246  0  3.702376  0  0  -0.172291  0  3.954295  0  0  -0.172464  0  3.971364  0  0  -0.081072  -0.173273  0  3.943825  0
C  C74  1  0.59006863  0.89206542  0.16702463  1  0  -0.128571  0  3.688709  0  0  -0.155508  0  3.94473  0  0  -0.156462  0  3.962888  0  0  -0.081415  -0.154229  0  3.93284  0
C  C75  1  0.40993262  0.10793377  0.83297462  1  0  -0.128515  0  3.68862  0  0  -0.155466  0  3.944629  0  0  -0.156419  0  3.962787  0  0  -0.081413  -0.154188  0  3.932747  0
C  C76  1  0.67881453  0.74758065  0.15499720  1  0  -0.050014  0  3.757055  0  0  -0.060588  0  4.008277  0  0  -0.064101  0  4.03117  0  0  -0.083313  -0.058779  0  3.992282  0
C  C77  1  0.32118618  0.25241747  0.84500241  1  0  -0.050043  0  3.757122  0  0  -0.060621  0  4.008337  0  0  -0.064134  0  4.03123  0  0  -0.083321  -0.058815  0  3.992353  0
C  C78  1  0.81580305  0.70245696  0.07177698  1  0  -0.084664  0  3.714657  0  0  -0.109816  0  3.961527  0  0  -0.110364  0  3.981657  0  0  -0.082214  -0.109241  0  3.947468  0
C  C79  1  0.18419766  0.29754116  0.92822264  1  0  -0.084722  0  3.714629  0  0  -0.109862  0  3.961512  0  0  -0.110409  0  3.981643  0  0  -0.082225  -0.10928  0  3.947451  0
C  C80  1  0.86558049  0.80257751  0.99828890  1  0  -0.059282  0  3.749685  0  0  -0.032473  0  3.979339  0  0  -0.040208  0  4.0026  0  0  -0.017668  -0.026922  0  3.962963  0
C  C81  1  0.13442125  0.19742061  0.00171047  1  0  -0.059239  0  3.749664  0  0  -0.032466  0  3.979359  0  0  -0.0402  0  4.002619  0  0  -0.017675  -0.026917  0  3.962992  0
C  C82  1  0.00983268  0.75780909  0.90260264  1  0  0.634277  0  3.967051  0  0  0.584312  0  4.26883  0  0  0.617942  0  4.261359  0  0  0.191382  0.561564  0  4.272974  0
C  C83  1  0.99016856  0.24219010  0.09739660  1  0  0.634274  0  3.967086  0  0  0.58432  0  4.268864  0  0  0.617949  0  4.261392  0  0  0.191408  0.561562  0  4.273017  0
N  N84  1  0.11178355  0.82837744  0.27788673  1  0  -0.316013  0  3.24347  0  0  -0.243161  0  3.512425  0  0  -0.262268  0  3.528911  0  0  -0.317731  -0.229429  0  3.501138  0
N  N85  1  0.88821770  0.17162175  0.72211337  1  0  -0.31596  0  3.243454  0  0  -0.243084  0  3.51239  0  0  -0.26219  0  3.528877  0  0  -0.317668  -0.229349  0  3.501108  0
N  N86  1  0.55783346  0.13925495  0.11065255  1  0  -0.033735  0  3.562633  0  0  0.057313  0  3.763612  0  0  0.043862  0  3.787284  0  0  -0.190615  0.065721  0  3.747768  0
N  N87  1  0.44216676  0.86074423  0.88934694  1  0  -0.03365  0  3.562676  0  0  0.057366  0  3.763647  0  0  0.043916  0  3.787321  0  0  -0.190614  0.065769  0  3.747799  0
O  O88  1  0.96023712  0.87235284  0.54254004  1  0  -0.684773  0  2.071106  0  0  -0.602675  0  2.329631  0  0  -0.635952  0  2.318088  0  0  -0.335835  -0.577865  0  2.337844  0
O  O89  1  0.03976112  0.12765062  0.45745985  1  0  -0.684765  0  2.071083  0  0  -0.60267  0  2.329607  0  0  -0.635958  0  2.31809  0  0  -0.335819  -0.577868  0  2.337829  0
O  O90  1  0.76403793  0.93944942  0.69825221  1  0  -0.625416  0  1.930313  0  0  -0.575705  0  2.159944  0  0  -0.601812  0  2.153778  0  0  -0.318084  -0.554926  0  2.162913  0
O  O91  1  0.23596084  0.06055512  0.30174560  1  0  -0.625453  0  1.930199  0  0  -0.575739  0  2.159827  0  0  -0.601844  0  2.153661  0  0  -0.31812  -0.554958  0  2.162789  0
O  O92  1  0.28814093  0.94441865  0.64782633  1  0  -0.648254  0  1.968778  0  0  -0.585819  0  2.209806  0  0  -0.616375  0  2.204511  0  0  -0.334684  -0.563365  0  2.211985  0
O  O93  1  0.71185883  0.05558374  0.35217429  1  0  -0.648209  0  1.96881  0  0  -0.585784  0  2.209827  0  0  -0.616341  0  2.204535  0  0  -0.334665  -0.563329  0  2.212007  0
O  O94  1  0.30279743  0.77604118  0.55523492  1  0  -0.639328  0  1.928368  0  0  -0.582987  0  2.155521  0  0  -0.609837  0  2.145851  0  0  -0.335306  -0.562519  0  2.161878  0
O  O95  1  0.69720134  0.22396335  0.44476375  1  0  -0.639341  0  1.928388  0  0  -0.583012  0  2.155528  0  0  -0.609859  0  2.145857  0  0  -0.335381  -0.562546  0  2.161887  0
O  O96  1  0.07885249  0.63017680  0.88338287  1  0  -0.612516  0  1.880492  0  0  -0.571645  0  2.098178  0  0  -0.59287  0  2.088011  0  0  -0.338545  -0.556827  0  2.105661  0
O  O97  1  0.92114929  0.36982345  0.11661601  1  0  -0.612519  0  1.880463  0  0  -0.571647  0  2.098153  0  0  -0.592872  0  2.087985  0  0  -0.338558  -0.556824  0  2.105634  0
O  O98  1  0.04995902  0.85864599  0.84995050  1  0  -0.690856  0  2.053693  0  0  -0.62492  0  2.317442  0  0  -0.65292  0  2.30384  0  0  -0.353365  -0.604889  0  2.325763  0
O  O99  1  0.95004172  0.14135427  0.15004777  1  0  -0.69086  0  2.053746  0  0  -0.624926  0  2.317488  0  0  -0.652927  0  2.303884  0  0  -0.353376  -0.604894  0  2.325809  0
