# generated using pymatgen
data_CuH9(CN)7
_symmetry_space_group_name_H-M   'P 1'
_cell_length_a   5.74120064
_cell_length_b   9.80271730
_cell_length_c   10.25188780
_cell_angle_alpha   109.74504114
_cell_angle_beta   106.08469177
_cell_angle_gamma   90.13682863
_symmetry_Int_Tables_number   1
_chemical_formula_structural   CuH9(CN)7
_chemical_formula_sum   'Cu2 H18 C14 N14'
_cell_volume   518.84098655
_cell_formula_units_Z   2
loop_
 _symmetry_equiv_pos_site_id
 _symmetry_equiv_pos_as_xyz
  1  'x, y, z'
loop_
 _atom_site_type_symbol
 _atom_site_label
 _atom_site_symmetry_multiplicity
 _atom_site_fract_x
 _atom_site_fract_y
 _atom_site_fract_z
 _atom_site_occupancy
 _atom_site_hle17_ddec_charge
 _atom_site_hle17_ddec_spin_density
 _atom_site_hle17_ddec_sum_bond_order
 _atom_site_hle17_magmom
 _atom_site_hse06_10hf_ddec_charge
 _atom_site_hse06_10hf_ddec_spin_density
 _atom_site_hse06_10hf_ddec_sum_bond_order
 _atom_site_hse06_10hf_magmom
 _atom_site_hse06_ddec_charge
 _atom_site_hse06_ddec_spin_density
 _atom_site_hse06_ddec_sum_bond_order
 _atom_site_hse06_magmom
 _atom_site_pbe_cm5_charge
 _atom_site_pbe_ddec_charge
 _atom_site_pbe_ddec_spin_density
 _atom_site_pbe_ddec_sum_bond_order
 _atom_site_pbe_magmom
Cu  Cu0  1  0.21269842  0.02432215  0.93613570  1  0.759871  -0.518279  2.00349  -0.349  0.77625  -0.701569  2.416521  -0.53  0.872724  -0.817954  2.341305  -0.639  0.760252  0.725853  -0.605567  2.462344  -0.449
Cu  Cu1  1  0.78728790  0.97567999  0.06386290  1  0.759774  0.518235  2.003565  0.349  0.776267  0.701569  2.41655  0.53  0.872768  0.817945  2.341306  0.639  0.760285  0.72588  0.605544  2.46238  0.449
H  H2  1  0.96327681  0.26067629  0.55766323  1  0.109752  -0.000111  0.976578  -0.001  0.118918  -0.000197  1.039395  -0.001  0.12185  -0.000133  1.039198  0.0  0.103452  0.116834  -0.000327  1.039812  -0.001
H  H3  1  0.03672998  0.73932912  0.44233750  1  0.10976  0.000113  0.976583  0.001  0.118926  0.000196  1.0394  0.001  0.121857  0.000132  1.039204  0.0  0.103464  0.11684  0.000327  1.039814  0.001
H  H4  1  0.66033866  0.43574349  0.87904339  1  0.111076  -0.000152  0.957906  0.0  0.117477  -9.8e-05  1.024383  0.0  0.120488  -4.7e-05  1.024126  0.0  0.104863  0.115509  -0.000175  1.024276  0.0
H  H5  1  0.33967423  0.56424454  0.12095578  1  0.111064  0.000152  0.957885  0.0  0.117475  9.7e-05  1.024368  0.0  0.120485  4.7e-05  1.024112  0.0  0.104852  0.115507  0.000176  1.024263  0.0
H  H6  1  0.57827481  0.26493171  0.99878146  1  0.070982  -0.000941  0.988274  -0.001  0.075363  -0.000982  1.063949  -0.001  0.076824  -0.00079  1.063005  -0.001  0.111039  0.073965  -0.001078  1.06512  -0.002
H  H7  1  0.42171689  0.73505956  0.00121553  1  0.071041  0.00094  0.988291  0.001  0.075443  0.000981  1.06393  0.001  0.076896  0.00079  1.063016  0.001  0.111068  0.074045  0.001078  1.065105  0.002
H  H8  1  0.71737074  0.07939869  0.58049104  1  0.131912  0.000597  0.956104  0.0  0.153475  0.000546  1.014879  0.0  0.156067  0.000447  1.013867  0.0  0.097132  0.151799  0.000586  1.015499  0.0
H  H9  1  0.28261562  0.92061432  0.41950899  1  0.13178  -0.000599  0.956326  0.0  0.153371  -0.000546  1.015072  0.0  0.155963  -0.000448  1.014059  0.0  0.097105  0.151697  -0.000586  1.015687  0.0
H  H10  1  0.77927490  0.06459471  0.75545718  1  0.116125  0.000353  0.972641  0.0  0.128745  0.000277  1.050128  0.0  0.129536  0.0003  1.051077  0.0  0.090551  0.127879  0.000219  1.050046  0.0
H  H11  1  0.22071631  0.93541502  0.24454158  1  0.116009  -0.000356  0.9727  0.0  0.128677  -0.000277  1.050161  0.0  0.129468  -0.0003  1.051107  0.0  0.09056  0.127812  -0.000219  1.050079  0.0
H  H12  1  0.90377819  0.94752688  0.62430129  1  0.117458  0.000361  0.95364  0.0  0.135601  0.000223  1.023273  0.0  0.13673  0.000251  1.023414  0.0  0.093165  0.134521  0.000156  1.023693  0.0
H  H13  1  0.09619397  0.05247739  0.37569389  1  0.117478  -0.000362  0.953607  0.0  0.135591  -0.000223  1.023279  0.0  0.136719  -0.000251  1.023421  0.0  0.093141  0.134513  -0.000156  1.023702  0.0
H  H14  1  0.33926925  0.57510598  0.69655942  1  0.111498  0.000381  0.963304  0.0  0.129432  0.000239  1.032194  0.0  0.130637  0.000221  1.032888  0.0  0.090396  0.128213  0.000166  1.032386  0.0
H  H15  1  0.66075329  0.42488534  0.30344320  1  0.111526  -0.000377  0.963338  0.0  0.129474  -0.000239  1.032206  0.0  0.130685  -0.00022  1.032897  0.0  0.090452  0.128254  -0.000166  1.0324  0.0
H  H16  1  0.21863231  0.43586788  0.52379676  1  0.113116  0.000111  0.943682  0.0  0.134609  8.7e-05  1.002908  0.0  0.136318  7.6e-05  1.002204  0.0  0.092716  0.133313  8.9e-05  1.003528  0.0
H  H17  1  0.78139314  0.56412996  0.47620637  1  0.113095  -0.000108  0.943632  0.0  0.134597  -8.7e-05  1.002858  0.0  0.136308  -7.7e-05  1.002151  0.0  0.092688  0.1333  -8.9e-05  1.003479  0.0
H  H18  1  0.53720731  0.46128559  0.61586160  1  0.119375  0.000179  0.956838  0.0  0.138444  0.000117  1.023336  0.0  0.139945  0.000111  1.02291  0.0  0.09547  0.137457  8e-05  1.023585  0.0
H  H19  1  0.46282272  0.53870687  0.38414444  1  0.119344  -0.000176  0.956911  0.0  0.138417  -0.000117  1.023403  0.0  0.139916  -0.000111  1.022982  0.0  0.095488  0.137432  -7.9e-05  1.023647  0.0
C  C20  1  0.07727115  0.16740734  0.72301045  1  0.32462  0.003959  3.709566  0.004  0.337472  -0.000406  3.947441  0.0  0.348979  0.000768  3.96867  0.001  0.121431  0.330019  -0.001384  3.933438  -0.001
C  C21  1  0.92272584  0.83259371  0.27698844  1  0.324359  -0.003952  3.709664  -0.004  0.33726  0.000406  3.947494  0.0  0.348764  -0.000768  3.968728  -0.001  0.121361  0.329807  0.001384  3.933488  0.001
C  C22  1  0.10887803  0.26292993  0.65315504  1  -0.227267  -0.007909  3.65152  -0.008  -0.244913  -0.004105  3.877003  -0.005  -0.255878  -0.003834  3.89815  -0.004  -0.085788  -0.237613  -0.003934  3.86272  -0.004
C  C23  1  0.89112583  0.73706896  0.34684420  1  -0.227255  0.007894  3.651499  0.008  -0.24492  0.004106  3.876961  0.005  -0.255885  0.003833  3.898112  0.004  -0.085823  -0.237617  0.003935  3.86267  0.004
C  C24  1  0.31903868  0.36073194  0.70478119  1  0.228251  0.006456  3.723838  0.006  0.2503  0.002479  3.957663  0.003  0.258357  0.002869  3.977776  0.003  0.021877  0.244817  0.002184  3.94416  0.002
C  C25  1  0.68097192  0.63926373  0.29522099  1  0.228389  -0.00644  3.723729  -0.006  0.250445  -0.002481  3.957571  -0.003  0.2585  -0.002868  3.97769  -0.003  0.021968  0.244961  -0.002183  3.944064  -0.002
C  C26  1  0.49317153  0.36135134  0.83179795  1  -0.17762  -0.007305  3.688168  -0.007  -0.19382  -0.003487  3.928677  -0.004  -0.203884  -0.003288  3.95033  -0.004  -0.086943  -0.187491  -0.003402  3.914423  -0.004
C  C27  1  0.50683709  0.63864325  0.16820457  1  -0.177658  0.007296  3.688212  0.007  -0.193924  0.003488  3.928833  0.004  -0.203982  0.003287  3.950473  0.004  -0.087008  -0.187594  0.003403  3.91458  0.004
C  C28  1  0.45111154  0.26618679  0.89852583  1  0.131184  0.005266  3.731002  0.005  0.102016  0.000885  3.989936  0.002  0.112343  0.001991  4.00955  0.003  0.035542  0.095509  3.9e-05  3.977736  0.001
C  C29  1  0.54888399  0.73380559  0.10147306  1  0.131074  -0.005259  3.731014  -0.005  0.101898  -0.000885  3.989956  -0.002  0.112219  -0.001991  4.009566  -0.003  0.035533  0.095388  -3.9e-05  3.977763  -0.001
C  C30  1  0.85688017  0.05936694  0.66750871  1  -0.393627  -0.000265  3.729005  -0.001  -0.481957  -9.7e-05  3.97354  -0.001  -0.485732  0.000101  3.980351  -0.001  -0.247726  -0.479146  -0.00027  3.969121  -0.001
C  C31  1  0.14311232  0.94063956  0.33249119  1  -0.393339  0.000278  3.729155  0.001  -0.48171  9.9e-05  3.973658  0.001  -0.485481  -0.0001  3.980467  0.001  -0.247663  -0.478905  0.00027  3.969249  0.001
C  C32  1  0.35472714  0.46298020  0.63018278  1  -0.353536  -0.000324  3.72617  -0.001  -0.437903  8.5e-05  3.965252  0.0  -0.440973  0.00011  3.973067  0.0  -0.24024  -0.435167  7.2e-05  3.959742  0.0
C  C33  1  0.64529407  0.53701433  0.36981674  1  -0.3536  0.000308  3.72615  0.001  -0.43798  -8.4e-05  3.965217  0.0  -0.44106  -0.00011  3.97303  0.0  -0.24034  -0.435241  -7e-05  3.959702  0.0
N  N34  1  0.43632284  0.89047890  0.85582029  1  -0.536246  -0.082246  2.80614  -0.094  -0.58722  -0.046237  3.181209  -0.057  -0.637601  -0.030918  3.193692  -0.041  -0.338415  -0.561144  -0.051868  3.178503  -0.061
N  N35  1  0.56367623  0.10952331  0.14418317  1  -0.536053  0.082187  2.806415  0.094  -0.587016  0.046206  3.181483  0.057  -0.637396  0.030894  3.193974  0.041  -0.338334  -0.560949  0.051843  3.178778  0.061
N  N36  1  0.43391336  0.85097108  0.73007775  1  0.379793  0.028599  4.164057  0.042  0.432005  0.004289  4.470527  0.012  0.45226  0.007544  4.507462  0.015  0.086106  0.419402  0.001056  4.449036  0.008
N  N37  1  0.56608330  0.14902878  0.26991389  1  0.379596  -0.028618  4.163963  -0.042  0.431796  -0.004294  4.470481  -0.012  0.452046  -0.007554  4.507422  -0.015  0.086001  0.419197  -0.001064  4.448986  -0.008
N  N38  1  0.43775941  0.80878807  0.60989827  1  -0.312528  -0.120368  2.365846  -0.127  -0.323628  -0.065682  2.586768  -0.073  -0.335339  -0.057025  2.600712  -0.066  -0.150651  -0.317085  -0.067957  2.57859  -0.073
N  N39  1  0.56223479  0.19121740  0.39010547  1  -0.312552  0.120473  2.365418  0.127  -0.323666  0.065718  2.586381  0.073  -0.335385  0.057062  2.600331  0.067  -0.15069  -0.317115  0.067996  2.5782  0.073
N  N40  1  0.00360957  0.86320363  0.94908199  1  -0.559564  0.008609  2.94506  0.01  -0.593137  0.009116  3.329208  0.011  -0.646928  0.006856  3.33974  0.009  -0.363442  -0.562518  0.010234  3.323849  0.012
N  N41  1  0.99636937  0.13679746  0.05091809  1  -0.559712  -0.008598  2.945102  -0.01  -0.593294  -0.009114  3.32926  -0.011  -0.64709  -0.006852  3.339798  -0.009  -0.363488  -0.562676  -0.010229  3.323904  -0.012
N  N42  1  0.98328871  0.73158610  0.89093445  1  0.397135  -0.003502  4.130893  -0.005  0.447487  -0.000892  4.421653  -0.003  0.468928  -0.002097  4.454401  -0.004  0.098314  0.43451  0.000123  4.397969  -0.001
N  N43  1  0.01670003  0.26841934  0.10906748  1  0.397247  0.003492  4.130838  0.005  0.447598  0.000895  4.421579  0.003  0.469038  0.0021  4.454333  0.004  0.098352  0.434621  -0.000126  4.397897  0.001
N  N44  1  0.96561232  0.60552548  0.83712549  1  -0.29073  0.015264  2.333188  0.016  -0.294956  0.013998  2.54223  0.015  -0.301371  0.013245  2.553366  0.015  -0.129306  -0.288469  0.01451  2.532782  0.015
N  N45  1  0.03438500  0.39447772  0.16287216  1  -0.290708  -0.015244  2.333146  -0.016  -0.294938  -0.013997  2.542196  -0.015  -0.301336  -0.01324  2.553313  -0.015  -0.129287  -0.288456  -0.014497  2.53275  -0.015
N  N46  1  0.25024183  0.16978341  0.84470606  1  -0.370968  -0.067186  3.324792  -0.08  -0.320042  -0.056436  3.604457  -0.073  -0.354266  -0.049185  3.626553  -0.067  -0.359794  -0.300949  -0.056363  3.592371  -0.07
N  N47  1  0.74975438  0.83021326  0.15529037  1  -0.370725  0.067174  3.324571  0.08  -0.319807  0.05643  3.604219  0.073  -0.354033  0.049181  3.626317  0.067  -0.359689  -0.300717  0.05636  3.592141  0.07
