# generated using pymatgen
data_Zn3H5C15NO15
_symmetry_space_group_name_H-M   'P 1'
_cell_length_a   18.16492937
_cell_length_b   18.13653937
_cell_length_c   21.83631929
_cell_angle_alpha   89.55215251
_cell_angle_beta   92.36851166
_cell_angle_gamma   90.24787891
_symmetry_Int_Tables_number   1
_chemical_formula_structural   Zn3H5C15NO15
_chemical_formula_sum   'Zn12 H20 C60 N4 O60'
_cell_volume   7187.52949557
_cell_formula_units_Z   4
loop_
 _symmetry_equiv_pos_site_id
 _symmetry_equiv_pos_as_xyz
  1  'x, y, z'
loop_
 _atom_site_type_symbol
 _atom_site_label
 _atom_site_symmetry_multiplicity
 _atom_site_fract_x
 _atom_site_fract_y
 _atom_site_fract_z
 _atom_site_occupancy
 _atom_site_pbe_bader_charge
 _atom_site_pbe_bader_spin_density
 _atom_site_pbe_cm5_charge
 _atom_site_pbe_ddec_charge
 _atom_site_pbe_ddec_spin_density
 _atom_site_pbe_ddec_sum_bond_order
 _atom_site_pbe_magmom
Zn  Zn0  1  0.98989447  0.07652127  0.49732843  1  1.298607  0  0.724283  0.945749  0  2.109707  0
Zn  Zn1  1  0.98451576  0.92729661  0.50259388  1  1.315367  0  0.723993  0.953054  0  2.168969  0
Zn  Zn2  1  0.49227464  0.57118394  0.00460277  1  1.312474  0  0.726006  0.953331  0  2.179554  0
Zn  Zn3  1  0.49401472  0.42134808  0.00244567  1  1.29104  0  0.724177  0.945921  0  2.111793  0
Zn  Zn4  1  0.92008084  0.01690806  0.99653255  1  1.31901  0  0.743489  0.973262  0  2.105599  0
Zn  Zn5  1  0.07137480  0.02185461  0.99671530  1  1.322204  0  0.744037  0.981195  0  2.077718  0
Zn  Zn6  1  0.42087875  0.48475421  0.50008929  1  1.312236  0  0.741689  0.969425  0  2.112206  0
Zn  Zn7  1  0.57251111  0.48337886  0.50134058  1  1.319983  0  0.744155  0.980213  0  2.086401  0
Zn  Zn8  1  0.48234659  0.98528931  0.43999037  1  1.322098  0  0.741224  0.971563  0  2.112463  0
Zn  Zn9  1  0.48734414  0.98199794  0.56568082  1  1.30819  0  0.736834  0.964007  0  2.109094  0
Zn  Zn10  1  0.98909271  0.51771939  0.94026256  1  1.315722  0  0.739807  0.969876  0  2.116596  0
Zn  Zn11  1  0.99413450  0.52131205  0.06589761  1  1.309804  0  0.736525  0.9616  0  2.110455  0
H  H12  1  0.92096768  0.96726159  0.18431512  1  0.139417  0  0.127546  0.148432  0  0.964444  0
H  H13  1  0.12242549  0.09366586  0.80328109  1  0.116397  0  0.129936  0.152551  0  0.956778  0
H  H14  1  0.42244233  0.52999219  0.68833086  1  0.115589  0  0.127029  0.149666  0  0.964439  0
H  H15  1  0.63359674  0.51535951  0.30439627  1  0.149918  0  0.1307  0.152939  0  0.953667  0
H  H16  1  0.00770689  0.07417948  0.29699542  1  0.114374  0  0.11392  0.156225  0  0.99252  0
H  H17  1  0.02097719  0.98585281  0.69963594  1  0.14159  0  0.112534  0.151963  0  1.0016  0
H  H18  1  0.51279146  0.42149333  0.80192294  1  0.099486  0  0.114026  0.156305  0  0.993764  0
H  H19  1  0.52870868  0.40297388  0.20439181  1  0.104085  0  0.115576  0.1582  0  0.987567  0
H  H20  1  0.97774188  0.83369209  0.23115430  1  0.058396  0  0.108617  0.11276  0  0.982537  0
H  H21  1  0.88022094  0.85246753  0.22624972  1  0.084329  0  0.10432  0.102013  0  0.982556  0
H  H22  1  0.91806392  0.79492190  0.28648983  1  0.0798  0  0.120848  0.130045  0  0.957563  0
H  H23  1  0.14950307  0.21166195  0.75622653  1  0.061652  0  0.105712  0.103399  0  0.980821  0
H  H24  1  0.05226882  0.22387429  0.76668504  1  0.059718  0  0.108574  0.113124  0  0.980198  0
H  H25  1  0.09603154  0.26893592  0.70436847  1  0.084933  0  0.121751  0.130875  0  0.957628  0
H  H26  1  0.37394644  0.63824682  0.73235410  1  0.072428  0  0.105933  0.103894  0  0.980419  0
H  H27  1  0.47070847  0.66151346  0.73442791  1  0.047064  0  0.108599  0.111812  0  0.981892  0
H  H28  1  0.41200386  0.69634333  0.79153682  1  0.088716  0  0.122078  0.13176  0  0.95602  0
H  H29  1  0.64317838  0.63822766  0.25881019  1  0.045747  0  0.101985  0.098365  0  0.98941  0
H  H30  1  0.54537831  0.64991082  0.24456206  1  0.054539  0  0.108543  0.113252  0  0.979635  0
H  H31  1  0.60923593  0.68396356  0.19041346  1  0.082403  0  0.119724  0.129777  0  0.958415  0
C  C32  1  0.12508020  0.95728788  0.50677586  1  1.676897  0  0.224685  0.656046  0  4.233891  0
C  C33  1  0.84791239  0.97838899  0.51226268  1  1.654597  0  0.231871  0.664586  0  4.217459  0
C  C34  1  0.63200804  0.54028446  0.00876821  1  1.674997  0  0.224988  0.655394  0  4.232518  0
C  C35  1  0.35464647  0.52254202  0.01473909  1  1.667922  0  0.231843  0.665752  0  4.218721  0
C  C36  1  0.98477394  0.02167870  0.38407887  1  1.539854  0  0.213633  0.675186  0  4.133323  0
C  C37  1  0.01210691  0.04009530  0.61216560  1  1.492664  0  0.208755  0.669325  0  4.136566  0
C  C38  1  0.48964099  0.47360381  0.88843645  1  1.509368  0  0.21342  0.673826  0  4.134075  0
C  C39  1  0.51862484  0.45979672  0.11609692  1  1.532121  0  0.212613  0.676445  0  4.130425  0
C  C40  1  0.97173693  0.97695720  0.21178583  1  0.083452  0  -0.056396  -0.163887  0  3.921445  0
C  C41  1  0.06958219  0.07996181  0.78035241  1  0.067666  0  -0.055492  -0.170011  0  3.91354  0
C  C42  1  0.47274082  0.51872897  0.71600871  1  0.060116  0  -0.05818  -0.16922  0  3.922554  0
C  C43  1  0.57970448  0.50457143  0.28209037  1  0.098736  0  -0.053804  -0.164436  0  3.910641  0
C  C44  1  0.03034674  0.99670033  0.17981998  1  0.158258  0  0.08046  -0.048709  0  3.862079  0
C  C45  1  0.01749886  0.05125384  0.81546455  1  0.209946  0  0.081596  -0.043018  0  3.85957  0
C  C46  1  0.53098043  0.49868548  0.68409991  1  0.204126  0  0.081115  -0.046343  0  3.859578  0
C  C47  1  0.52387058  0.48864066  0.31833115  1  0.061828  0  0.082605  -0.042701  0  3.864073  0
C  C48  1  0.96914630  0.96681845  0.27849389  1  0.499039  0  0.102597  0.299407  0  4.045487  0
C  C49  1  0.05829775  0.09402771  0.71417386  1  0.478131  0  0.10339  0.299058  0  4.051087  0
C  C50  1  0.47014697  0.52745721  0.78258661  1  0.484728  0  0.102508  0.300325  0  4.051121  0
C  C51  1  0.56973001  0.51125527  0.21512531  1  0.46034  0  0.099965  0.296048  0  4.056073  0
C  C52  1  0.98939328  0.02262329  0.31719841  1  0.03638  0  -0.117859  -0.380477  0  3.843197  0
C  C53  1  0.03022034  0.03903760  0.67793639  1  0.045369  0  -0.118929  -0.377011  0  3.857391  0
C  C54  1  0.49316967  0.47233040  0.82156713  1  0.069235  0  -0.117471  -0.379219  0  3.842336  0
C  C55  1  0.53886377  0.45536903  0.18162382  1  0.093092  0  -0.11733  -0.379686  0  3.856008  0
C  C56  1  0.20379383  0.95384651  0.51826757  1  -0.531184  0  -0.002847  -0.076156  0  3.878561  0
C  C57  1  0.76949621  0.97861348  0.52108632  1  0.244255  0  -0.000544  -0.075662  0  3.875132  0
C  C58  1  0.71073794  0.54425641  0.01968950  1  0.108443  0  -0.001105  -0.072248  0  3.881154  0
C  C59  1  0.27607490  0.52349849  0.02232285  1  0.283489  0  -7e-06  -0.075955  0  3.87719  0
C  C60  1  0.27016460  0.95965224  0.52684606  1  0.332909  0  -0.016635  -0.113861  0  3.904581  0
C  C61  1  0.70314436  0.98094502  0.52643591  1  -0.375767  0  -0.013337  -0.110309  0  3.896774  0
C  C62  1  0.77719295  0.54007216  0.02797761  1  -0.247897  0  -0.017829  -0.11658  0  3.908493  0
C  C63  1  0.20959277  0.52157900  0.02691429  1  -0.395815  0  -0.012594  -0.108199  0  3.8997  0
C  C64  1  0.97083232  0.88127292  0.98272229  1  1.676365  0  0.233547  0.673095  0  4.204815  0
C  C65  1  0.96243852  0.15652139  0.99736303  1  1.65549  0  0.23342  0.670448  0  4.208457  0
C  C66  1  0.46635959  0.34654514  0.49654903  1  1.66353  0  0.235171  0.672575  0  4.206045  0
C  C67  1  0.46661324  0.62210780  0.48967538  1  1.663276  0  0.230798  0.669376  0  4.212666  0
C  C68  1  0.02668715  0.00692817  0.11187783  1  1.593194  0  0.228145  0.603436  0  4.169371  0
C  C69  1  0.02379880  0.03661561  0.88253007  1  1.587808  0  0.222415  0.594736  0  4.179669  0
C  C70  1  0.52726319  0.49059727  0.61614502  1  1.615886  0  0.227663  0.602668  0  4.170752  0
C  C71  1  0.52726272  0.48416359  0.38629821  1  1.635882  0  0.222716  0.5961  0  4.17848  0
C  C72  1  0.48080635  0.84581807  0.47341357  1  1.689315  0  0.230389  0.662723  0  4.221132  0
C  C73  1  0.47511355  0.12243190  0.48150259  1  1.698739  0  0.235933  0.670015  0  4.210328  0
C  C74  1  0.97819893  0.38064974  0.98262093  1  1.696158  0  0.234471  0.668142  0  4.212208  0
C  C75  1  0.98784626  0.65746249  0.97199185  1  1.680977  0  0.231592  0.664535  0  4.217298  0
C  C76  1  0.34850950  0.97041153  0.52862998  1  1.658705  0  0.230075  0.670854  0  4.209102  0
C  C77  1  0.62404680  0.98344876  0.52641226  1  1.639946  0  0.234378  0.676679  0  4.203068  0
C  C78  1  0.85560412  0.53128286  0.02959925  1  1.614949  0  0.229683  0.67048  0  4.209517  0
C  C79  1  0.13053938  0.51911792  0.02660385  1  1.621044  0  0.233548  0.672922  0  4.207388  0
C  C80  1  0.97267518  0.80286101  0.97395662  1  -0.329012  0  -0.007562  -0.09789  0  3.890461  0
C  C81  1  0.96139873  0.23543052  0.99052828  1  -0.373622  0  -0.006367  -0.095334  0  3.88602  0
C  C82  1  0.46497713  0.26796023  0.48881493  1  0.104745  0  -0.004622  -0.093501  0  3.884595  0
C  C83  1  0.46687548  0.70039834  0.47942191  1  0.119038  0  -0.010457  -0.101444  0  3.897241  0
C  C84  1  0.46869546  0.20152205  0.48273700  1  -0.283257  0  0.001488  -0.079198  0  3.873384  0
C  C85  1  0.47290383  0.76677201  0.47293330  1  -0.313027  0  -0.002417  -0.081484  0  3.880412  0
C  C86  1  0.97944276  0.73643671  0.96972334  1  0.145081  0  -0.001684  -0.081321  0  3.877195  0
C  C87  1  0.96783870  0.30184168  0.98444894  1  0.195876  0  -0.001437  -0.082614  0  3.876163  0
C  C88  1  0.92840333  0.84304701  0.25749620  1  0.364728  0  -0.125407  -0.179223  0  3.89003  0
C  C89  1  0.09517210  0.21908215  0.73289152  1  0.375858  0  -0.124369  -0.179865  0  3.884815  0
C  C90  1  0.42297129  0.64932253  0.76219597  1  0.369168  0  -0.124499  -0.178326  0  3.889143  0
C  C91  1  0.59827630  0.63997836  0.22343761  1  0.387616  0  -0.126925  -0.176597  0  3.882459  0
N  N92  1  0.10399204  0.00675185  0.20996606  1  0.41079  0  0.060511  0.532579  0  4.24974  0
N  N93  1  0.94201110  0.03587497  0.78978100  1  0.438532  0  0.057163  0.526279  0  4.259358  0
N  N94  1  0.60436533  0.48603214  0.71396152  1  0.411396  0  0.060101  0.531388  0  4.252073  0
N  N95  1  0.44778384  0.47927476  0.29196094  1  0.467722  0  0.058028  0.527951  0  4.258623  0
O  O96  1  0.09958659  0.02114299  0.49672655  1  -1.13635  0  -0.293164  -0.544975  0  2.219517  0
O  O97  1  0.87862308  0.91464576  0.51173301  1  -1.106899  0  -0.307531  -0.514669  0  2.196164  0
O  O98  1  0.87852253  0.04060869  0.50530099  1  -1.139764  0  -0.297731  -0.547138  0  2.225314  0
O  O99  1  0.08793350  0.89663844  0.50804812  1  -1.112588  0  -0.312585  -0.520516  0  2.176971  0
O  O100  1  0.59575940  0.60128994  0.00811352  1  -1.110261  0  -0.313181  -0.520669  0  2.177782  0
O  O101  1  0.38382614  0.45979287  0.00917573  1  -1.141628  0  -0.297687  -0.548086  0  2.230366  0
O  O102  1  0.38696870  0.58574526  0.01380349  1  -1.111333  0  -0.307418  -0.514427  0  2.196708  0
O  O103  1  0.60566602  0.47631909  0.00104657  1  -1.136202  0  -0.293487  -0.545092  0  2.208484  0
O  O104  1  0.98943192  0.08589513  0.40998106  1  -1.119286  0  -0.324746  -0.533998  0  2.211162  0
O  O105  1  0.99636195  0.97743174  0.58860513  1  -1.168018  0  -0.320088  -0.583054  0  2.281193  0
O  O106  1  0.01109860  0.10154872  0.58149511  1  -1.095235  0  -0.318413  -0.52528  0  2.220224  0
O  O107  1  0.97753987  0.96097482  0.41284302  1  -1.162457  0  -0.312923  -0.573344  0  2.323153  0
O  O108  1  0.48359213  0.53453225  0.91619189  1  -1.158299  0  -0.312452  -0.573772  0  2.3316  0
O  O109  1  0.51314910  0.39750967  0.08718774  1  -1.117309  0  -0.325073  -0.53102  0  2.187774  0
O  O110  1  0.50525324  0.52212400  0.09129110  1  -1.166704  0  -0.312539  -0.58001  0  2.331536  0
O  O111  1  0.49403827  0.40963411  0.91556806  1  -1.109089  0  -0.325206  -0.533148  0  2.20822  0
O  O112  1  0.90708549  0.91145145  0.98617817  1  -1.106466  0  -0.304716  -0.51259  0  2.192143  0
O  O113  1  0.02592335  0.12755868  0.00232175  1  -1.143649  0  -0.300194  -0.557946  0  2.259498  0
O  O114  1  0.03292134  0.91367982  0.98726677  1  -1.143851  0  -0.300667  -0.557077  0  2.253738  0
O  O115  1  0.90033589  0.12202678  0.99753207  1  -1.101353  0  -0.303436  -0.509726  0  2.185529  0
O  O116  1  0.40384499  0.37959176  0.49817278  1  -1.102547  0  -0.303714  -0.509708  0  2.194571  0
O  O117  1  0.52924318  0.59164736  0.49612757  1  -1.144514  0  -0.301347  -0.560556  0  2.251908  0
O  O118  1  0.52959088  0.37651238  0.50121837  1  -1.145929  0  -0.298781  -0.554272  0  2.255222  0
O  O119  1  0.40348081  0.58966281  0.49190510  1  -1.097023  0  -0.306158  -0.512305  0  2.18924  0
O  O120  1  0.96288157  0.00731323  0.08616113  1  -1.168783  0  -0.305599  -0.56064  0  2.322493  0
O  O121  1  0.08829949  0.03628953  0.90917315  1  -1.120749  0  -0.307255  -0.508988  0  2.20287  0
O  O122  1  0.46358396  0.48969116  0.59026867  1  -1.16622  0  -0.305361  -0.560405  0  2.319895  0
O  O123  1  0.59125108  0.48466477  0.41392909  1  -1.125181  0  -0.308153  -0.510434  0  2.210851  0
O  O124  1  0.08818080  0.01298187  0.08527705  1  -1.107087  0  -0.30231  -0.50297  0  2.234429  0
O  O125  1  0.96345188  0.02722723  0.90852119  1  -1.170179  0  -0.301756  -0.559277  0  2.347275  0
O  O126  1  0.58898909  0.48691997  0.58965645  1  -1.111589  0  -0.302543  -0.502364  0  2.240368  0
O  O127  1  0.46600120  0.48187704  0.41171935  1  -1.151417  0  -0.300186  -0.556966  0  2.337105  0
O  O128  1  0.48009262  0.88025448  0.42164059  1  -1.099934  0  -0.304347  -0.510433  0  2.183155  0
O  O129  1  0.48048623  0.09075838  0.53346725  1  -1.143354  0  -0.297171  -0.551929  0  2.25443  0
O  O130  1  0.48772638  0.87424516  0.52614832  1  -1.145408  0  -0.296561  -0.554167  0  2.252413  0
O  O131  1  0.47525969  0.09148961  0.42872084  1  -1.101916  0  -0.300881  -0.508014  0  2.191368  0
O  O132  1  0.97957261  0.41167627  0.92945647  1  -1.100515  0  -0.304439  -0.513015  0  2.19018  0
O  O133  1  0.99510110  0.62946539  0.02522697  1  -1.139344  0  -0.298124  -0.556962  0  2.248209  0
O  O134  1  0.98557109  0.41205481  0.03415605  1  -1.146605  0  -0.296219  -0.549607  0  2.248539  0
O  O135  1  0.98705844  0.62262241  0.92084466  1  -1.104036  0  -0.303606  -0.50875  0  2.183019  0
O  O136  1  0.37724789  0.97806517  0.47694200  1  -1.144324  0  -0.299961  -0.558821  0  2.264533  0
O  O137  1  0.59341968  0.98192141  0.57860128  1  -1.097339  0  -0.304779  -0.512157  0  2.194894  0
O  O138  1  0.88431338  0.52452786  0.97795040  1  -1.145281  0  -0.298739  -0.557374  0  2.266098  0
O  O139  1  0.09989196  0.52085370  0.07875415  1  -1.102205  0  -0.303593  -0.508536  0  2.197883  0
O  O140  1  0.38339341  0.97186840  0.58132515  1  -1.093315  0  -0.310284  -0.519321  0  2.184386  0
O  O141  1  0.59093466  0.98684697  0.47406436  1  -1.149412  0  -0.302671  -0.562606  0  2.262984  0
O  O142  1  0.89066185  0.53048078  0.08224750  1  -1.101554  0  -0.310876  -0.518594  0  2.185278  0
O  O143  1  0.09750794  0.51546054  0.97427334  1  -1.151178  0  -0.302161  -0.560892  0  2.264656  0
O  O144  1  0.13866735  0.95039741  0.22423127  1  -0.414355  0  -0.119496  -0.30846  0  1.839968  0
O  O145  1  0.12468175  0.07112477  0.21748712  1  -0.416456  0  -0.116617  -0.305832  0  1.846488  0
O  O146  1  0.92637468  0.97015320  0.78204803  1  -0.428207  0  -0.117957  -0.305112  0  1.860394  0
O  O147  1  0.90120626  0.08910765  0.77985469  1  -0.42048  0  -0.116126  -0.302043  0  1.853158  0
O  O148  1  0.62287880  0.42083841  0.72034973  1  -0.419513  0  -0.117612  -0.307149  0  1.845852  0
O  O149  1  0.64100946  0.54085477  0.72896308  1  -0.409762  0  -0.117105  -0.305075  0  1.842848  0
O  O150  1  0.42463465  0.41532512  0.28830940  1  -0.441869  0  -0.115975  -0.303664  0  1.859381  0
O  O151  1  0.41390066  0.53592309  0.27726857  1  -0.421372  0  -0.118187  -0.307136  0  1.854139  0
O  O152  1  0.93933714  0.90349950  0.29934851  1  -1.05077  0  -0.165576  -0.123086  0  2.544144  0
O  O153  1  0.07890443  0.15967679  0.69096836  1  -1.046719  0  -0.163746  -0.122676  0  2.539554  0
O  O154  1  0.43788254  0.58865964  0.80370287  1  -1.03883  0  -0.165762  -0.12412  0  2.551994  0
O  O155  1  0.59513892  0.57313258  0.18802598  1  -1.035492  0  -0.17037  -0.133497  0  2.537162  0
