# generated using pymatgen
data_ZnH34C44N2O9
_symmetry_space_group_name_H-M   'P 1'
_cell_length_a   13.75880836
_cell_length_b   15.22405370
_cell_length_c   28.04614176
_cell_angle_alpha   89.83437776
_cell_angle_beta   90.14852800
_cell_angle_gamma   90.04324674
_symmetry_Int_Tables_number   1
_chemical_formula_structural   ZnH34C44N2O9
_chemical_formula_sum   'Zn2 H68 C88 N4 O18'
_cell_volume   5874.63459913
_cell_formula_units_Z   2
loop_
 _symmetry_equiv_pos_site_id
 _symmetry_equiv_pos_as_xyz
  1  'x, y, z'
loop_
 _atom_site_type_symbol
 _atom_site_label
 _atom_site_symmetry_multiplicity
 _atom_site_fract_x
 _atom_site_fract_y
 _atom_site_fract_z
 _atom_site_occupancy
 _atom_site_pbe_bader_charge
 _atom_site_pbe_bader_spin_density
 _atom_site_pbe_cm5_charge
 _atom_site_pbe_ddec_charge
 _atom_site_pbe_ddec_spin_density
 _atom_site_pbe_ddec_sum_bond_order
 _atom_site_pbe_magmom
Zn  Zn0  1  0.40234127  0.50186552  0.49891462  1  1.269562  0  0.666174  0.811549  0  2.453434  0
Zn  Zn1  1  0.60274038  0.49963092  0.50044126  1  1.269674  0  0.666151  0.809071  0  2.462084  0
H  H2  1  0.34799036  0.52292920  0.65067999  1  0.087102  0  0.104846  0.106818  0  1.010416  0
H  H3  1  0.35172108  0.46808528  0.34711900  1  0.071863  0  0.104897  0.107754  0  1.009232  0
H  H4  1  0.34601282  0.52038632  0.74042147  1  0.081691  0  0.104047  0.106636  0  1.00138  0
H  H5  1  0.35349583  0.46759266  0.25734307  1  0.049614  0  0.104317  0.106809  0  0.999967  0
H  H6  1  0.43861460  0.71483445  0.87674233  1  0.129165  0  0.121802  0.142278  0  0.975778  0
H  H7  1  0.46466262  0.27699897  0.12320451  1  0.135631  0  0.121948  0.142679  0  0.975109  0
H  H8  1  0.65690264  0.52444181  0.34897914  1  0.096379  0  0.106168  0.110143  0  0.997716  0
H  H9  1  0.65616333  0.48288031  0.65224282  1  0.132756  0  0.105977  0.109944  0  0.999885  0
H  H10  1  0.65951549  0.52418045  0.25926373  1  0.07504  0  0.108823  0.115868  0  0.981909  0
H  H11  1  0.65537440  0.48140593  0.74191768  1  0.07057  0  0.108325  0.115807  0  0.982045  0
H  H12  1  0.51818271  0.71557278  0.12093127  1  0.104295  0  0.114594  0.120892  0  0.98148  0
H  H13  1  0.53403715  0.28226369  0.87846650  1  0.119894  0  0.115061  0.121175  0  0.980592  0
H  H14  1  0.49377370  0.71830568  0.03310954  1  0.117426  0  0.109538  0.115126  0  1.028246  0
H  H15  1  0.51340156  0.27770185  0.96642225  1  0.125082  0  0.10964  0.115064  0  1.027562  0
H  H16  1  0.63464178  0.22261344  0.54331512  1  0.067752  0  0.102325  0.106018  0  1.014333  0
H  H17  1  0.36821031  0.77869974  0.46125267  1  0.066973  0  0.103592  0.11163  0  1.006346  0
H  H18  1  0.36065138  0.22387165  0.46985244  1  0.085144  0  0.104897  0.112524  0  0.996988  0
H  H19  1  0.63941166  0.77665928  0.53691945  1  0.095703  0  0.103556  0.111371  0  1.005131  0
H  H20  1  0.28387830  0.08294014  0.44447912  1  0.038872  0  0.100633  0.101683  0  0.99588  0
H  H21  1  0.71250904  0.91778892  0.56583341  1  0.055933  0  0.101027  0.101085  0  0.996347  0
H  H22  1  0.28726963  0.92020542  0.44094354  1  0.093053  0  0.100959  0.103105  0  0.994926  0
H  H23  1  0.70927492  0.08033672  0.56913510  1  0.064818  0  0.09942  0.097801  0  1.009238  0
H  H24  1  0.25215516  0.39771721  0.54631501  1  0.141379  0  0.128569  0.109556  0  0.997691  0
H  H25  1  0.75230910  0.60353425  0.45107260  1  0.157646  0  0.128027  0.108076  0  0.994078  0
H  H26  1  0.25050823  0.60798491  0.45210206  1  0.14895  0  0.127735  0.107013  0  0.998104  0
H  H27  1  0.75442496  0.39560181  0.54679906  1  0.118378  0  0.128326  0.107755  0  0.993922  0
H  H28  1  0.12975536  0.73065330  0.34767010  1  0.045756  0  0.109119  0.080788  0  0.952075  0
H  H29  1  0.02122221  0.66671957  0.35202227  1  0.06165  0  0.099927  0.06545  0  1.000091  0
H  H30  1  0.23081176  0.59604332  0.35783350  1  0.024553  0  0.095758  0.092281  0  0.979448  0
H  H31  1  0.12510586  0.53134224  0.36540018  1  0.015277  0  0.089935  0.082154  0  0.982085  0
H  H32  1  0.07134663  0.56770651  0.28142590  1  0.018991  0  0.085617  0.10887  0  1.003865  0
H  H33  1  0.18777183  0.51767813  0.28199770  1  0.030646  0  0.08841  0.116613  0  1.010252  0
H  H34  1  0.17754548  0.63267044  0.27335965  1  0.048496  0  0.087541  0.112088  0  1.000463  0
H  H35  1  0.86827269  0.18364331  0.58717596  1  0.046225  0  0.107758  0.079193  0  0.958977  0
H  H36  1  0.98563985  0.20374403  0.56227097  1  0.077242  0  0.100165  0.065997  0  0.996537  0
H  H37  1  0.78928794  0.23228878  0.51137731  1  0.03929  0  0.093567  0.089914  0  0.995121  0
H  H38  1  0.90328632  0.26174280  0.48748035  1  0.023504  0  0.090091  0.083142  0  0.983726  0
H  H39  1  0.95739164  0.10393065  0.48940882  1  0.012104  0  0.08445  0.107587  0  1.005061  0
H  H40  1  0.84876668  0.11649273  0.45563050  1  0.047686  0  0.092307  0.124223  0  0.99293  0
H  H41  1  0.84346570  0.07221939  0.51386268  1  0.022785  0  0.082687  0.105541  0  1.035173  0
H  H42  1  0.13066238  0.26418895  0.64726492  1  0.033404  0  0.111122  0.083796  0  0.950006  0
H  H43  1  0.02067045  0.32608037  0.64298151  1  0.056054  0  0.099694  0.064465  0  1.002229  0
H  H44  1  0.22863364  0.40104029  0.64274209  1  0.045486  0  0.096272  0.092712  0  0.98022  0
H  H45  1  0.12232097  0.46454566  0.63418852  1  0.035088  0  0.090297  0.082218  0  0.981554  0
H  H46  1  0.06275172  0.42148131  0.71615562  1  0.024332  0  0.086179  0.109894  0  1.003351  0
H  H47  1  0.17795155  0.47360546  0.71910990  1  0.034313  0  0.088785  0.116648  0  1.009574  0
H  H48  1  0.16960790  0.35790844  0.72524306  1  0.037675  0  0.087537  0.112638  0  1.000162  0
H  H49  1  0.95883157  0.80458315  0.42894015  1  0.076922  0  0.097909  0.062868  0  0.977639  0
H  H50  1  0.87401104  0.76509377  0.47226633  1  0.029338  0  0.098642  0.059911  0  0.974782  0
H  H51  1  0.82162344  0.81802505  0.36968602  1  0.051426  0  0.094311  0.088023  0  0.965377  0
H  H52  1  0.73924812  0.77870396  0.41312598  1  0.021487  0  0.097734  0.094925  0  0.967623  0
H  H53  1  0.77540369  0.91028266  0.46523622  1  0.027166  0  0.082825  0.108379  0  1.031139  0
H  H54  1  0.73276868  0.94350201  0.40847631  1  0.046227  0  0.093257  0.124917  0  0.988846  0
H  H55  1  0.85872405  0.95019699  0.42193943  1  0.021348  0  0.083095  0.104862  0  1.013923  0
H  H56  1  0.32808904  0.79831269  0.01109884  1  0.064668  0  0.108527  0.079768  0  0.951379  0
H  H57  1  0.31214406  0.68220871  0.01011939  1  0.03885  0  0.095827  0.054105  0  1.00533  0
H  H58  1  0.25724661  0.81191758  0.93020244  1  0.027361  0  0.095221  0.090366  0  0.965681  0
H  H59  1  0.25230046  0.69653532  0.92420286  1  0.001602  0  0.092752  0.087367  0  0.98079  0
H  H60  1  0.13129117  0.68599060  0.99103017  1  0.020219  0  0.086323  0.11001  0  1.003944  0
H  H61  1  0.08769373  0.75712766  0.94555306  1  0.037014  0  0.092091  0.121504  0  0.994492  0
H  H62  1  0.13590779  0.80156180  0.99903952  1  0.022659  0  0.086613  0.11028  0  1.002249  0
H  H63  1  0.35659417  0.18566300  0.98923605  1  0.050381  0  0.108894  0.080828  0  0.950422  0
H  H64  1  0.33016901  0.30013865  0.99058963  1  0.048447  0  0.096013  0.054444  0  1.005421  0
H  H65  1  0.29001724  0.16647987  0.07061296  1  0.029525  0  0.094847  0.089932  0  0.966746  0
H  H66  1  0.27358939  0.28099116  0.07651056  1  0.008866  0  0.092092  0.086405  0  0.980007  0
H  H67  1  0.15031636  0.28081955  0.01006715  1  -0.002388  0  0.086337  0.110007  0  1.003342  0
H  H68  1  0.11530514  0.20662013  0.05581265  1  0.049867  0  0.092227  0.121041  0  0.995068  0
H  H69  1  0.16661021  0.16610836  0.00223149  1  0.021338  0  0.086353  0.109517  0  1.003028  0
C  C70  1  0.50518210  0.67138556  0.49731966  1  1.515168  0  0.212849  0.591812  0  4.172841  0
C  C71  1  0.50016075  0.32962106  0.50420600  1  1.602315  0  0.215205  0.59696  0  4.169735  0
C  C72  1  0.50342744  0.50322501  0.59304222  1  1.555948  0  0.212751  0.587591  0  4.181502  0
C  C73  1  0.50229660  0.49701996  0.40643349  1  1.581203  0  0.212213  0.58726  0  4.182672  0
C  C74  1  0.47917671  0.58060719  0.81989875  1  1.338017  0  0.238949  0.432107  0  4.104833  0
C  C75  1  0.49435525  0.41408015  0.17975677  1  1.345427  0  0.239114  0.437919  0  4.1054  0
C  C76  1  0.51341926  0.41904122  0.82058502  1  1.335039  0  0.2383  0.43092  0  4.108556  0
C  C77  1  0.51248844  0.57779429  0.17890436  1  1.309881  0  0.238939  0.43835  0  4.107197  0
C  C78  1  0.58834206  0.49026571  0.72170377  1  0.017295  0  -0.08499  -0.154418  0  3.984023  0
C  C79  1  0.59247635  0.51191117  0.27877796  1  0.043694  0  -0.084699  -0.15213  0  3.979169  0
C  C80  1  0.58883251  0.49102701  0.67207444  1  -0.0716  0  -0.07862  -0.073731  0  3.968511  0
C  C81  1  0.59098922  0.51222358  0.32842900  1  -0.100933  0  -0.077931  -0.072993  0  3.964001  0
C  C82  1  0.41453655  0.51329571  0.67114529  1  -0.109664  0  -0.080281  -0.077486  0  3.975094  0
C  C83  1  0.41838527  0.48061844  0.32736774  1  0.057682  0  -0.080604  -0.078851  0  3.976747  0
C  C84  1  0.41352502  0.51193229  0.72072767  1  0.07762  0  -0.086751  -0.155735  0  3.987622  0
C  C85  1  0.41943286  0.48039622  0.27780185  1  -0.059752  0  -0.087748  -0.156657  0  3.988862  0
C  C86  1  0.50047968  0.50056106  0.74569565  1  0.215284  0  0.08999  0.196935  0  4.013991  0
C  C87  1  0.50648029  0.49611693  0.25384362  1  0.297096  0  0.089611  0.199605  0  4.016876  0
C  C88  1  0.48380701  0.49809650  0.89812290  1  0.032523  0  -0.002345  0.023042  0  4.017495  0
C  C89  1  0.48844220  0.49647802  0.10154793  1  -0.01127  0  -0.002544  0.023939  0  4.01694  0
C  C90  1  0.47221456  0.57771527  0.87252341  1  0.000677  0  -0.012944  -0.055793  0  4.029716  0
C  C91  1  0.48552489  0.41625181  0.12718032  1  0.03393  0  -0.013317  -0.05818  0  4.031858  0
C  C92  1  0.45059473  0.65426120  0.89670389  1  0.010393  0  -0.075536  -0.178832  0  3.95916  0
C  C93  1  0.47010445  0.33824535  0.10316527  1  -0.000888  0  -0.075696  -0.178269  0  3.958399  0
C  C94  1  0.50426029  0.41965239  0.87312095  1  -0.125247  0  -0.014559  -0.072148  0  4.014862  0
C  C95  1  0.50217075  0.57630915  0.12641467  1  -0.052299  0  -0.014912  -0.073331  0  4.013688  0
C  C96  1  0.50213442  0.50258275  0.64652520  1  0.065754  0  -0.015111  -0.02984  0  3.957218  0
C  C97  1  0.50410158  0.49670628  0.35296325  1  0.023529  0  -0.014186  -0.028956  0  3.956718  0
C  C98  1  0.47662847  0.57849728  0.02581932  1  -0.014341  0  0.000627  0.051097  0  3.968035  0
C  C99  1  0.48311773  0.41560820  0.97390950  1  -0.02805  0  0.000829  0.050906  0  3.968693  0
C  C100  1  0.47222121  0.41406226  0.02575979  1  -0.049757  0  -0.005048  -0.071209  0  3.942616  0
C  C101  1  0.46330387  0.57907499  0.97406917  1  -0.062155  0  -0.005606  -0.070612  0  3.942708  0
C  C102  1  0.47869953  0.49603807  0.05072445  1  0.004376  0  0.002654  0.01261  0  3.92091  0
C  C103  1  0.47624473  0.49786080  0.94901560  1  0.043346  0  0.002257  0.011283  0  3.922141  0
C  C104  1  0.49189652  0.65591503  0.05197763  1  -0.001258  0  -0.0866  -0.131142  0  3.971498  0
C  C105  1  0.50468795  0.33966458  0.94761092  1  -0.07593  0  -0.086238  -0.130302  0  3.969499  0
C  C106  1  0.50572051  0.65491319  0.10125990  1  -0.027133  0  -0.073017  -0.072147  0  3.985304  0
C  C107  1  0.51640641  0.34169232  0.89823325  1  0.032815  0  -0.073234  -0.072305  0  3.984294  0
C  C108  1  0.44396497  0.65533479  0.94654929  1  0.481753  0  0.09172  0.218205  0  4.014067  0
C  C109  1  0.46123970  0.33660808  0.05338733  1  0.487686  0  0.090879  0.217809  0  4.012629  0
C  C110  1  0.57531046  0.18569006  0.52705638  1  -0.012042  0  -0.084971  -0.153214  0  3.946561  0
C  C111  1  0.42679753  0.81555373  0.47816920  1  0.027607  0  -0.083206  -0.144921  0  3.940946  0
C  C112  1  0.49836278  0.23148321  0.50594872  1  -0.05941  0  -0.017829  -0.016062  0  4.014415  0
C  C113  1  0.50443245  0.76956987  0.49852455  1  -0.04262  0  -0.020602  -0.027217  0  4.016133  0
C  C114  1  0.42047209  0.18638714  0.48535490  1  -0.097063  0  -0.082732  -0.148349  0  3.938208  0
C  C115  1  0.58025584  0.81454330  0.52110384  1  -0.004235  0  -0.083736  -0.146049  0  3.938277  0
C  C116  1  0.42017974  0.09438732  0.48341906  1  0.017996  0  -0.008899  0.074195  0  4.050393  0
C  C117  1  0.57934538  0.90639677  0.52425313  1  -0.008863  0  -0.009699  0.071104  0  4.051777  0
C  C118  1  0.49903173  0.04706792  0.50469452  1  0.019791  0  0.002955  0.003659  0  3.911052  0
C  C119  1  0.50078441  0.95391095  0.50282036  1  -0.041123  0  0.003518  0.0038  0  3.912391  0
C  C120  1  0.57621868  0.09365025  0.52777277  1  0.03458  0  -0.009851  0.074679  0  4.047812  0
C  C121  1  0.42383954  0.90748666  0.47947785  1  -0.022199  0  -0.009768  0.073245  0  4.052565  0
C  C122  1  0.34369727  0.04610096  0.46053691  1  -0.010478  0  -0.093931  -0.136957  0  4.032281  0
C  C123  1  0.65410942  0.95464525  0.54852792  1  -0.001797  0  -0.092908  -0.140437  0  4.03777  0
C  C124  1  0.34556866  0.95654112  0.45855195  1  -0.123326  0  -0.093596  -0.136275  0  4.030943  0
C  C125  1  0.65240176  0.04426121  0.55029862  1  -0.111691  0  -0.092332  -0.134333  0  4.027465  0
C  C126  1  0.20733969  0.44362650  0.52612895  1  0.48136  0  0.058832  0.063928  0  3.863571  0
C  C127  1  0.79723162  0.55897306  0.47209263  1  0.442988  0  0.057902  0.061299  0  3.866461  0
C  C128  1  0.20639600  0.56173671  0.47233310  1  0.482306  0  0.059174  0.063598  0  3.867013  0
C  C129  1  0.79840591  0.44110471  0.52600062  1  0.497676  0  0.059155  0.06339  0  3.867261  0
C  C130  1  0.10472379  0.56373056  0.47054940  1  0.068778  0  -0.003927  -0.040596  0  4.036519  0
C  C131  1  0.90007981  0.43845962  0.52720832  1  0.013976  0  -0.004544  -0.041212  0  4.046054  0
C  C132  1  0.10570617  0.43992352  0.52741028  1  0.068978  0  -0.004446  -0.041385  0  4.039396  0
C  C133  1  0.89890768  0.56250014  0.47065255  1  0.055241  0  -0.005214  -0.040222  0  4.046997  0
C  C134  1  0.05357035  0.50166560  0.49903854  1  -0.079406  0  0.00474  0.020785  0  3.995949  0
C  C135  1  0.95111127  0.50111079  0.49913580  1  -0.016479  0  0.004192  0.021725  0  3.999026  0
C  C136  1  0.05147484  0.62484112  0.44104892  1  0.589454  0  0.082285  0.107191  0  4.063314  0
C  C137  1  0.95305125  0.37432069  0.55463016  1  0.580072  0  0.081072  0.102276  0  4.065846  0
C  C138  1  0.05365538  0.37662419  0.55587020  1  0.527295  0  0.080293  0.10017  0  4.062954  0
C  C139  1  0.95093650  0.62496159  0.44173239  1  0.509593  0  0.078418  0.094789  0  4.074746  0
C  C140  1  0.09813988  0.67045074  0.36277792  1  0.418427  0  -0.064237  0.02965  0  3.868684  0
C  C141  1  0.15426645  0.58955184  0.34687833  1  0.012744  0  -0.170274  -0.141459  0  3.983544  0
C  C142  1  0.14722481  0.57633249  0.29294670  1  -0.089412  0  -0.240475  -0.34691  0  3.976749  0
C  C143  1  0.90867984  0.22355574  0.56121916  1  0.355055  0  -0.064683  0.02917  0  3.863523  0
C  C144  1  0.86676631  0.21437728  0.51119459  1  -0.007128  0  -0.171939  -0.142182  0  3.982376  0
C  C145  1  0.88002205  0.12160520  0.49157475  1  -0.065024  0  -0.242482  -0.349248  0  3.973926  0
C  C146  1  0.09822629  0.32503112  0.63337028  1  0.421229  0  -0.063139  0.028366  0  3.868092  0
C  C147  1  0.15122185  0.40562169  0.65219414  1  -0.02916  0  -0.170202  -0.140022  0  3.984092  0
C  C148  1  0.13965679  0.41500478  0.70613821  1  -0.072958  0  -0.240718  -0.34894  0  3.979297  0
C  C149  1  0.88889899  0.77021136  0.43370555  1  0.361765  0  -0.063998  0.036526  0  3.876292  0
C  C150  1  0.80645090  0.81692522  0.40821110  1  -0.005082  0  -0.164841  -0.128778  0  3.984666  0
C  C151  1  0.79284486  0.91029657  0.42700374  1  -0.070474  0  -0.241745  -0.352575  0  3.971684  0
C  C152  1  0.32506844  0.74060877  0.98764398  1  0.393602  0  -0.064192  0.02985  0  3.892543  0
C  C153  1  0.24566521  0.75039845  0.95012195  1  0.022456  0  -0.169955  -0.139503  0  3.990958  0
C  C154  1  0.14463635  0.74879119  0.97267967  1  -0.073769  0  -0.240529  -0.351126  0  3.983705  0
C  C155  1  0.34898937  0.24276222  0.01285022  1  0.397324  0  -0.064696  0.02801  0  3.891169  0
C  C156  1  0.27181579  0.22666263  0.05067403  1  0.004354  0  -0.168331  -0.137493  0  3.989458  0
C  C157  1  0.17050438  0.21957870  0.02847252  1  -0.05199  0  -0.240611  -0.350039  0  3.983208  0
N  N158  1  0.49831382  0.50007368  0.79711086  1  -1.130667  0  -0.230673  -0.208624  0  3.573141  0
N  N159  1  0.50575944  0.49592911  0.20242344  1  -1.194867  0  -0.23142  -0.225103  0  3.593653  0
N  N160  1  0.25447293  0.50316248  0.49938124  1  -1.24275  0  -0.321283  -0.18509  0  3.563381  0
N  N161  1  0.75029839  0.49999598  0.49925973  1  -1.211972  0  -0.321964  -0.181167  0  3.567222  0
O  O162  1  0.42527024  0.63324778  0.48714870  1  -1.171769  0  -0.317896  -0.547169  0  2.330906  0
O  O163  1  0.58263856  0.36557634  0.49771956  1  -1.158312  0  -0.318311  -0.545693  0  2.309889  0
O  O164  1  0.41906340  0.36891125  0.50873583  1  -1.166405  0  -0.316147  -0.546696  0  2.32716  0
O  O165  1  0.58527972  0.63335335  0.50691734  1  -1.160555  0  -0.317754  -0.546499  0  2.326651  0
O  O166  1  0.42345471  0.51881728  0.57163057  1  -1.164356  0  -0.320442  -0.550811  0  2.30786  0
O  O167  1  0.58248588  0.51174845  0.42781151  1  -1.167543  0  -0.318572  -0.550527  0  2.32663  0
O  O168  1  0.42078535  0.48260074  0.42635147  1  -1.164175  0  -0.319995  -0.54778  0  2.312182  0
O  O169  1  0.58473223  0.48788377  0.57318528  1  -1.168301  0  -0.318491  -0.546169  0  2.326946  0
O  O170  1  0.46852350  0.64868757  0.79674082  1  -1.110356  0  -0.283669  -0.439475  0  2.06377  0
O  O171  1  0.49112755  0.34551370  0.20302702  1  -1.087263  0  -0.284587  -0.440226  0  2.058966  0
O  O172  1  0.52505775  0.64593106  0.20160366  1  -1.105532  0  -0.285927  -0.445577  0  2.061554  0
O  O173  1  0.53227744  0.35222130  0.79785175  1  -1.104723  0  -0.284856  -0.443737  0  2.065131  0
O  O174  1  0.10395390  0.68336640  0.41425210  1  -1.093743  0  -0.200762  -0.225116  0  2.506899  0
O  O175  1  0.89983957  0.31313645  0.57933218  1  -1.063575  0  -0.201298  -0.22742  0  2.505716  0
O  O176  1  0.10748876  0.31757307  0.58171568  1  -1.091195  0  -0.196701  -0.218689  0  2.512425  0
O  O177  1  0.89700259  0.68169817  0.41433439  1  -1.076013  0  -0.199959  -0.228893  0  2.533817  0
O  O178  1  0.42108429  0.73541227  0.96636655  1  -1.067651  0  -0.203957  -0.240365  0  2.49902  0
O  O179  1  0.44479507  0.25505224  0.03375213  1  -1.06859  0  -0.203489  -0.239254  0  2.498036  0
