# generated using pymatgen
data_CuH6C11SN7
_symmetry_space_group_name_H-M   'P 1'
_cell_length_a   5.51267102
_cell_length_b   5.96570721
_cell_length_c   10.06673600
_cell_angle_alpha   89.31874078
_cell_angle_beta   74.09320351
_cell_angle_gamma   87.58776145
_symmetry_Int_Tables_number   1
_chemical_formula_structural   CuH6C11SN7
_chemical_formula_sum   'Cu1 H6 C11 S1 N7'
_cell_volume   318.10554374
_cell_formula_units_Z   1
loop_
 _symmetry_equiv_pos_site_id
 _symmetry_equiv_pos_as_xyz
  1  'x, y, z'
loop_
 _atom_site_type_symbol
 _atom_site_label
 _atom_site_symmetry_multiplicity
 _atom_site_fract_x
 _atom_site_fract_y
 _atom_site_fract_z
 _atom_site_occupancy
 _atom_site_hle17_bader_spin_density
 _atom_site_hle17_ddec_charge
 _atom_site_hle17_ddec_spin_density
 _atom_site_hle17_ddec_sum_bond_order
 _atom_site_hle17_magmom
 _atom_site_hse06_10hf_bader_spin_density
 _atom_site_hse06_10hf_ddec_charge
 _atom_site_hse06_10hf_ddec_spin_density
 _atom_site_hse06_10hf_ddec_sum_bond_order
 _atom_site_hse06_10hf_magmom
 _atom_site_hse06_bader_spin_density
 _atom_site_hse06_ddec_charge
 _atom_site_hse06_ddec_spin_density
 _atom_site_hse06_ddec_sum_bond_order
 _atom_site_hse06_magmom
 _atom_site_pbe_bader_spin_density
 _atom_site_pbe_cm5_charge
 _atom_site_pbe_ddec_charge
 _atom_site_pbe_ddec_spin_density
 _atom_site_pbe_ddec_sum_bond_order
 _atom_site_pbe_magmom
Cu  Cu0  1  0.37427072  0.50974176  0.99995591  1  0  0.453002  0  2.187266  0  0  0.351951  0  2.701625  0  0  0.334715  0  2.669203  0  0  0.554665  0.37023  0  2.71731  0
H  H1  1  0.89451316  0.75592268  0.14333989  1  0  0.103722  0  0.927107  0  0  0.111471  0  0.989479  0  0  0.114659  0  0.987311  0  0  0.122815  0.10912  0  0.991063  0
H  H2  1  0.03834064  0.75561396  0.85660895  1  0  0.103235  0  0.927006  0  0  0.111535  0  0.989044  0  0  0.11463  0  0.986949  0  0  0.122588  0.108904  0  0.990892  0
H  H3  1  0.24468554  0.15580371  0.22158296  1  0  0.091119  0  0.969739  0  0  0.095101  0  1.038439  0  0  0.098164  0  1.0361  0  0  0.1133  0.092626  0  1.040592  0
H  H4  1  0.46685392  0.15559838  0.77818381  1  0  0.092014  0  0.968473  0  0  0.095481  0  1.0377  0  0  0.098447  0  1.03545  0  0  0.113551  0.093046  0  1.039724  0
H  H5  1  0.87179185  0.08188367  0.42308529  1  0  0.095791  0  0.955909  0  0  0.096254  0  1.02941  0  0  0.099508  0  1.026728  0  0  0.116794  0.094043  0  1.031332  0
H  H6  1  0.29498701  0.08173458  0.57692112  1  0  0.095898  0  0.955998  0  0  0.096294  0  1.029555  0  0  0.099526  0  1.026914  0  0  0.116743  0.093811  0  1.031861  0
C  C7  1  0.57249531  0.98638733  0.00000043  1  0  0.26675  0  4.035651  0  0  0.264009  0  4.326108  0  0  0.278484  0  4.343648  0  0  0.130046  0.255001  0  4.313034  0
C  C8  1  0.68143306  0.55693946  0.31531549  1  0  0.134422  0  3.872743  0  0  0.144685  0  4.115612  0  0  0.145906  0  4.132268  0  0  0.136172  0.14337  0  4.104801  0
C  C9  1  0.99685863  0.55658383  0.68485866  1  0  0.136973  0  3.871648  0  0  0.145843  0  4.116733  0  0  0.146978  0  4.133586  0  0  0.136772  0.144339  0  4.106364  0
C  C10  1  0.46689950  0.71072846  0.35016643  1  0  0.270567  0  3.678638  0  0  0.249553  0  3.95435  0  0  0.260241  0  3.971693  0  0  0.205918  0.242097  0  3.9431  0
C  C11  1  0.81703238  0.71022392  0.64999858  1  0  0.270963  0  3.679341  0  0  0.250398  0  3.955524  0  0  0.261141  0  3.972864  0  0  0.206281  0.243215  0  3.94412  0
C  C12  1  0.88961803  0.60354036  0.20462776  1  0  0.06356  0  3.625473  0  0  0.02794  0  3.871137  0  0  0.032111  0  3.883092  0  0  0.059641  0.024933  0  3.864098  0
C  C13  1  0.09458461  0.60322799  0.79538052  1  0  0.06329  0  3.625173  0  0  0.027108  0  3.87188  0  0  0.031389  0  3.883829  0  0  0.05906  0.024002  0  3.865331  0
C  C14  1  0.08143670  0.27233107  0.24826641  1  0  0.093998  0  3.624095  0  0  0.061494  0  3.879903  0  0  0.066564  0  3.891789  0  0  0.057015  0.057805  0  3.872913  0
C  C15  1  0.33011793  0.27210112  0.75163975  1  0  0.092912  0  3.625491  0  0  0.060808  0  3.8809  0  0  0.065927  0  3.892932  0  0  0.056464  0.057069  0  3.874067  0
C  C16  1  0.87299324  0.23129699  0.35970437  1  0  0.094295  0  3.687214  0  0  0.067187  0  3.95921  0  0  0.06897  0  3.972983  0  0  0.062282  0.065808  0  3.950039  0
C  C17  1  0.23289417  0.23107005  0.64032915  1  0  0.093425  0  3.689395  0  0  0.066544  0  3.96057  0  0  0.068205  0  3.974498  0  0  0.061694  0.064818  0  3.952326  0
S  S18  1  0.69057148  0.23303510  0.99995430  1  0  -0.366213  0  2.400682  0  0  -0.350475  0  2.784371  0  0  -0.361533  0  2.777824  0  0  -0.189329  -0.342154  0  2.786606  0
N  N19  1  0.49601001  0.80369986  0.99999537  1  0  -0.530485  0  3.149694  0  0  -0.488631  0  3.48676  0  0  -0.496651  0  3.48723  0  0  -0.448378  -0.483785  0  3.484491  0
N  N20  1  0.66988452  0.37103837  0.39355314  1  0  -0.256556  0  3.006891  0  0  -0.233459  0  3.267443  0  0  -0.23846  0  3.28178  0  0  -0.279567  -0.229391  0  3.25765  0
N  N21  1  0.06341941  0.37074938  0.60664251  1  0  -0.255663  0  3.0084  0  0  -0.23169  0  3.268818  0  0  -0.237012  0  3.283505  0  0  -0.279077  -0.228557  0  3.259932  0
N  N22  1  0.09028042  0.45810984  0.17018069  1  0  -0.240374  0  3.369341  0  0  -0.177087  0  3.669359  0  0  -0.180303  0  3.674085  0  0  -0.341715  -0.175989  0  3.666068  0
N  N23  1  0.26092835  0.45780416  0.82971924  1  0  -0.240056  0  3.370177  0  0  -0.175996  0  3.669175  0  0  -0.179462  0  3.674167  0  0  -0.341204  -0.175259  0  3.666144  0
N  N24  1  0.29271260  0.83627545  0.37841876  1  0  -0.362768  0  2.587347  0  0  -0.332502  0  2.813365  0  0  -0.34539  0  2.82826  0  0  -0.275908  -0.323788  0  2.803681  0
N  N25  1  0.67116766  0.83564327  0.62156744  1  0  -0.363823  0  2.588827  0  0  -0.333815  0  2.815265  0  0  -0.346756  0  2.830119  0  0  -0.276623  -0.325317  0  2.805415  0
