# generated using pymatgen
data_Zn2H28C25N4O9
_symmetry_space_group_name_H-M   'P 1'
_cell_length_a   9.88772831
_cell_length_b   11.28902934
_cell_length_c   16.07989579
_cell_angle_alpha   89.70082381
_cell_angle_beta   81.58228828
_cell_angle_gamma   82.56423784
_symmetry_Int_Tables_number   1
_chemical_formula_structural   Zn2H28C25N4O9
_chemical_formula_sum   'Zn2 H28 C25 N4 O9'
_cell_volume   1760.44418108
_cell_formula_units_Z   1
loop_
 _symmetry_equiv_pos_site_id
 _symmetry_equiv_pos_as_xyz
  1  'x, y, z'
loop_
 _atom_site_type_symbol
 _atom_site_label
 _atom_site_symmetry_multiplicity
 _atom_site_fract_x
 _atom_site_fract_y
 _atom_site_fract_z
 _atom_site_occupancy
 _atom_site_pbe_bader_charge
 _atom_site_pbe_bader_spin_density
 _atom_site_pbe_cm5_charge
 _atom_site_pbe_ddec_charge
 _atom_site_pbe_ddec_spin_density
 _atom_site_pbe_ddec_sum_bond_order
 _atom_site_pbe_magmom
Zn  Zn0  1  0.63491971  0.49779966  0.48570178  1  1.299433  0  0.666421  0.885963  0  2.382603  0
Zn  Zn1  1  0.35140932  0.48350682  0.52359992  1  1.299066  0  0.664527  0.851225  0  2.425753  0
H  H2  1  0.47476800  0.68625424  0.94256951  1  0.041487  0  0.09735  0.100891  0  0.967956  0
H  H3  1  0.68133719  0.57934919  0.05405352  1  0.057026  0  0.092522  0.089223  0  0.989268  0
H  H4  1  0.65022730  0.63429835  0.91360332  1  0.034885  0  0.093618  0.087422  0  0.992791  0
H  H5  1  0.58581508  0.30525808  0.92096980  1  0.045183  0  0.112774  0.064902  0  0.944665  0
H  H6  1  0.35403287  0.09542988  0.51159752  1  0.086209  0  0.102463  0.097887  0  0.998557  0
H  H7  1  0.59320512  0.88257553  0.47758105  1  0.109727  0  0.105741  0.105454  0  0.983211  0
H  H8  1  0.66943082  0.08933999  0.47037064  1  0.049479  0  0.104312  0.11852  0  1.00359  0
H  H9  1  0.27791511  0.89130743  0.52214221  1  0.075041  0  0.103289  0.118081  0  0.995297  0
H  H10  1  0.11285507  0.58197488  0.43923465  1  0.164064  0  0.144942  0.127684  0  0.943036  0
H  H11  1  0.84499902  0.62716151  0.48526849  1  0.442941  0  0.322004  0.31497  0  0.904006  0
H  H12  1  0.53402678  0.68564916  0.07995856  1  0.05128  0  0.095554  0.098735  0  0.974289  0
H  H13  1  0.11205339  0.38257607  0.55647586  1  0.438177  0  0.324178  0.295741  0  0.89524  0
H  H14  1  0.28456059  0.45401458  0.09390405  1  0.043635  0  0.092137  0.091265  0  0.986564  0
H  H15  1  0.29754781  0.60620419  0.07282835  1  0.034189  0  0.092349  0.093441  0  0.976865  0
H  H16  1  0.29187183  0.55098898  0.93197033  1  0.031419  0  0.095631  0.099877  0  0.973656  0
H  H17  1  0.33682316  0.39781432  0.95060876  1  0.018918  0  0.094162  0.092182  0  0.980699  0
H  H18  1  0.48982435  0.31470535  0.05820690  1  0.018157  0  0.096977  0.042265  0  0.961676  0
H  H19  1  0.13422101  0.26212464  0.43802650  1  0.059429  0  0.107142  0.072796  0  0.994575  0
H  H20  1  0.07632093  0.30533911  0.34085577  1  0.089016  0  0.114107  0.084759  0  0.949382  0
H  H21  1  0.95285571  0.12416196  0.46299873  1  0.034796  0  0.096802  0.090385  0  0.966327  0
H  H22  1  0.89702479  0.16658030  0.36664856  1  0.064593  0  0.102721  0.102817  0  0.958858  0
H  H23  1  0.13087141  0.08038366  0.28812068  1  0.001292  0  0.090944  0.116489  0  0.99758  0
H  H24  1  0.05283915  0.97081757  0.35045619  1  0.02591  0  0.092394  0.120709  0  0.995013  0
H  H25  1  0.18781141  0.03789751  0.38499384  1  0.030744  0  0.086864  0.113181  0  1.014845  0
H  H26  1  0.77653970  0.34488694  0.04968131  1  0.453299  0  0.264431  0.25485  0  1.045132  0
H  H27  1  0.68139365  0.34947908  0.14599616  1  0.41966  0  0.272753  0.268628  0  0.99873  0
H  H28  1  0.77837250  0.47829307  0.92396636  1  0.388579  0  0.282519  0.262337  0  0.993485  0
H  H29  1  0.78609473  0.35946330  0.86488496  1  0.405624  0  0.291472  0.278596  0  0.961111  0
C  C30  1  0.41597089  0.72181735  0.50777956  1  1.549736  0  0.203235  0.631983  0  4.188942  0
C  C31  1  0.55540494  0.61291069  0.95209346  1  -0.040394  0  -0.154709  -0.187963  0  3.86913  0
C  C32  1  0.51250571  0.49535804  0.92052953  1  0.158576  0  -0.002115  0.110927  0  3.889463  0
C  C33  1  0.60879608  0.38684376  0.95001816  1  0.350247  0  0.015826  0.107143  0  3.757338  0
C  C34  1  0.56958564  0.37549909  0.04769817  1  0.345357  0  0.011448  0.119832  0  3.785657  0
C  C35  1  0.52058138  0.49372530  0.82966110  1  -0.584961  0  -0.034904  -0.056171  0  4.075888  0
C  C36  1  0.48503658  0.50071898  0.17542068  1  -0.480866  0  -0.030277  -0.038269  0  4.064164  0
C  C37  1  0.48468122  0.49758990  0.25110415  1  0.157739  0  -0.066631  -0.22941  0  4.000302  0
C  C38  1  0.38632634  0.85387683  0.50752346  1  -0.065348  0  -0.091586  -0.225487  0  3.887549  0
C  C39  1  0.48653132  0.92525730  0.49210966  1  -0.0853  0  -0.078382  -0.033058  0  4.028414  0
C  C40  1  0.56077431  0.12563806  0.48557415  1  -0.034651  0  -0.091161  -0.223126  0  3.882614  0
C  C41  1  0.49088801  0.49463476  0.34043485  1  1.666723  0  0.211999  0.674885  0  4.245942  0
C  C42  1  0.46094014  0.05345901  0.49636240  1  0.019285  0  -0.079144  -0.036585  0  4.038861  0
C  C43  1  0.07714988  0.50478584  0.47333681  1  0.696648  0  0.120651  0.098619  0  3.863541  0
C  C44  1  0.94264931  0.46731136  0.46022325  1  1.326034  0  0.259392  0.432608  0  4.097167  0
C  C45  1  0.53032143  0.25731267  0.49516778  1  1.537184  0  0.204624  0.631445  0  4.191102  0
C  C46  1  0.51593270  0.49100632  0.66443856  1  1.674486  0  0.216066  0.679857  0  4.23616  0
C  C47  1  0.57242064  0.60123919  0.04571291  1  -0.069919  0  -0.1563  -0.188712  0  3.876557  0
C  C48  1  0.34803044  0.51474959  0.05748673  1  -0.050514  0  -0.156551  -0.194102  0  3.899679  0
C  C49  1  0.36237035  0.48756870  0.96246273  1  -0.007855  0  -0.155667  -0.194223  0  3.884277  0
C  C50  1  0.52112321  0.49191638  0.75398492  1  0.206154  0  -0.066513  -0.21982  0  4.004691  0
C  C51  1  0.49295874  0.50014058  0.08482766  1  0.100759  0  -0.00592  0.104501  0  3.889136  0
C  C52  1  0.04518832  0.26974113  0.40362991  1  0.341053  0  -0.053051  0.029192  0  3.839371  0
C  C53  1  0.98868066  0.15175725  0.39862962  1  -0.009864  0  -0.16237  -0.129774  0  3.982808  0
C  C54  1  0.09623145  0.05520552  0.35313347  1  -0.029351  0  -0.238888  -0.352361  0  3.972192  0
N  N55  1  0.14925111  0.45482051  0.52654775  1  -1.174421  0  -0.438311  -0.368248  0  3.27123  0
N  N56  1  0.83162453  0.54195749  0.47050006  1  -1.210427  0  -0.470738  -0.537152  0  3.225169  0
N  N57  1  0.68802114  0.32423741  0.08460587  1  -1.190327  0  -0.656918  -0.663099  0  3.238814  0
N  N58  1  0.75598196  0.39263103  0.92440457  1  -1.121871  0  -0.629507  -0.629796  0  3.222655  0
O  O59  1  0.54153367  0.67442445  0.49722340  1  -1.172279  0  -0.322168  -0.568546  0  2.297991  0
O  O60  1  0.31073130  0.66523711  0.51960212  1  -1.142619  0  -0.329812  -0.557488  0  2.262613  0
O  O61  1  0.60947217  0.49978645  0.36129524  1  -1.140587  0  -0.320313  -0.543821  0  2.24493  0
O  O62  1  0.37908098  0.48689667  0.38970807  1  -1.168805  0  -0.32148  -0.573785  0  2.26268  0
O  O63  1  0.63393724  0.31500936  0.48314012  1  -1.156097  0  -0.315809  -0.554104  0  2.307006  0
O  O64  1  0.40431184  0.30258930  0.51490023  1  -1.165993  0  -0.330703  -0.568251  0  2.305171  0
O  O65  1  0.62912891  0.49236318  0.61542866  1  -1.14824  0  -0.323566  -0.557831  0  2.24448  0
O  O66  1  0.39681474  0.48908621  0.64313774  1  -1.143725  0  -0.319939  -0.546418  0  2.250894  0
O  O67  1  0.93105069  0.35312416  0.44716470  1  -1.048822  0  -0.142906  -0.18467  0  2.537111  0
