# generated using pymatgen
data_Zr3H15C32Cl5O18
_symmetry_space_group_name_H-M   'P 1'
_cell_length_a   14.86537443
_cell_length_b   14.90386938
_cell_length_c   14.88077241
_cell_angle_alpha   59.51939012
_cell_angle_beta   60.25074482
_cell_angle_gamma   59.60669838
_symmetry_Int_Tables_number   1
_chemical_formula_structural   Zr3H15C32Cl5O18
_chemical_formula_sum   'Zr6 H30 C64 Cl10 O36'
_cell_volume   2320.00994695
_cell_formula_units_Z   2
loop_
 _symmetry_equiv_pos_site_id
 _symmetry_equiv_pos_as_xyz
  1  'x, y, z'
loop_
 _atom_site_type_symbol
 _atom_site_label
 _atom_site_symmetry_multiplicity
 _atom_site_fract_x
 _atom_site_fract_y
 _atom_site_fract_z
 _atom_site_occupancy
 _atom_site_pbe_bader_charge
 _atom_site_pbe_bader_spin_density
 _atom_site_pbe_cm5_charge
 _atom_site_pbe_ddec_charge
 _atom_site_pbe_ddec_spin_density
 _atom_site_pbe_ddec_sum_bond_order
 _atom_site_pbe_magmom
Zr  Zr0  1  0.88431988  0.38275529  0.61460346  1  2.635601  0  1.62269  2.383486  0  2.726571  0
Zr  Zr1  1  0.12141611  0.62079836  0.37825964  1  2.632863  0  1.626015  2.374707  0  2.747152  0
Zr  Zr2  1  0.12617310  0.38097129  0.61379915  1  2.636706  0  1.63161  2.373903  0  2.763602  0
Zr  Zr3  1  0.88604203  0.62133883  0.37537571  1  2.62406  0  1.619957  2.373507  0  2.743031  0
Zr  Zr4  1  0.88402835  0.61735283  0.61771984  1  2.634694  0  1.619438  2.376506  0  2.720059  0
Zr  Zr5  1  0.12280251  0.38072948  0.37937987  1  2.635837  0  1.630219  2.379548  0  2.752984  0
H  H6  1  0.90897834  0.40622310  0.77694108  1  0.59346  0  0.320534  0.404542  0  0.893002  0
H  H7  1  0.90970342  0.78351229  0.40467773  1  0.618404  0  0.319603  0.406106  0  0.893024  0
H  H8  1  0.28534904  0.40876614  0.40315901  1  0.612691  0  0.329922  0.420966  0  0.863682  0
H  H9  1  0.91002853  0.40785910  0.40340780  1  0.593273  0  0.332392  0.425516  0  0.853248  0
H  H10  1  0.48148228  0.76240004  0.80716612  1  0.06496  0  0.106583  0.129507  0  0.963072  0
H  H11  1  0.56340385  0.73869219  0.87815908  1  0.051431  0  0.09946  0.109908  0  0.982427  0
H  H12  1  0.39725719  0.73883650  0.05077596  1  0.046802  0  0.093323  0.105803  0  0.991615  0
H  H13  1  0.31790938  0.76586887  0.97528202  1  0.065979  0  0.096877  0.1147  0  1.008429  0
H  H14  1  0.19867338  0.09953213  0.27466995  1  0.044108  0  0.098478  0.109901  0  0.99594  0
H  H15  1  0.06983609  0.17579656  0.25033830  1  0.062428  0  0.095465  0.109733  0  0.985233  0
H  H16  1  0.07071037  0.00630146  0.25052726  1  0.064993  0  0.095051  0.10933  0  1.001952  0
H  H17  1  0.19972698  0.92887724  0.27552414  1  0.080825  0  0.100337  0.115468  0  0.980867  0
H  H18  1  0.46030466  0.79330747  0.51183899  1  0.061306  0  0.09953  0.114864  0  0.970983  0
H  H19  1  0.51888203  0.85629471  0.36746312  1  0.075921  0  0.085413  0.097394  0  1.042452  0
H  H20  1  0.34880949  0.02653148  0.36935883  1  0.067039  0  0.096753  0.108813  0  0.984033  0
H  H21  1  0.29165529  0.96445649  0.51492729  1  0.079173  0  0.099081  0.121513  0  0.997352  0
H  H22  1  0.80110697  0.71742491  0.06725523  1  0.064148  0  0.096811  0.114402  0  0.973569  0
H  H23  1  0.74994648  0.60526637  0.15337893  1  0.070444  0  0.083493  0.096559  0  1.046264  0
H  H24  1  0.74725401  0.59788039  0.99054497  1  0.059875  0  0.098558  0.112949  0  0.973327  0
H  H25  1  0.79732742  0.71039589  0.90259429  1  0.054932  0  0.089116  0.107883  0  1.026204  0
H  H26  1  0.88813889  0.28256578  0.93708917  1  0.039472  0  0.099959  0.095985  0  1.021606  0
H  H27  1  0.78728897  0.30064624  0.12076499  1  0.057954  0  0.107508  0.107847  0  0.978253  0
H  H28  1  0.89854688  0.94674034  0.27411997  1  0.043077  0  0.098994  0.093518  0  1.030278  0
H  H29  1  0.79279011  0.13131157  0.29018189  1  0.082053  0  0.095107  0.09181  0  1.034321  0
H  H30  1  0.53027979  0.38070156  0.75108327  1  0.05698  0  0.10147  0.119758  0  0.974589  0
H  H31  1  0.61059662  0.27980341  0.68505556  1  0.070607  0  0.101102  0.115821  0  0.975783  0
H  H32  1  0.43545715  0.27921076  0.69554730  1  0.07115  0  0.092879  0.110936  0  0.999642  0
H  H33  1  0.35692851  0.38471492  0.75550649  1  0.091719  0  0.090507  0.108849  0  1.018172  0
H  H34  1  0.02140741  0.72013212  0.09116708  1  0.640169  0  0.317359  0.361903  0  0.943661  0
H  H35  1  0.07203915  0.00686087  0.71939566  1  0.612319  0  0.286095  0.315984  0  1.021254  0
C  C36  1  0.69753598  0.50007207  0.79619608  1  1.568688  0  0.235749  0.65675  0  4.092051  0
C  C37  1  0.00868122  0.79368594  0.50807587  1  1.577396  0  0.236046  0.656564  0  4.094918  0
C  C38  1  0.30186316  0.50450324  0.19261336  1  1.567804  0  0.236212  0.661512  0  4.083059  0
C  C39  1  0.00680393  0.19104616  0.50797907  1  1.584389  0  0.2363  0.655166  0  4.101659  0
C  C40  1  0.01616388  0.19261215  0.79224128  1  1.582682  0  0.234347  0.641946  0  4.134386  0
C  C41  1  0.69721963  0.51383867  0.49385409  1  1.573177  0  0.237953  0.657712  0  4.097199  0
C  C42  1  0.01099536  0.80146228  0.18623741  1  1.588715  0  0.236567  0.629279  0  4.161016  0
C  C43  1  0.30200641  0.50684193  0.49880164  1  1.571343  0  0.23632  0.655799  0  4.097335  0
C  C44  1  0.00717528  0.48972299  0.80195621  1  1.57084  0  0.234089  0.651351  0  4.104059  0
C  C45  1  0.30931567  0.20115242  0.49493525  1  1.578497  0  0.241526  0.667499  0  4.093759  0
C  C46  1  0.00993572  0.49927606  0.19131401  1  1.581531  0  0.236365  0.657915  0  4.089738  0
C  C47  1  0.70414841  0.80494798  0.49328282  1  1.581818  0  0.238397  0.66161  0  4.100062  0
C  C48  1  0.59968083  0.49530514  0.89889309  1  -0.05636  0  -0.015626  -0.132025  0  3.937665  0
C  C49  1  0.40575982  0.49786234  0.09590131  1  0.027586  0  -0.012019  -0.121468  0  3.919422  0
C  C50  1  0.52613426  0.59113316  0.92494836  1  0.056663  0  -0.001687  0.070255  0  3.893364  0
C  C51  1  0.48195314  0.39794343  0.07387876  1  0.082734  0  0.012795  0.060612  0  3.992348  0
C  C52  1  0.43303468  0.59248348  0.01900036  1  0.019762  0  -0.002275  0.070229  0  3.887189  0
C  C53  1  0.57488051  0.39691528  0.97700642  1  0.104336  0  0.011756  0.058103  0  3.99772  0
C  C54  1  0.50115735  0.71483711  0.88441969  1  0.001402  0  -0.145921  -0.192066  0  3.843271  0
C  C55  1  0.39674970  0.71611830  0.99147203  1  0.014728  0  -0.149376  -0.18916  0  3.84708  0
C  C56  1  0.01059871  0.08482310  0.51576268  1  0.014651  0  -0.011784  -0.120443  0  3.930191  0
C  C57  1  0.01366116  0.88730931  0.51599796  1  0.075296  0  -0.013732  -0.124543  0  3.926572  0
C  C58  1  0.05893849  0.05729751  0.42137400  1  0.045364  0  -0.003237  0.067682  0  3.892392  0
C  C59  1  0.97053491  0.90924302  0.61485801  1  0.066905  0  0.015555  0.06442  0  4.006533  0
C  C60  1  0.05941042  0.96336468  0.42133306  1  -0.052948  0  -0.001198  0.072112  0  3.890675  0
C  C61  1  0.96639233  0.00665485  0.61393964  1  0.094211  0  0.013839  0.054353  0  3.970664  0
C  C62  1  0.11740942  0.09641251  0.29825888  1  -0.012014  0  -0.14936  -0.196431  0  3.864598  0
C  C63  1  0.11798916  0.99000047  0.29830014  1  -0.02128  0  -0.149279  -0.191334  0  3.847418  0
C  C64  1  0.60897415  0.91086757  0.48747394  1  0.020796  0  -0.012553  -0.122027  0  3.957661  0
C  C65  1  0.41545941  0.10727248  0.48694058  1  0.0236  0  -0.010665  -0.119411  0  3.959201  0
C  C66  1  0.51968695  0.92513349  0.46780165  1  0.019484  0  -0.001437  0.072606  0  3.887858  0
C  C67  1  0.50807685  0.09794664  0.50032795  1  0.080943  0  0.01563  0.064385  0  4.005816  0
C  C68  1  0.42631384  0.01989451  0.46774012  1  0.029116  0  0.001192  0.079684  0  3.891046  0
C  C69  1  0.60227944  0.00147144  0.50157225  1  0.119327  0  0.013795  0.060097  0  3.999688  0
C  C70  1  0.47327454  0.87030765  0.44644015  1  -0.024207  0  -0.152705  -0.195206  0  3.858318  0
C  C71  1  0.36684862  0.97756174  0.44747570  1  -0.039985  0  -0.148574  -0.190523  0  3.83093  0
C  C72  1  0.01447885  0.49158569  0.09275336  1  0.053666  0  -0.012334  -0.122636  0  3.926384  0
C  C73  1  0.00942617  0.47963354  0.90580062  1  0.02122  0  -0.016719  -0.13246  0  3.946471  0
C  C74  1  0.92482417  0.55437622  0.05374092  1  -0.012313  0  -0.007394  0.066878  0  3.902138  0
C  C75  1  0.09749659  0.40648688  0.95048299  1  0.121245  0  0.017586  0.0642  0  3.98201  0
C  C76  1  0.92325105  0.55024081  0.96315799  1  -0.004212  0  -0.008374  0.065902  0  3.913936  0
C  C77  1  0.10356264  0.41741330  0.03662189  1  0.092227  0  0.019087  0.067175  0  3.975834  0
C  C78  1  0.80895418  0.63676053  0.07486627  1  -0.03717  0  -0.158711  -0.20032  0  3.886023  0
C  C79  1  0.80708492  0.63241284  0.97214303  1  -0.016007  0  -0.153491  -0.195781  0  3.860728  0
C  C80  1  0.01964796  0.09013643  0.89322704  1  -0.096862  0  -0.002344  -0.081686  0  3.911507  0
C  C81  1  0.95390639  0.10313781  0.99813104  1  0.013397  0  0.004771  0.069491  0  3.961659  0
C  C82  1  0.08680283  0.98661703  0.88401104  1  0.05024  0  -0.005598  -0.084218  0  3.962646  0
C  C83  1  0.89132920  0.20857246  0.01041157  1  0.025263  0  -0.086364  -0.119121  0  3.986373  0
C  C84  1  0.83491413  0.21876879  0.11317794  1  -0.022949  0  -0.084293  -0.069847  0  4.008635  0
C  C85  1  0.01491564  0.90043073  0.08218693  1  -0.104107  0  0.000434  -0.075157  0  3.913077  0
C  C86  1  0.07653788  0.88961385  0.97884315  1  0.042232  0  -0.012181  -0.104044  0  3.983049  0
C  C87  1  0.95631148  0.00635249  0.09487227  1  0.046546  0  0.001921  0.062894  0  3.955949  0
C  C88  1  0.89719216  0.01963288  0.19960402  1  0.002873  0  -0.085223  -0.11663  0  3.962215  0
C  C89  1  0.83791657  0.12333566  0.20884628  1  -0.056523  0  -0.08743  -0.073759  0  4.008415  0
C  C90  1  0.59539901  0.52025159  0.49055194  1  0.025787  0  -0.014589  -0.133025  0  3.949371  0
C  C91  1  0.40257688  0.51278175  0.49193895  1  -0.026464  0  -0.013662  -0.127341  0  3.927885  0
C  C92  1  0.54026566  0.44724766  0.57629475  1  -0.008733  0  -0.002631  0.072874  0  3.901737  0
C  C93  1  0.45880874  0.58652655  0.40153734  1  0.068063  0  0.015191  0.064334  0  3.983703  0
C  C94  1  0.44658794  0.44521939  0.57822422  1  0.07586  0  -0.003147  0.075577  0  3.883901  0
C  C95  1  0.54967286  0.59334132  0.40325928  1  0.111482  0  0.015185  0.056773  0  3.995601  0
C  C96  1  0.53972066  0.35662547  0.68746996  1  -0.014009  0  -0.148983  -0.194428  0  3.85604  0
C  C97  1  0.43158253  0.35669692  0.69135350  1  -0.043524  0  -0.155683  -0.202402  0  3.862826  0
C  C98  1  0.13126782  0.78177907  0.95853204  1  1.542946  0  0.227378  0.563496  0  4.13346  0
C  C99  1  0.17855272  0.98007831  0.77600575  1  1.569328  0  0.232844  0.588251  0  4.123467  0
Cl  Cl100  1  0.46760803  0.27225958  0.16933927  1  -0.172362  0  -0.003567  -0.054532  0  1.657565  0
Cl  Cl101  1  0.66026300  0.27094343  0.95893259  1  -0.174158  0  0.004418  -0.048983  0  1.676111  0
Cl  Cl102  1  0.92861571  0.81321332  0.73991912  1  -0.159238  0  0.01878  -0.035732  0  1.7161  0
Cl  Cl103  1  0.90929504  0.02547385  0.73955962  1  -0.18166  0  0.03629  -0.031813  0  1.714725  0
Cl  Cl104  1  0.50903288  0.20939635  0.50766949  1  -0.185641  0  0.000911  -0.061887  0  1.62755  0
Cl  Cl105  1  0.71432130  0.99643525  0.51452746  1  -0.194335  0  0.003648  -0.058528  0  1.630373  0
Cl  Cl106  1  0.19796912  0.29741739  0.90641851  1  -0.15454  0  0.027669  -0.024311  0  1.682703  0
Cl  Cl107  1  0.22478026  0.33998688  0.06710293  1  -0.1579  0  0.015539  -0.036686  0  1.66703  0
Cl  Cl108  1  0.42272454  0.66856142  0.28319129  1  -0.161141  0  0.006469  -0.052311  0  1.66659  0
Cl  Cl109  1  0.60207227  0.69425969  0.29441656  1  -0.152679  0  0.043403  -0.022838  0  1.797715  0
O  O110  1  0.73774551  0.42784312  0.75186114  1  -1.173896  0  -0.360783  -0.627087  0  2.353476  0
O  O111  1  0.07957819  0.76432580  0.42467851  1  -1.163071  0  -0.340842  -0.595264  0  2.249806  0
O  O112  1  0.26438791  0.58287485  0.22852675  1  -1.172051  0  -0.346888  -0.611864  0  2.232013  0
O  O113  1  0.92659167  0.23721708  0.57745545  1  -1.179064  0  -0.363591  -0.632756  0  2.335238  0
O  O114  1  0.09170085  0.23198953  0.75260381  1  -1.161329  0  -0.345001  -0.589987  0  2.280666  0
O  O115  1  0.74142184  0.58693824  0.41879109  1  -1.182554  0  -0.370417  -0.632043  0  2.399255  0
O  O116  1  0.93584116  0.76197765  0.22140921  1  -1.18886  0  -0.345272  -0.627219  0  2.277346  0
O  O117  1  0.26905483  0.42687326  0.57605702  1  -1.167496  0  -0.336368  -0.592714  0  2.25043  0
O  O118  1  0.92664360  0.56763610  0.76787127  1  -1.171895  0  -0.341992  -0.60612  0  2.256313  0
O  O119  1  0.26457307  0.23552799  0.42358878  1  -1.17235  0  -0.354095  -0.618322  0  2.28056  0
O  O120  1  0.07960955  0.42132408  0.23994386  1  -1.179642  0  -0.363543  -0.619961  0  2.402869  0
O  O121  1  0.73941710  0.75988066  0.57417606  1  -1.168593  0  -0.354129  -0.616693  0  2.302514  0
O  O122  1  0.27004953  0.23818408  0.57209556  1  -1.166985  0  -0.349011  -0.607237  0  2.311649  0
O  O123  1  0.93390144  0.58077388  0.22326703  1  -1.180755  0  -0.341587  -0.612981  0  2.223289  0
O  O124  1  0.74128632  0.76732449  0.41662812  1  -1.173106  0  -0.347559  -0.600928  0  2.238871  0
O  O125  1  0.08590310  0.42215561  0.75295071  1  -1.177497  0  -0.366493  -0.622767  0  2.406005  0
O  O126  1  0.93621316  0.23142482  0.75768525  1  -1.169426  0  -0.343915  -0.616212  0  2.284724  0
O  O127  1  0.25516565  0.58284078  0.42687358  1  -1.180063  0  -0.371281  -0.628958  0  2.419444  0
O  O128  1  0.08170164  0.76715104  0.23043709  1  -1.161389  0  -0.333381  -0.580883  0  2.274445  0
O  O129  1  0.73460369  0.43333986  0.57100161  1  -1.167292  0  -0.336611  -0.591387  0  2.246702  0
O  O130  1  0.08240165  0.22914280  0.42942303  1  -1.165123  0  -0.333536  -0.588741  0  2.238098  0
O  O131  1  0.73466013  0.57731517  0.75960787  1  -1.165311  0  -0.342402  -0.603257  0  2.235555  0
O  O132  1  0.93198411  0.75410170  0.58078574  1  -1.17365  0  -0.360192  -0.635326  0  2.361912  0
O  O133  1  0.25753142  0.43266724  0.23172660  1  -1.165343  0  -0.356351  -0.62074  0  2.36704  0
O  O134  1  0.93613235  0.43499002  0.42981648  1  -1.21891  0  -0.696013  -1.071431  0  2.371032  0
O  O135  1  0.20542820  0.43500748  0.42914160  1  -1.241897  0  -0.695389  -1.068839  0  2.373506  0
O  O136  1  0.93682253  0.70340557  0.42789502  1  -1.252913  0  -0.692584  -1.066092  0  2.365977  0
O  O137  1  0.93678476  0.43157485  0.69716150  1  -1.227762  0  -0.69441  -1.064381  0  2.383413  0
O  O138  1  0.05195693  0.54976159  0.54652476  1  -1.198982  0  -0.79175  -1.146369  0  2.134323  0
O  O139  1  0.85637563  0.55148094  0.54391081  1  -1.192536  0  -0.789442  -1.143948  0  2.133525  0
O  O140  1  0.05279724  0.55133002  0.34821518  1  -1.196968  0  -0.793104  -1.149512  0  2.133182  0
O  O141  1  0.05338309  0.35261039  0.54645164  1  -1.202869  0  -0.790038  -1.149173  0  2.120393  0
O  O142  1  0.09058238  0.69853163  0.03310774  1  -1.148427  0  -0.33287  -0.462125  0  2.266109  0
O  O143  1  0.20842763  0.76849835  0.87561310  1  -1.113663  0  -0.270951  -0.442228  0  2.09508  0
O  O144  1  0.14996016  0.00032837  0.69230517  1  -1.12554  0  -0.331581  -0.458001  0  2.288528  0
O  O145  1  0.27103987  0.96841962  0.76189599  1  -1.093083  0  -0.266123  -0.428748  0  2.058666  0
