# generated using pymatgen
data_Zn4H86C91N20O9
_symmetry_space_group_name_H-M   'P 1'
_cell_length_a   20.22288075
_cell_length_b   18.91973435
_cell_length_c   21.90758823
_cell_angle_alpha   101.64683345
_cell_angle_beta   109.86458109
_cell_angle_gamma   114.70775209
_symmetry_Int_Tables_number   1
_chemical_formula_structural   Zn4H86C91N20O9
_chemical_formula_sum   'Zn4 H86 C91 N20 O9'
_cell_volume   6555.84961565
_cell_formula_units_Z   1
loop_
 _symmetry_equiv_pos_site_id
 _symmetry_equiv_pos_as_xyz
  1  'x, y, z'
loop_
 _atom_site_type_symbol
 _atom_site_label
 _atom_site_symmetry_multiplicity
 _atom_site_fract_x
 _atom_site_fract_y
 _atom_site_fract_z
 _atom_site_occupancy
 _atom_site_pbe_bader_charge
 _atom_site_pbe_bader_spin_density
 _atom_site_pbe_cm5_charge
 _atom_site_pbe_ddec_charge
 _atom_site_pbe_ddec_spin_density
 _atom_site_pbe_ddec_sum_bond_order
 _atom_site_pbe_magmom
Zn  Zn0  1  0.87990649  0.89689849  0.50343249  1  1.17912  0  0.733333  0.680925  0  2.269972  0
Zn  Zn1  1  0.14251782  0.12307154  0.50550084  1  1.206883  0  0.755721  0.684775  0  2.35897  0
Zn  Zn2  1  0.09441737  0.00562895  0.59968326  1  1.185237  0  0.744134  0.624143  0  2.423705  0
Zn  Zn3  1  0.93170000  0.00293202  0.39871018  1  1.174193  0  0.782586  0.721258  0  2.276606  0
H  H4  1  0.25700690  0.07257790  0.47469441  1  0.081657  0  0.11254  0.102697  0  1.031727  0
H  H5  1  0.38657408  0.97494057  0.62620661  1  0.0558  0  0.09807  0.097797  0  1.001446  0
H  H6  1  0.41488893  0.17340902  0.55056895  1  0.0595  0  0.093312  0.091171  0  1.012885  0
H  H7  1  0.54407901  0.19156039  0.55343088  1  0.059551  0  0.097707  0.095532  0  1.00799  0
H  H8  1  0.13265965  0.53143285  0.61968944  1  0.056121  0  0.098091  0.098346  0  1.006235  0
H  H9  1  0.14160418  0.40421409  0.61306676  1  0.044353  0  0.099454  0.102142  0  1.025446  0
H  H10  1  0.87564861  0.24811767  0.51416737  1  0.061802  0  0.101148  0.104891  0  1.001245  0
H  H11  1  0.86730321  0.37580179  0.52412868  1  0.082716  0  0.10486  0.109296  0  0.992653  0
H  H12  1  0.09889732  0.14429819  0.70739297  1  0.122951  0  0.118818  0.111382  0  1.016579  0
H  H13  1  0.88986383  0.57927022  0.42500612  1  0.095659  0  0.107191  0.127479  0  0.992747  0
H  H14  1  0.09322420  0.75096914  0.63561062  1  0.059029  0  0.100628  0.107004  0  0.997159  0
H  H15  1  0.11625914  0.85435236  0.55615363  1  0.059286  0  0.114508  0.106025  0  1.010105  0
H  H16  1  0.09491952  0.62882685  0.65804737  1  0.045359  0  0.101638  0.101288  0  0.996998  0
H  H17  1  0.20454134  0.24407238  0.83221709  1  0.076289  0  0.100336  0.101845  0  0.999976  0
H  H18  1  0.28709906  0.35920035  0.95344622  1  0.067894  0  0.104314  0.106444  0  1.010252  0
H  H19  1  0.50918267  0.48516755  0.12900377  1  0.079253  0  0.104823  0.108077  0  0.99691  0
H  H20  1  0.64609123  0.59837642  0.23356454  1  0.040352  0  0.099384  0.101765  0  1.000039  0
H  H21  1  0.27119289  0.43139803  0.74444861  1  0.034426  0  0.098236  0.099368  0  1.002254  0
H  H22  1  0.46923236  0.67561898  0.07648065  1  0.101488  0  0.104112  0.107133  0  1.012649  0
H  H23  1  0.35282622  0.54657069  0.86670859  1  0.106109  0  0.103677  0.105727  0  1.000123  0
H  H24  1  0.71282624  0.01489277  0.39859027  1  0.05609  0  0.109889  0.097163  0  1.000525  0
H  H25  1  0.60316400  0.78936681  0.18353132  1  0.062598  0  0.103826  0.109842  0  0.991226  0
H  H26  1  0.93385750  0.89997771  0.27727594  1  0.10737  0  0.119207  0.105959  0  1.017289  0
H  H27  1  0.91838082  0.86395664  0.17155316  1  0.029776  0  0.092647  0.090901  0  1.049364  0
H  H28  1  0.89657604  0.82663051  0.04868895  1  0.088226  0  0.104948  0.108005  0  0.994089  0
H  H29  1  0.97528875  0.96927346  0.94216795  1  0.082764  0  0.09991  0.107587  0  1.011408  0
H  H30  1  0.94869913  0.00008170  0.83357325  1  0.044314  0  0.095419  0.099802  0  1.008289  0
H  H31  1  0.18145256  0.01790012  0.24914899  1  0.070859  0  0.098703  0.110825  0  1.063174  0
H  H32  1  0.27693619  0.31806593  0.66070782  1  0.109188  0  0.118023  0.106101  0  0.993007  0
H  H33  1  0.82958036  0.99368807  0.59468821  1  0.087351  0  0.109721  0.100014  0  1.047875  0
H  H34  1  0.88939483  0.12360122  0.49616398  1  0.116046  0  0.116183  0.106719  0  1.057577  0
H  H35  1  0.11682029  0.00695918  0.75622349  1  0.081759  0  0.120109  0.112501  0  0.98115  0
H  H36  1  0.73602017  0.71398286  0.35547678  1  0.070871  0  0.112285  0.097306  0  1.030888  0
H  H37  1  0.28645393  0.01937108  0.66205137  1  0.109176  0  0.120764  0.109791  0  0.989237  0
H  H38  1  0.82928428  0.96013963  0.70929250  1  0.01856  0  0.096797  0.055506  0  0.978179  0
H  H39  1  0.81486658  0.86447932  0.71963491  1  0.05455  0  0.099628  0.067854  0  0.983731  0
H  H40  1  0.69493831  0.87419336  0.59484043  1  0.044783  0  0.094316  0.089368  0  0.988598  0
H  H41  1  0.68054611  0.78016687  0.60653593  1  -0.001715  0  0.09117  0.083318  0  0.986431  0
H  H42  1  0.67682433  0.83438639  0.72060881  1  0.012317  0  0.087459  0.113119  0  1.001139  0
H  H43  1  0.59905723  0.82915963  0.64725437  1  0.00691  0  0.089634  0.118658  0  0.997283  0
H  H44  1  0.69058715  0.92849072  0.70820203  1  0.006831  0  0.085389  0.110317  0  1.008517  0
H  H45  1  0.26936628  0.19627228  0.46627281  1  0.050854  0  0.094563  0.083586  0  1.026798  0
H  H46  1  0.21230252  0.22400751  0.40324015  1  0.040135  0  0.10408  0.105443  0  0.995475  0
H  H47  1  0.30371250  0.22771029  0.40563702  1  0.079247  0  0.114569  0.122933  0  0.963024  0
H  H48  1  0.57756845  0.12057015  0.48664088  1  0.038389  0  0.096538  0.093311  0  1.014668  0
H  H49  1  0.77515636  0.75355032  0.46765237  1  0.001601  0  0.092417  0.043958  0  1.034805  0
H  H50  1  0.80425849  0.73090519  0.54446526  1  0.079119  0  0.101152  0.066295  0  1.005025  0
H  H51  1  0.67791495  0.59967568  0.39101569  1  0.019486  0  0.09356  0.085681  0  0.975912  0
H  H52  1  0.70363867  0.57497387  0.46590432  1  0.032442  0  0.098407  0.094433  0  0.971779  0
H  H53  1  0.64841827  0.65548822  0.51704241  1  0.015992  0  0.084578  0.106708  0  1.020529  0
H  H54  1  0.57102851  0.57544745  0.43108452  1  0.033234  0  0.089717  0.117048  0  0.998062  0
H  H55  1  0.62478768  0.68332363  0.44317503  1  0.025201  0  0.090416  0.119671  0  0.9916  0
H  H56  1  0.70068925  0.78616211  0.14117223  1  0.091524  0  0.100184  0.102824  0  1.021683  0
H  H57  1  0.80937035  0.85267401  0.17036221  1  0.030151  0  0.092817  0.088249  0  1.027753  0
H  H58  1  0.74116528  0.88946639  0.13904775  1  0.063936  0  0.111432  0.119972  0  0.964563  0
H  H59  1  0.67096694  0.09239371  0.45342006  1  0.028325  0  0.096646  0.094964  0  1.008583  0
H  H60  1  0.10345160  0.35989139  0.47644692  1  0.054523  0  0.097681  0.060225  0  1.000427  0
H  H61  1  0.11930436  0.28345350  0.43120793  1  0.024173  0  0.095302  0.056343  0  0.983147  0
H  H62  1  0.25678915  0.45843392  0.55177028  1  0.021015  0  0.096073  0.091845  0  0.963831  0
H  H63  1  0.27294555  0.38344325  0.50697880  1  0.025085  0  0.089709  0.079517  0  0.978311  0
H  H64  1  0.20096723  0.39278786  0.39098931  1  0.020749  0  0.0858  0.10927  0  1.005416  0
H  H65  1  0.28798114  0.49361168  0.45560912  1  0.028296  0  0.091514  0.120501  0  0.996234  0
H  H66  1  0.18656359  0.46911548  0.43694173  1  0.013252  0  0.089074  0.116004  0  1.004256  0
H  H67  1  0.86312894  0.33387636  0.37356852  1  0.042523  0  0.102203  0.070047  0  0.959002  0
H  H68  1  0.96604171  0.40495066  0.44356135  1  0.05773  0  0.092673  0.053072  0  1.030879  0
H  H69  1  0.88676269  0.43170050  0.31042622  1  0.024153  0  0.091583  0.08592  0  0.971505  0
H  H70  1  0.74643619  0.03038307  0.63368300  1  0.009113  0  0.095663  0.094968  0  1.020526  0
H  H71  1  0.98877425  0.50325213  0.38098327  1  0.030308  0  0.09088  0.085811  0  0.977241  0
H  H72  1  0.02311714  0.38902639  0.35816099  1  0.018185  0  0.080171  0.099863  0  1.029118  0
H  H73  1  0.98985519  0.41019359  0.28169073  1  0.027471  0  0.087811  0.114433  0  1.000523  0
H  H74  1  0.92116007  0.31790308  0.28681225  1  0.030344  0  0.084796  0.107516  0  1.004267  0
H  H75  1  0.97733372  0.71651908  0.88701959  1  0.027813  0  0.097413  0.094256  0  0.991237  0
H  H76  1  0.08232309  0.77477933  0.95681232  1  0.063815  0  0.097885  0.098072  0  1.009256  0
H  H77  1  0.05016302  0.69127703  0.87653060  1  0.059425  0  0.104423  0.107999  0  0.974793  0
H  H78  1  0.26815696  0.99781874  0.21355128  1  0.067041  0  0.102174  0.101162  0  0.981758  0
H  H79  1  0.26259561  0.08833385  0.20600562  1  0.037703  0  0.09977  0.096776  0  0.985961  0
H  H80  1  0.29273936  0.03785789  0.15157267  1  0.055325  0  0.114879  0.121865  0  0.9642  0
H  H81  1  0.65477254  0.06135064  0.66822756  1  0.038324  0  0.096585  0.092645  0  1.013332  0
H  H82  1  0.97370221  0.75903151  0.64091013  1  0.059214  0  0.096794  0.068286  0  1.014129  0
H  H83  1  0.90891691  0.78102509  0.66882636  1  0.028895  0  0.089911  0.048525  0  1.027435  0
H  H84  1  0.96280966  0.65673534  0.69840630  1  0.017286  0  0.090942  0.088444  0  0.97927  0
H  H85  1  0.90201698  0.68089543  0.73036858  1  0.038308  0  0.087279  0.079148  0  0.985761  0
H  H86  1  0.79041895  0.62404710  0.60473289  1  0.01226  0  0.078709  0.098897  0  1.018838  0
H  H87  1  0.81186019  0.54524722  0.61909936  1  0.029898  0  0.085729  0.112186  0  1.001706  0
H  H88  1  0.85162566  0.60143106  0.57172818  1  0.040226  0  0.084493  0.115766  0  1.022997  0
H  H89  1  0.51538698  0.99267546  0.62873791  1  0.040804  0  0.097264  0.09491  0  1.012507  0
C  C90  1  0.91795354  0.92383494  0.66197706  1  0.973665  0  0.171042  0.265491  0  4.126086  0
C  C91  1  0.91583995  0.75316201  0.49741515  1  1.007061  0  0.187062  0.299587  0  4.080694  0
C  C92  1  0.77253599  0.84958068  0.28100544  1  1.001625  0  0.181222  0.285612  0  4.084164  0
C  C93  1  0.07862295  0.24005217  0.52253540  1  1.018632  0  0.184967  0.303489  0  4.068593  0
C  C94  1  0.26678013  0.03131751  0.61455071  1  0.399009  0  0.009855  -0.051861  0  3.970089  0
C  C95  1  0.71678080  0.76793548  0.27316504  1  0.022162  0  -0.046045  -0.156392  0  4.090186  0
C  C96  1  0.30795818  0.05442874  0.57483381  1  0.020361  0  -0.036552  -0.033566  0  4.089908  0
C  C97  1  0.98677829  0.74707725  0.51843111  1  0.034046  0  -0.045089  -0.150848  0  4.078903  0
C  C98  1  0.06041102  0.98230944  0.28950047  1  0.055889  0  -0.040889  -0.142149  0  4.027307  0
C  C99  1  0.61561761  0.10225772  0.52004281  1  -0.049069  0  -0.095729  -0.128219  0  4.016664  0
C  C100  1  0.66792806  0.08541302  0.50078776  1  -0.021809  0  -0.099303  -0.136876  0  4.005007  0
C  C101  1  0.01341326  0.24078875  0.53284389  1  0.00156  0  -0.033805  -0.132953  0  4.03257  0
C  C102  1  0.71333923  0.05504848  0.53889669  1  -0.004427  0  -0.009825  0.094583  0  4.048368  0
C  C103  1  0.70962694  0.05042353  0.60115439  1  -0.028135  0  -0.09964  -0.137711  0  3.997154  0
C  C104  1  0.65732338  0.06737394  0.62045497  1  -0.009078  0  -0.097685  -0.133876  0  4.02186  0
C  C105  1  0.13798156  0.17598167  0.68589882  1  0.351036  0  0.009112  -0.038096  0  3.963745  0
C  C106  1  0.60624890  0.09012572  0.57858387  1  -0.031792  0  -0.019502  0.051626  0  4.022119  0
C  C107  1  0.49451345  0.03379636  0.61276034  1  -0.069179  0  -0.094474  -0.128305  0  4.00253  0
C  C108  1  0.42146912  0.02340331  0.61101530  1  -0.052336  0  -0.097269  -0.135479  0  4.008225  0
C  C109  1  0.38913013  0.07044841  0.58539515  1  -0.006338  0  -0.014536  0.080352  0  4.052786  0
C  C110  1  0.43626452  0.13263581  0.56671036  1  -0.025351  0  -0.099853  -0.136591  0  4.013519  0
C  C111  1  0.50920151  0.14299833  0.56851807  1  -0.106028  0  -0.096814  -0.132543  0  4.01743  0
C  C112  1  0.20004063  0.26172161  0.71205289  1  0.029806  0  -0.037266  -0.051015  0  4.084197  0
C  C113  1  0.53847317  0.09151082  0.58907350  1  0.032133  0  -0.012166  0.064819  0  4.014177  0
C  C114  1  0.07605615  0.46935312  0.59725015  1  -0.083735  0  -0.097641  -0.140278  0  4.014443  0
C  C115  1  0.08119857  0.39760259  0.59277710  1  -0.040288  0  -0.09967  -0.140233  0  4.00022  0
C  C116  1  0.00903184  0.31577114  0.55714808  1  -0.031707  0  -0.011771  0.097417  0  4.042095  0
C  C117  1  0.74724338  0.00355114  0.44172465  1  0.459988  0  -0.003864  -0.059323  0  4.044628  0
C  C118  1  0.93251438  0.31021279  0.53781768  1  -0.002156  0  -0.092556  -0.132286  0  3.975351  0
C  C119  1  0.92763124  0.38220406  0.54340542  1  -0.050018  0  -0.090885  -0.126057  0  3.996743  0
C  C120  1  0.99891376  0.46226675  0.56760595  1  0.00898  0  -0.014974  0.068347  0  4.031057  0
C  C121  1  0.93748935  0.52264934  0.48859548  1  0.487119  0  0.079977  0.214587  0  4.030711  0
C  C122  1  0.93548510  0.59159966  0.47657858  1  -0.123933  0  -0.102494  -0.249383  0  3.971898  0
C  C123  1  0.75596034  0.02288183  0.51116714  1  -0.02558  0  -0.047484  -0.063254  0  4.104546  0
C  C124  1  0.99151951  0.67479476  0.52860250  1  0.071995  0  -0.010342  0.118849  0  4.067232  0
C  C125  1  0.05029924  0.68712630  0.59367349  1  -0.051745  0  -0.102743  -0.159495  0  4.013864  0
C  C126  1  0.05088310  0.61816610  0.60624471  1  0.014494  0  -0.094455  -0.115155  0  4.037008  0
C  C127  1  0.99433459  0.53427572  0.55503868  1  -0.049275  0  -0.021475  -0.047399  0  3.998728  0
C  C128  1  0.63557072  0.70191249  0.21431098  1  -0.002042  0  -0.006375  0.109332  0  4.045663  0
C  C129  1  0.22882602  0.26441755  0.66180576  1  0.425877  0  0.013414  -0.026901  0  3.974842  0
C  C130  1  0.58339053  0.72260642  0.17041284  1  -0.060209  0  -0.094516  -0.133725  0  3.990649  0
C  C131  1  0.50842878  0.65981936  0.11160825  1  -0.047205  0  -0.089196  -0.142731  0  3.982146  0
C  C132  1  0.48265815  0.57374819  0.09564099  1  0.340261  0  0.076913  0.160765  0  4.07315  0
C  C133  1  0.53083659  0.55228600  0.14208715  1  -0.023939  0  -0.086301  -0.140127  0  3.991617  0
C  C134  1  0.75740727  0.76562427  0.33863031  1  0.455846  0  0.006714  -0.030622  0  4.009233  0
C  C135  1  0.60673355  0.61549927  0.20009862  1  -0.023149  0  -0.098168  -0.137568  0  3.995012  0
C  C136  1  0.28222260  0.37409379  0.90718786  1  -0.020904  0  -0.086585  -0.136343  0  3.973726  0
C  C137  1  0.23652650  0.31048811  0.83956160  1  -0.088065  0  -0.091529  -0.125918  0  3.977929  0
C  C138  1  0.32727996  0.45953775  0.91706958  1  0.346083  0  0.078922  0.162718  0  4.067229  0
C  C139  1  0.23524304  0.32960152  0.78017200  1  0.052571  0  -0.003097  0.099453  0  4.027572  0
C  C140  1  0.27466296  0.41549371  0.79017230  1  0.002355  0  -0.09651  -0.133786  0  3.99678  0
C  C141  1  0.80609650  0.99330863  0.54212071  1  0.355997  0  -0.008065  -0.068141  0  3.995686  0
C  C142  1  0.31938190  0.47972545  0.85771351  1  -0.073752  0  -0.086343  -0.141175  0  3.987839  0
C  C143  1  0.98532457  0.92019722  0.78790772  1  0.027867  0  -0.020684  0.014349  0  4.05257  0
C  C144  1  0.01428166  0.86496196  0.79773079  1  0.485027  0  0.069726  0.100121  0  4.02847  0
C  C145  1  0.25227530  0.06027162  0.51983771  1  0.356989  0  -0.004025  -0.072094  0  3.999752  0
C  C146  1  0.03339122  0.85076827  0.86058108  1  0.534284  0  0.082548  0.092947  0  4.03451  0
C  C147  1  0.01892857  0.88935972  0.91292806  1  0.350314  0  0.067868  0.057499  0  4.082499  0
C  C148  1  0.98443471  0.93939844  0.90032797  1  -0.017972  0  -0.102774  -0.155741  0  4.046729  0
C  C149  1  0.96933417  0.95590331  0.83976750  1  -0.069691  0  -0.112566  -0.154907  0  4.086062  0
C  C150  1  0.95896636  0.86621585  0.09359698  1  0.007024  0  -0.088026  -0.125327  0  4.037303  0
C  C151  1  0.97159018  0.88817359  0.16226998  1  -0.078535  0  -0.112612  -0.166148  0  4.030984  0
C  C152  1  0.02474272  0.89632833  0.07750819  1  0.352519  0  0.072852  0.058857  0  4.04716  0
C  C153  1  0.95145652  0.15419892  0.50209451  1  0.448904  0  0.017029  -0.005829  0  3.922297  0
C  C154  1  0.05197236  0.94712625  0.21964510  1  0.074309  0  -0.005396  0.143213  0  4.043898  0
C  C155  1  0.11910707  0.97417051  0.20520904  1  0.017269  0  -0.120007  -0.289019  0  3.970796  0
C  C156  1  0.05069829  0.82961650  0.53755093  1  0.40809  0  0.001844  -0.041082  0  4.002147  0
C  C157  1  0.10700230  0.94740542  0.13560229  1  0.478901  0  0.093413  0.209949  0  4.001676  0
C  C158  1  0.05297802  0.98262289  0.71889468  1  0.406516  0  0.006478  -0.040164  0  4.028144  0
C  C159  1  0.98243403  0.94373330  0.72736392  1  0.047418  0  -0.053375  -0.158242  0  4.111101  0
C  C160  1  0.79996605  0.89112716  0.68029995  1  0.409673  0  -0.064622  0.041768  0  3.878117  0
C  C161  1  0.70711561  0.84834929  0.63528523  1  0.01215  0  -0.168199  -0.134239  0  3.981511  0
C  C162  1  0.66623875  0.86075298  0.68037961  1  -0.002212  0  -0.241843  -0.353271  0  3.980561  0
C  C163  1  0.24913218  0.19414998  0.41209592  1  0.384458  0  -0.131099  -0.168876  0  3.909771  0
C  C164  1  0.78077702  0.70524660  0.48667730  1  0.38315  0  -0.062699  0.036975  0  3.883699  0
C  C165  1  0.69688244  0.62308946  0.44807946  1  0.031979  0  -0.163719  -0.13019  0  3.984702  0
C  C166  1  0.63171202  0.63505013  0.46054327  1  -0.058722  0  -0.240957  -0.350671  0  3.972652  0
C  C167  1  0.99620823  0.95553267  0.30737814  1  0.37406  0  0.014983  -0.014488  0  3.99078  0
C  C168  1  0.75386927  0.85187945  0.16804060  1  0.364217  0  -0.134385  -0.166247  0  3.898066  0
C  C169  1  0.14627956  0.33696680  0.48162086  1  0.393122  0  -0.067869  0.033485  0  3.890383  0
C  C170  1  0.23118381  0.40775842  0.50024889  1  0.000509  0  -0.167202  -0.128342  0  3.996218  0
C  C171  1  0.22649881  0.44275094  0.44282800  1  -0.037727  0  -0.240505  -0.354167  0  3.976875  0
C  C172  1  0.91357367  0.40110206  0.40195255  1  0.40149  0  -0.069692  0.036576  0  3.902536  0
C  C173  1  0.93951980  0.43550117  0.35157432  1  -0.009069  0  -0.171823  -0.140928  0  3.990155  0
C  C174  1  0.97006843  0.38555262  0.31767416  1  -0.081358  0  -0.24222  -0.345157  0  3.986314  0
C  C175  1  0.04239456  0.74271674  0.89917276  1  0.411586  0  -0.137441  -0.169639  0  3.918837  0
C  C176  1  0.25294970  0.02723763  0.17664937  1  0.406608  0  -0.130728  -0.170904  0  3.9232  0
C  C177  1  0.95442222  0.76139528  0.68210771  1  0.405763  0  -0.071364  0.036808  0  3.872259  0
C  C178  1  0.12551538  0.05779170  0.35033252  1  1.024443  0  0.193627  0.312337  0  4.047219  0
C  C179  1  0.91651190  0.67517540  0.68612505  1  0.000275  0  -0.171709  -0.136117  0  3.98228  0
C  C180  1  0.83838371  0.60777640  0.61658312  1  -0.09064  0  -0.245421  -0.347491  0  3.969579  0
N  N181  1  0.94818016  0.94979099  0.61907319  1  -0.766908  0  -0.277494  -0.303694  0  3.436918  0
N  N182  1  0.38770909  0.52784636  0.98298792  1  -0.498993  0  -0.162558  -0.153333  0  3.305413  0
N  N183  1  0.04701881  0.88566942  0.98005635  1  -0.434656  0  -0.149912  -0.105268  0  3.280845  0
N  N184  1  0.05773915  0.16059564  0.48943090  1  -0.797631  0  -0.292599  -0.309028  0  3.566923  0
N  N185  1  0.99894025  0.88215165  0.00620401  1  -0.527586  0  -0.161476  -0.145431  0  3.381576  0
N  N186  1  0.13112534  0.13122949  0.62537519  1  -0.809496  0  -0.285829  -0.207818  0  3.577483  0
N  N187  1  0.78740320  0.96522016  0.43142343  1  -0.707993  0  -0.26498  -0.229827  0  3.322801  0
N  N188  1  0.18835818  0.18614580  0.61116074  1  -0.813306  0  -0.282372  -0.197725  0  3.569956  0
N  N189  1  0.82374268  0.95899167  0.49377068  1  -0.810432  0  -0.293467  -0.200274  0  3.705701  0
N  N190  1  0.97878854  0.10695302  0.47653470  1  -0.825445  0  -0.301313  -0.208111  0  3.673282  0
N  N191  1  0.03222584  0.98553345  0.65484984  1  -0.825238  0  -0.287748  -0.17191  0  3.634886  0
N  N192  1  0.18395508  0.04350005  0.52689868  1  -0.775015  0  -0.285643  -0.217904  0  3.549021  0
N  N193  1  0.82955254  0.83911073  0.38240232  1  -0.784982  0  -0.264516  -0.205423  0  3.466666  0
N  N194  1  0.02064815  0.88099493  0.52974375  1  -0.783572  0  -0.289026  -0.203396  0  3.570191  0
N  N195  1  0.01939256  0.01043528  0.37098625  1  -0.836107  0  -0.291899  -0.214313  0  3.597107  0
N  N196  1  0.10102040  0.07503319  0.39837943  1  -0.808376  0  -0.29312  -0.319431  0  3.517365  0
N  N197  1  0.93704736  0.83327072  0.50586404  1  -0.793486  0  -0.292545  -0.281228  0  3.609161  0
N  N198  1  0.83946707  0.88954300  0.34551531  1  -0.798578  0  -0.302491  -0.286016  0  3.714034  0
N  N199  1  0.19370816  0.02622677  0.58589381  1  -0.790206  0  -0.272973  -0.160908  0  3.586671  0
N  N200  1  0.41452002  0.50555091  0.03237658  1  -0.498788  0  -0.166398  -0.158977  0  3.302908  0
O  O201  1  0.83393718  0.87824720  0.63359603  1  -1.092389  0  -0.192829  -0.245431  0  2.574074  0
O  O202  1  0.20246596  0.10857381  0.35975638  1  -1.079229  0  -0.180238  -0.168149  0  2.554723  0
O  O203  1  0.83732111  0.68752896  0.47111424  1  -1.087896  0  -0.181256  -0.221536  0  2.552988  0
O  O204  1  0.76848791  0.89277718  0.23846405  1  -1.0919  0  -0.204137  -0.206689  0  2.54282  0
O  O205  1  0.15349033  0.30565199  0.53759209  1  -1.090057  0  -0.19743  -0.262384  0  2.534498  0
O  O206  1  0.88050324  0.44319710  0.43342899  1  -1.074333  0  -0.212595  -0.255635  0  2.495302  0
O  O207  1  0.06471290  0.79966575  0.86513817  1  -1.061493  0  -0.192134  -0.148338  0  2.588817  0
O  O208  1  0.17022671  0.97149146  0.11966467  1  -1.05642  0  -0.176875  -0.144424  0  2.609369  0
O  O209  1  0.02849522  0.82646771  0.74734507  1  -1.066334  0  -0.208177  -0.230165  0  2.525023  0
