# generated using pymatgen
data_ZnH11C15N2O5
_symmetry_space_group_name_H-M   'P 1'
_cell_length_a   7.68807345
_cell_length_b   8.84478073
_cell_length_c   10.75680923
_cell_angle_alpha   80.13540960
_cell_angle_beta   69.66557780
_cell_angle_gamma   78.18957121
_symmetry_Int_Tables_number   1
_chemical_formula_structural   ZnH11C15N2O5
_chemical_formula_sum   'Zn2 H22 C30 N4 O10'
_cell_volume   667.33953559
_cell_formula_units_Z   2
loop_
 _symmetry_equiv_pos_site_id
 _symmetry_equiv_pos_as_xyz
  1  'x, y, z'
loop_
 _atom_site_type_symbol
 _atom_site_label
 _atom_site_symmetry_multiplicity
 _atom_site_fract_x
 _atom_site_fract_y
 _atom_site_fract_z
 _atom_site_occupancy
 _atom_site_hle17_bader_spin_density
 _atom_site_hle17_ddec_charge
 _atom_site_hle17_ddec_spin_density
 _atom_site_hle17_ddec_sum_bond_order
 _atom_site_hle17_magmom
 _atom_site_hse06_10hf_bader_spin_density
 _atom_site_hse06_10hf_ddec_charge
 _atom_site_hse06_10hf_ddec_spin_density
 _atom_site_hse06_10hf_ddec_sum_bond_order
 _atom_site_hse06_10hf_magmom
 _atom_site_hse06_bader_spin_density
 _atom_site_hse06_ddec_charge
 _atom_site_hse06_ddec_spin_density
 _atom_site_hse06_ddec_sum_bond_order
 _atom_site_hse06_magmom
 _atom_site_pbe_bader_spin_density
 _atom_site_pbe_cm5_charge
 _atom_site_pbe_ddec_charge
 _atom_site_pbe_ddec_spin_density
 _atom_site_pbe_ddec_sum_bond_order
 _atom_site_pbe_magmom
Zn  Zn0  1  0.31357145  0.37670156  0.22126848  1  0  1.057823  0  1.803034  0  0  0.870219  0  2.269234  0  0  0.918503  0  2.211641  0  0  0.688516  0.83599  0  2.309397  0
Zn  Zn1  1  0.68643002  0.62329646  0.77873224  1  0  1.057811  0  1.803013  0  0  0.870207  0  2.269225  0  0  0.918484  0  2.211634  0  0  0.688494  0.835972  0  2.309382  0
H  H2  1  0.47053949  0.69760264  0.12339304  1  0  0.089177  0  0.932587  0  0  0.09888  0  0.991747  0  0  0.101301  0  0.990103  0  0  0.119909  0.09686  0  0.993352  0
H  H3  1  0.52946014  0.30239771  0.87660595  1  0  0.08915  0  0.932625  0  0  0.098853  0  0.991783  0  0  0.101274  0  0.990138  0  0  0.119906  0.096836  0  0.99339  0
H  H4  1  0.50465497  0.91514219  0.23337298  1  0  0.108156  0  0.964929  0  0  0.116013  0  1.027931  0  0  0.118282  0  1.028177  0  0  0.106983  0.114589  0  1.027945  0
H  H5  1  0.49534028  0.08485931  0.76662787  1  0  0.108165  0  0.964904  0  0  0.116017  0  1.027917  0  0  0.118287  0  1.02816  0  0  0.106994  0.114591  0  1.027932  0
H  H6  1  0.40753072  0.88890068  0.48341765  1  0  0.114506  0  0.935896  0  0  0.127054  0  0.991423  0  0  0.129902  0  0.989433  0  0  0.113559  0.124045  0  0.99417  0
H  H7  1  0.59246476  0.11109967  0.51658238  1  0  0.114485  0  0.935828  0  0  0.127002  0  0.991403  0  0  0.12985  0  0.989413  0  0  0.113529  0.123986  0  0.994151  0
H  H8  1  0.26781055  0.66042950  0.61376647  1  0  0.12417  0  0.952818  0  0  0.130842  0  1.01627  0  0  0.134078  0  1.015478  0  0  0.110934  0.128301  0  1.017113  0
H  H9  1  0.73218608  0.33957200  0.38623404  1  0  0.124156  0  0.952807  0  0  0.130817  0  1.016279  0  0  0.134052  0  1.01549  0  0  0.110929  0.128275  0  1.017121  0
H  H10  1  0.14956315  0.46392055  0.70875872  1  0  0.121978  0  0.969427  0  0  0.130045  0  1.030002  0  0  0.134071  0  1.027629  0  0  0.109918  0.127071  0  1.032182  0
H  H11  1  0.85043325  0.53608211  0.29124354  1  0  0.121881  0  0.969447  0  0  0.130002  0  1.029971  0  0  0.134027  0  1.027599  0  0  0.109882  0.127028  0  1.032155  0
H  H12  1  0.02807878  0.21655630  0.80766291  1  0  0.09479  0  0.967993  0  0  0.103236  0  1.031901  0  0  0.104204  0  1.033031  0  0  0.106029  0.102858  0  1.030703  0
H  H13  1  0.97191762  0.78344635  0.19233935  1  0  0.094817  0  0.967994  0  0  0.103255  0  1.03191  0  0  0.104224  0  1.03304  0  0  0.106042  0.10288  0  1.030709  0
H  H14  1  0.02925531  0.02870113  0.65675614  1  0  0.1058  0  0.958875  0  0  0.11412  0  1.022041  0  0  0.116583  0  1.02177  0  0  0.107776  0.111972  0  1.023347  0
H  H15  1  0.97073971  0.97130152  0.34324647  1  0  0.105772  0  0.958871  0  0  0.114085  0  1.022058  0  0  0.116549  0  1.021785  0  0  0.107767  0.11194  0  1.023361  0
H  H16  1  0.14158478  0.10710930  0.40775766  1  0  0.079071  0  0.959674  0  0  0.087839  0  1.02459  0  0  0.089873  0  1.023384  0  0  0.11609  0.086428  0  1.025129  0
H  H17  1  0.85841646  0.89288987  0.59224481  1  0  0.079088  0  0.959567  0  0  0.087853  0  1.024489  0  0  0.089887  0  1.023284  0  0  0.116091  0.086442  0  1.025028  0
H  H18  1  0.68250810  0.98171671  0.00022686  1  0  0.106626  0  0.941443  0  0  0.117886  0  1.00157  0  0  0.12194  0  0.998594  0  0  0.106567  0.114877  0  1.004078  0
H  H19  1  0.31749775  0.01828018  0.99977014  1  0  0.106653  0  0.941395  0  0  0.117885  0  1.001544  0  0  0.121932  0  0.998593  0  0  0.106565  0.114876  0  1.004046  0
H  H20  1  0.28850127  0.59837165  0.01339758  1  0  0.432997  0  0.872838  0  0  0.397864  0  0.942789  0  0  0.409023  0  0.926735  0  0  0.290853  0.39003  0  0.95403  0
H  H21  1  0.71149881  0.40162638  0.98660255  1  0  0.43316  0  0.872628  0  0  0.397929  0  0.942709  0  0  0.409088  0  0.926656  0  0  0.290883  0.39009  0  0.953959  0
H  H22  1  0.11012275  0.50196357  0.07608584  1  0  0.428713  0  0.86491  0  0  0.397746  0  0.932605  0  0  0.408215  0  0.917283  0  0  0.297995  0.390616  0  0.942951  0
H  H23  1  0.88987639  0.49803210  0.92391950  1  0  0.428838  0  0.864838  0  0  0.39786  0  0.932477  0  0  0.408329  0  0.917155  0  0  0.298041  0.390729  0  0.942824  0
C  C24  1  0.42799726  0.69372718  0.23173910  1  0  0.14479  0  3.682568  0  0  0.116268  0  3.928453  0  0  0.122064  0  3.947538  0  0  0.054308  0.112661  0  3.917137  0
C  C25  1  0.57199937  0.30627432  0.76826140  1  0  0.144811  0  3.682693  0  0  0.116278  0  3.928577  0  0  0.122075  0  3.94766  0  0  0.05432  0.112664  0  3.917269  0
C  C26  1  0.44621286  0.81377755  0.29259077  1  0  -0.11323  0  3.717932  0  0  -0.125568  0  3.970411  0  0  -0.132429  0  3.993107  0  0  -0.07947  -0.123589  0  3.956743  0
C  C27  1  0.55377938  0.18622510  0.70741066  1  0  -0.11324  0  3.717996  0  0  -0.125572  0  3.970461  0  0  -0.132432  0  3.993154  0  0  -0.079483  -0.123593  0  3.956792  0
C  C28  1  0.39044198  0.80034089  0.43152475  1  0  0.001553  0  3.698898  0  0  -0.020244  0  3.951809  0  0  -0.016733  0  3.969931  0  0  -0.063295  -0.021282  0  3.938772  0
C  C29  1  0.60955327  0.19966061  0.56847517  1  0  0.001611  0  3.698829  0  0  -0.020143  0  3.951712  0  0  -0.016632  0  3.969834  0  0  -0.063273  -0.021179  0  3.93868  0
C  C30  1  0.31299200  0.67070144  0.50523377  1  0  -0.13929  0  3.67568  0  0  -0.159589  0  3.929302  0  0  -0.166311  0  3.94998  0  0  -0.0772  -0.152189  0  3.912566  0
C  C31  1  0.68700325  0.32930006  0.49476615  1  0  -0.139303  0  3.675634  0  0  -0.15962  0  3.92928  0  0  -0.166336  0  3.949965  0  0  -0.077213  -0.152224  0  3.912538  0
C  C32  1  0.29670962  0.55552178  0.43709769  1  0  0.170683  0  3.769878  0  0  0.167237  0  4.009031  0  0  0.173072  0  4.030891  0  0  0.119378  0.163459  0  3.993736  0
C  C33  1  0.70328884  0.44447739  0.56290361  1  0  0.170641  0  3.769845  0  0  0.167221  0  4.008957  0  0  0.173034  0  4.030844  0  0  0.119421  0.163448  0  3.993654  0
C  C34  1  0.21507078  0.41366855  0.50559990  1  0  0.172806  0  3.766806  0  0  0.166767  0  4.008044  0  0  0.173412  0  4.029173  0  0  0.118944  0.162623  0  3.99342  0
C  C35  1  0.78492885  0.58633179  0.49440189  1  0  0.172924  0  3.766726  0  0  0.166881  0  4.007946  0  0  0.173533  0  4.029074  0  0  0.118985  0.162734  0  3.993327  0
C  C36  1  0.14925854  0.38147295  0.64430656  1  0  -0.136943  0  3.669977  0  0  -0.155398  0  3.91889  0  0  -0.162458  0  3.938701  0  0  -0.077235  -0.15105  0  3.906329  0
C  C37  1  0.85074086  0.61852855  0.35569512  1  0  -0.136896  0  3.669986  0  0  -0.155391  0  3.918897  0  0  -0.162452  0  3.938707  0  0  -0.077239  -0.15105  0  3.90635  0
C  C38  1  0.08077406  0.24251443  0.69984940  1  0  0.024211  0  3.689076  0  0  0.003825  0  3.939132  0  0  0.007642  0  3.95846  0  0  -0.059773  0.001612  0  3.925657  0
C  C39  1  0.91922534  0.75748707  0.30015229  1  0  0.024193  0  3.689124  0  0  0.003815  0  3.939174  0  0  0.007632  0  3.958502  0  0  -0.059761  0.001602  0  3.925706  0
C  C40  1  0.07904824  0.13918383  0.61625355  1  0  -0.109615  0  3.713019  0  0  -0.123716  0  3.968488  0  0  -0.130312  0  3.990093  0  0  -0.077403  -0.119988  0  3.954905  0
C  C41  1  0.92095000  0.86081650  0.38374951  1  0  -0.109669  0  3.713047  0  0  -0.123767  0  3.968496  0  0  -0.130365  0  3.990102  0  0  -0.077446  -0.120041  0  3.954916  0
C  C42  1  0.14182987  0.18081316  0.47909800  1  0  0.139187  0  3.703098  0  0  0.106764  0  3.955178  0  0  0.114009  0  3.972905  0  0  0.05229  0.102876  0  3.942267  0
C  C43  1  0.85817114  0.81918718  0.52090437  1  0  0.139273  0  3.70301  0  0  0.106854  0  3.955075  0  0  0.114099  0  3.972801  0  0  0.052333  0.102961  0  3.942165  0
C  C44  1  0.66883347  0.18763750  0.16297384  1  0  0.66352  0  3.900057  0  0  0.606539  0  4.207303  0  0  0.640402  0  4.197771  0  0  0.212959  0.583624  0  4.213073  0
C  C45  1  0.33116800  0.81236052  0.83702688  1  0  0.663478  0  3.900045  0  0  0.606628  0  4.207141  0  0  0.640488  0  4.197604  0  0  0.212928  0.583705  0  4.21293  0
C  C46  1  0.84298144  0.09864589  0.07343200  1  0  -0.056695  0  3.727435  0  0  -0.044925  0  3.970192  0  0  -0.047005  0  3.987081  0  0  -0.007953  -0.043554  0  3.958556  0
C  C47  1  0.15702419  0.90135217  0.92656490  1  0  -0.056678  0  3.727495  0  0  -0.044958  0  3.970251  0  0  -0.047032  0  3.987144  0  0  -0.007845  -0.043588  0  3.958618  0
C  C48  1  0.02400833  0.10848908  0.07184778  1  0  -0.064205  0  3.728861  0  0  -0.051921  0  3.967781  0  0  -0.055742  0  3.985963  0  0  -0.012998  -0.049441  0  3.955321  0
C  C49  1  0.97599452  0.89150895  0.92815166  1  0  -0.064134  0  3.72894  0  0  -0.051854  0  3.967885  0  0  -0.055691  0  3.98609  0  0  -0.013037  -0.049373  0  3.955421  0
C  C50  1  0.82157348  0.99142098  0.00036811  1  0  -0.099059  0  3.714959  0  0  -0.131952  0  3.969318  0  0  -0.131784  0  3.985982  0  0  -0.083392  -0.132313  0  3.958298  0
C  C51  1  0.17843099  0.00857589  0.99963110  1  0  -0.099066  0  3.714854  0  0  -0.131927  0  3.969237  0  0  -0.131771  0  3.985895  0  0  -0.083389  -0.132279  0  3.958213  0
C  C52  1  0.05641649  0.23437499  0.13566734  1  0  0.639975  0  3.922721  0  0  0.590816  0  4.217065  0  0  0.624153  0  4.209597  0  0  0.203589  0.568369  0  4.221608  0
C  C53  1  0.94358752  0.76562421  0.86433072  1  0  0.639936  0  3.922761  0  0  0.590773  0  4.21711  0  0  0.624113  0  4.209644  0  0  0.20356  0.568336  0  4.221638  0
N  N54  1  0.35681092  0.56738321  0.30262140  1  0  -0.356872  0  3.264984  0  0  -0.283442  0  3.526269  0  0  -0.301353  0  3.542631  0  0  -0.318472  -0.273332  0  3.517042  0
N  N55  1  0.64318616  0.43261597  0.69737931  1  0  -0.356856  0  3.264979  0  0  -0.283412  0  3.52624  0  0  -0.301314  0  3.542606  0  0  -0.318486  -0.273298  0  3.517006  0
N  N56  1  0.20757105  0.31455247  0.42543264  1  0  -0.366808  0  3.31439  0  0  -0.291423  0  3.588147  0  0  -0.309961  0  3.601829  0  0  -0.325111  -0.277868  0  3.577388  0
N  N57  1  0.79243019  0.68544671  0.57456891  1  0  -0.366877  0  3.314461  0  0  -0.291499  0  3.588215  0  0  -0.310035  0  3.601895  0  0  -0.325121  -0.277934  0  3.577447  0
O  O58  1  0.20941501  0.54009230  0.09487684  1  0  -0.849881  0  1.980163  0  0  -0.783532  0  2.212753  0  0  -0.805961  0  2.176866  0  0  -0.580447  -0.767583  0  2.237304  0
O  O59  1  0.79058461  0.45990802  0.90512773  1  0  -0.850127  0  1.979981  0  0  -0.783685  0  2.212606  0  0  -0.806114  0  2.176722  0  0  -0.580506  -0.767732  0  2.237161  0
O  O60  1  0.57337528  0.29702740  0.10359942  1  0  -0.667458  0  2.096164  0  0  -0.583034  0  2.357301  0  0  -0.612505  0  2.340399  0  0  -0.323211  -0.562054  0  2.368318  0
O  O61  1  0.42662526  0.70296832  0.89639720  1  0  -0.667352  0  2.096143  0  0  -0.583039  0  2.357225  0  0  -0.612522  0  2.340367  0  0  -0.323227  -0.56206  0  2.368249  0
O  O62  1  0.61871182  0.14617728  0.28477439  1  0  -0.58402  0  1.907531  0  0  -0.540574  0  2.133761  0  0  -0.563405  0  2.127652  0  0  -0.303225  -0.524248  0  2.137747  0
O  O63  1  0.38129752  0.85382311  0.71522034  1  0  -0.584063  0  1.907377  0  0  -0.540633  0  2.133511  0  0  -0.563463  0  2.127404  0  0  -0.303209  -0.524309  0  2.137509  0
O  O64  1  0.94625432  0.36246135  0.13804846  1  0  -0.626638  0  1.941286  0  0  -0.568978  0  2.15446  0  0  -0.592084  0  2.144747  0  0  -0.318949  -0.55374  0  2.161084  0
O  O65  1  0.05375225  0.63753904  0.86194602  1  0  -0.626664  0  1.941303  0  0  -0.568975  0  2.154453  0  0  -0.592078  0  2.144738  0  0  -0.318926  -0.553746  0  2.161075  0
O  O66  1  0.19858052  0.20365247  0.17726604  1  0  -0.649868  0  2.024  0  0  -0.585701  0  2.288075  0  0  -0.612703  0  2.274456  0  0  -0.328486  -0.566662  0  2.296642  0
O  O67  1  0.80142072  0.79634672  0.82273457  1  0  -0.649866  0  2.023986  0  0  -0.585703  0  2.288062  0  0  -0.612703  0  2.274443  0  0  -0.32849  -0.56666  0  2.296602  0
