# generated using pymatgen
data_Y2H22C42N4O15
_symmetry_space_group_name_H-M   'P 1'
_cell_length_a   10.49982916
_cell_length_b   21.21304485
_cell_length_c   21.21303733
_cell_angle_alpha   86.49363005
_cell_angle_beta   75.67213045
_cell_angle_gamma   75.67225867
_symmetry_Int_Tables_number   1
_chemical_formula_structural   Y2H22C42N4O15
_chemical_formula_sum   'Y8 H88 C168 N16 O60'
_cell_volume   4435.49607217
_cell_formula_units_Z   4
loop_
 _symmetry_equiv_pos_site_id
 _symmetry_equiv_pos_as_xyz
  1  'x, y, z'
loop_
 _atom_site_type_symbol
 _atom_site_label
 _atom_site_symmetry_multiplicity
 _atom_site_fract_x
 _atom_site_fract_y
 _atom_site_fract_z
 _atom_site_occupancy
 _atom_site_pbe_bader_charge
 _atom_site_pbe_bader_spin_density
 _atom_site_pbe_cm5_charge
 _atom_site_pbe_ddec_charge
 _atom_site_pbe_ddec_spin_density
 _atom_site_pbe_ddec_sum_bond_order
 _atom_site_pbe_magmom
Y  Y0  1  0.35534505  0.79210858  0.42650968  1  2.264228  0  1.304511  1.655137  0  2.583998  0
Y  Y1  1  0.57399749  0.20790234  0.57349131  1  2.263889  0  1.304837  1.654873  0  2.583752  0
Y  Y2  1  0.85247011  0.57349880  0.79212970  1  2.263548  0  1.304123  1.655466  0  2.582154  0
Y  Y3  1  0.21811074  0.42650498  0.20788922  1  2.263457  0  1.304253  1.655648  0  2.582076  0
Y  Y4  1  0.39463898  0.07348765  0.70789531  1  2.26423  0  1.304513  1.655311  0  2.583884  0
Y  Y5  1  0.17599826  0.92651042  0.29209738  1  2.263811  0  1.304818  1.654996  0  2.583688  0
Y  Y6  1  0.89754493  0.70787315  0.92650614  1  2.263465  0  1.304159  1.655633  0  2.581974  0
Y  Y7  1  0.53189456  0.29210018  0.07349173  1  2.263508  0  1.304178  1.655726  0  2.582346  0
H  H8  1  0.67646076  0.70515830  0.28257087  1  0.127079  0  0.108261  0.129117  0  1.040416  0
H  H9  1  0.85340000  0.65761181  0.16739520  1  0.108975  0  0.119277  0.149783  0  0.989767  0
H  H10  1  0.35063011  0.08150369  0.33628373  1  0.143902  0  0.11865  0.146625  0  0.990107  0
H  H11  1  0.38586482  0.63619680  0.38721911  1  0.145677  0  0.130054  0.106978  0  0.988335  0
H  H12  1  0.55369225  0.52945409  0.35671730  1  0.082208  0  0.109136  0.115703  0  1.012438  0
H  H13  1  0.79805197  0.52046037  0.35378787  1  0.109223  0  0.106654  0.103387  0  1.027498  0
H  H14  1  0.97651460  0.57402786  0.37042346  1  0.080004  0  0.111107  0.12368  0  0.993045  0
H  H15  1  0.03437306  0.67037271  0.40544459  1  0.101449  0  0.114652  0.123811  0  0.99354  0
H  H16  1  0.95997308  0.78472231  0.44901092  1  0.146184  0  0.118463  0.129958  0  0.996531  0
H  H17  1  0.76853060  0.88286212  0.48497472  1  0.078059  0  0.106537  0.108908  0  1.033556  0
H  H18  1  0.53635019  0.88208746  0.47485728  1  0.148253  0  0.128588  0.102087  0  1.000483  0
H  H19  1  0.66423970  0.29481170  0.71744514  1  0.127872  0  0.108075  0.129119  0  1.040506  0
H  H20  1  0.67844120  0.34235664  0.83261278  1  0.118845  0  0.119593  0.150239  0  0.990502  0
H  H21  1  0.76846790  0.91850713  0.66371905  1  0.144656  0  0.118667  0.146912  0  0.989915  0
H  H22  1  0.40929067  0.36377556  0.61280552  1  0.166614  0  0.130085  0.106347  0  0.989831  0
H  H23  1  0.43983719  0.47052696  0.64330314  1  0.091593  0  0.109789  0.116857  0  1.011481  0
H  H24  1  0.67231391  0.47952385  0.64621496  1  0.092957  0  0.106127  0.103678  0  1.026453  0
H  H25  1  0.92086339  0.42599628  0.62958877  1  0.105453  0  0.111286  0.123438  0  0.993658  0
H  H26  1  0.11018515  0.32968082  0.59457755  1  0.125291  0  0.115109  0.125078  0  0.992397  0
H  H27  1  0.19376394  0.21527748  0.55099598  1  0.143831  0  0.118159  0.130004  0  0.996228  0
H  H28  1  0.13646223  0.11717156  0.51500377  1  0.101186  0  0.106627  0.109593  0  1.033061  0
H  H29  1  0.89341557  0.11790581  0.52508083  1  0.144509  0  0.128382  0.101658  0  1.001173  0
H  H30  1  0.61849146  0.71743734  0.70515486  1  0.124575  0  0.107775  0.129041  0  1.040667  0
H  H31  1  0.48893560  0.83259285  0.65762583  1  0.12712  0  0.119146  0.149546  0  0.991783  0
H  H32  1  0.56773712  0.66374040  0.08156628  1  0.102778  0  0.118998  0.147217  0  0.99035  0
H  H33  1  0.97790055  0.61279318  0.63621574  1  0.166991  0  0.130512  0.107242  0  0.988431  0
H  H34  1  0.91686676  0.64329178  0.52947462  1  0.109897  0  0.109503  0.116852  0  1.011761  0
H  H35  1  0.68150143  0.64617694  0.52045353  1  0.089181  0  0.106558  0.103779  0  1.027846  0
H  H36  1  0.44955904  0.62958236  0.57398137  1  0.106728  0  0.111275  0.124543  0  0.993069  0
H  H37  1  0.29518929  0.59461826  0.67031894  1  0.12586  0  0.114414  0.123119  0  0.994126  0
H  H38  1  0.25522328  0.55099603  0.78466006  1  0.126917  0  0.118535  0.12912  0  0.99699  0
H  H39  1  0.34858523  0.51497250  0.88276655  1  0.087426  0  0.106556  0.109482  0  1.032694  0
H  H40  1  0.58143971  0.52510822  0.88205619  1  0.144299  0  0.128787  0.102952  0  1.00071  0
H  H41  1  0.04078497  0.28256114  0.29483932  1  0.128273  0  0.108314  0.129008  0  1.040472  0
H  H42  1  0.97921704  0.16734173  0.34235349  1  0.119941  0  0.119723  0.150269  0  0.989225  0
H  H43  1  0.31313328  0.33624841  0.91850074  1  0.113042  0  0.119108  0.147273  0  0.989658  0
H  H44  1  0.22692110  0.38720392  0.36376025  1  0.142649  0  0.130502  0.106945  0  0.98844  0
H  H45  1  0.08963722  0.35666743  0.47051303  1  0.084483  0  0.10908  0.116222  0  1.010746  0
H  H46  1  0.84817848  0.35378809  0.47954040  1  0.106623  0  0.106788  0.103761  0  1.027854  0
H  H47  1  0.65297680  0.37046682  0.42598368  1  0.074075  0  0.111019  0.123359  0  0.9938  0
H  H48  1  0.56010169  0.40546335  0.32962550  1  0.103661  0  0.115014  0.124401  0  0.993326  0
H  H49  1  0.59097673  0.44897996  0.21528815  1  0.119141  0  0.118717  0.13078  0  0.995329  0
H  H50  1  0.74642948  0.48488884  0.11715355  1  0.082678  0  0.106542  0.109489  0  1.032038  0
H  H51  1  0.98868145  0.47484678  0.11790643  1  0.14526  0  0.128681  0.102475  0  1.000114  0
H  H52  1  0.07353983  0.21742113  0.79482697  1  0.127141  0  0.108304  0.129079  0  1.040455  0
H  H53  1  0.89661015  0.33259270  0.84239027  1  0.109418  0  0.119268  0.149833  0  0.989707  0
H  H54  1  0.39937225  0.16371440  0.41849566  1  0.143874  0  0.118638  0.146619  0  0.990182  0
H  H55  1  0.36410336  0.11278201  0.86381946  1  0.145945  0  0.130024  0.107021  0  0.988279  0
H  H56  1  0.19627062  0.14329041  0.97055777  1  0.081718  0  0.109138  0.11575  0  1.012259  0
H  H57  1  0.95191448  0.14622232  0.97954677  1  0.109221  0  0.106623  0.103324  0  1.027515  0
H  H58  1  0.77346183  0.12956128  0.92598143  1  0.079599  0  0.111148  0.123724  0  0.993475  0
H  H59  1  0.71561969  0.09454450  0.82963355  1  0.101226  0  0.114598  0.123741  0  0.993712  0
H  H60  1  0.79002630  0.05098090  0.71527881  1  0.146118  0  0.118388  0.129867  0  0.996631  0
H  H61  1  0.98147610  0.01502324  0.61714356  1  0.078201  0  0.106502  0.108785  0  1.033819  0
H  H62  1  0.21365595  0.02513398  0.61792668  1  0.148592  0  0.128591  0.102125  0  1.000559  0
H  H63  1  0.08574053  0.78255024  0.20518534  1  0.127954  0  0.108011  0.129086  0  1.040505  0
H  H64  1  0.07155384  0.66738386  0.15763888  1  0.118851  0  0.119547  0.150124  0  0.990605  0
H  H65  1  0.98156477  0.83628935  0.58149778  1  0.144782  0  0.118688  0.147021  0  0.989929  0
H  H66  1  0.34070340  0.88720841  0.13622344  1  0.166655  0  0.130136  0.106314  0  0.989807  0
H  H67  1  0.31015857  0.85670640  0.02947267  1  0.091927  0  0.10976  0.116787  0  1.011413  0
H  H68  1  0.07768191  0.85378468  0.02047882  1  0.093035  0  0.106116  0.103678  0  1.026453  0
H  H69  1  0.82913185  0.87040360  0.07401042  1  0.105419  0  0.111259  0.123371  0  0.993716  0
H  H70  1  0.63980630  0.90541827  0.17032407  1  0.124982  0  0.115127  0.125148  0  0.992365  0
H  H71  1  0.55623369  0.94899010  0.28473004  1  0.144067  0  0.118169  0.13012  0  0.996217  0
H  H72  1  0.61352730  0.98498588  0.38283897  1  0.100912  0  0.106622  0.109512  0  1.032891  0
H  H73  1  0.85657626  0.97491894  0.38209672  1  0.144878  0  0.128321  0.101588  0  1.001188  0
H  H74  1  0.13153774  0.79485535  0.78255805  1  0.124341  0  0.107738  0.129027  0  1.040674  0
H  H75  1  0.26109912  0.84236543  0.66739585  1  0.127289  0  0.119219  0.149714  0  0.991725  0
H  H76  1  0.18220092  0.41843177  0.83625989  1  0.102901  0  0.118955  0.146961  0  0.990568  0
H  H77  1  0.77209578  0.86378770  0.88724293  1  0.167296  0  0.13055  0.107351  0  0.988411  0
H  H78  1  0.83313778  0.97052137  0.85672289  1  0.110145  0  0.109535  0.116837  0  1.011891  0
H  H79  1  0.06851351  0.97954112  0.85381597  1  0.08923  0  0.106509  0.103733  0  1.027858  0
H  H80  1  0.30045089  0.92602036  0.87042153  1  0.106682  0  0.111279  0.124526  0  0.99312  0
H  H81  1  0.45481767  0.82968725  0.90539053  1  0.125767  0  0.114395  0.123154  0  0.993873  0
H  H82  1  0.49479935  0.71533686  0.94899829  1  0.126798  0  0.118515  0.129123  0  0.996795  0
H  H83  1  0.40144991  0.61722532  0.98500965  1  0.087081  0  0.106505  0.109331  0  1.032624  0
H  H84  1  0.16859298  0.61793900  0.97487973  1  0.1441  0  0.128714  0.102868  0  1.000746  0
H  H85  1  0.70921105  0.20517851  0.21743550  1  0.128408  0  0.108392  0.128992  0  1.040525  0
H  H86  1  0.77078481  0.15765618  0.33265156  1  0.120226  0  0.119747  0.150238  0  0.989067  0
H  H87  1  0.43681597  0.58148382  0.16372976  1  0.11348  0  0.119044  0.147098  0  0.989897  0
H  H88  1  0.52309881  0.13623220  0.11279579  1  0.142873  0  0.130486  0.10704  0  0.988487  0
H  H89  1  0.66038716  0.02947999  0.14332457  1  0.084652  0  0.109035  0.116165  0  1.010758  0
H  H90  1  0.90183877  0.02045588  0.14620748  1  0.106606  0  0.106779  0.103721  0  1.027709  0
H  H91  1  0.09702669  0.07402363  0.12954141  1  0.074181  0  0.110935  0.123277  0  0.993815  0
H  H92  1  0.18989820  0.17037879  0.09454591  1  0.103577  0  0.115034  0.124456  0  0.99358  0
H  H93  1  0.15902955  0.28471999  0.05103533  1  0.119204  0  0.118761  0.13095  0  0.995116  0
H  H94  1  0.00355955  0.38285520  0.01513158  1  0.082638  0  0.106601  0.109414  0  1.031905  0
H  H95  1  0.76131890  0.38209236  0.02515913  1  0.145323  0  0.128696  0.102479  0  1.000208  0
C  C96  1  0.46891683  0.82224037  0.26064490  1  1.594472  0  0.226371  0.585244  0  4.242407  0
C  C97  1  0.58608462  0.77825553  0.21859966  1  0.387275  0  0.065389  0.059086  0  3.939772  0
C  C98  1  0.67721520  0.72422611  0.23401599  1  -0.003127  0  -0.103963  -0.161808  0  3.98358  0
C  C99  1  0.76866412  0.69995897  0.17487434  1  0.054815  0  -0.099998  -0.174457  0  3.978877  0
C  C100  1  0.72908563  0.74088793  0.12646829  1  0.366904  0  0.070557  0.084643  0  3.936287  0
C  C101  1  0.79184035  0.73954164  0.05611737  1  1.573696  0  0.181086  0.511844  0  4.328852  0
C  C102  1  0.34057784  0.95294747  0.39803841  1  1.642416  0  0.229324  0.579365  0  4.2572  0
C  C103  1  0.35607535  0.01486191  0.41934046  1  0.413812  0  0.068958  0.061002  0  3.938703  0
C  C104  1  0.36220438  0.07226122  0.38565012  1  -0.079829  0  -0.095715  -0.166132  0  3.979769  0
C  C105  1  0.49245563  0.63027846  0.38639725  1  0.502868  0  0.071598  0.126481  0  3.912686  0
C  C106  1  0.58742547  0.57075107  0.36878024  1  -0.000259  0  -0.081496  -0.127756  0  3.975288  0
C  C107  1  0.72183317  0.56583705  0.36723259  1  -0.064203  0  -0.062737  -0.066451  0  3.921779  0
C  C108  1  0.76156768  0.62034827  0.38372675  1  -0.057292  0  -0.002864  0.036119  0  4.020392  0
C  C109  1  0.89834431  0.61872584  0.38470226  1  -0.063578  0  -0.08315  -0.122944  0  3.968051  0
C  C110  1  0.93059270  0.67197263  0.40384572  1  0.016683  0  -0.079756  -0.118361  0  3.985698  0
C  C111  1  0.82916254  0.73095269  0.42278558  1  0.044789  0  -0.000945  0.038864  0  4.009576  0
C  C112  1  0.85705354  0.78591762  0.44600374  1  -0.074669  0  -0.057374  -0.0658  0  3.886334  0
C  C113  1  0.75221105  0.84011157  0.46535802  1  0.004424  0  -0.081108  -0.125493  0  3.975748  0
C  C114  1  0.62141545  0.84012775  0.46005182  1  0.474989  0  0.070747  0.128482  0  3.908735  0
C  C115  1  0.69340160  0.73500192  0.42005614  1  0.459133  0  0.12269  0.120581  0  3.985085  0
C  C116  1  0.65852238  0.67855611  0.40100971  1  0.457926  0  0.120081  0.114859  0  3.999072  0
C  C117  1  0.55164796  0.17775784  0.73938778  1  1.617555  0  0.22693  0.585575  0  4.238077  0
C  C118  1  0.58285253  0.22173509  0.78142075  1  0.415403  0  0.066341  0.061087  0  3.936926  0
C  C119  1  0.63545539  0.27574425  0.76599610  1  -0.051429  0  -0.10396  -0.162917  0  3.986026  0
C  C120  1  0.64343874  0.30003618  0.82513875  1  0.017557  0  -0.099927  -0.17504  0  3.980053  0
C  C121  1  0.59631296  0.25912774  0.87354883  1  0.362943  0  0.070467  0.0857  0  3.935187  0
C  C122  1  0.58741711  0.26045968  0.94389105  1  1.60551  0  0.180472  0.509814  0  4.328279  0
C  C123  1  0.69172941  0.04709166  0.60199389  1  1.651222  0  0.230169  0.581678  0  4.255849  0
C  C124  1  0.79031397  0.98514710  0.58066508  1  0.394613  0  0.069544  0.060478  0  3.940307  0
C  C125  1  0.82015404  0.92775184  0.61435336  1  -0.059168  0  -0.096196  -0.167044  0  3.981638  0
C  C126  1  0.50915218  0.36969971  0.61361741  1  0.476146  0  0.071077  0.125736  0  3.912491  0
C  C127  1  0.52694030  0.42923248  0.63123169  1  -0.00081  0  -0.081143  -0.127578  0  3.973449  0
C  C128  1  0.65488147  0.43414723  0.63278034  1  -0.057121  0  -0.062947  -0.069238  0  3.921208  0
C  C129  1  0.76565294  0.37964400  0.61625751  1  -0.003189  0  -0.002466  0.040411  0  4.018523  0
C  C130  1  0.90173954  0.38128471  0.61530203  1  -0.053143  0  -0.083303  -0.12272  0  3.967195  0
C  C131  1  0.00642637  0.32806217  0.59615837  1  -0.069157  0  -0.080556  -0.121393  0  3.986346  0
C  C132  1  0.98296677  0.26907349  0.57721610  1  0.050161  0  -0.000493  0.03993  0  4.010816  0
C  C133  1  0.08901747  0.21410262  0.55399933  1  -0.093784  0  -0.057595  -0.065985  0  3.888157  0
C  C134  1  0.05774598  0.15991680  0.53461366  1  -0.032649  0  -0.080495  -0.126636  0  3.97781  0
C  C135  1  0.92169255  0.15986848  0.53989342  1  0.51531  0  0.071173  0.13005  0  3.909792  0
C  C136  1  0.84852976  0.26499674  0.57993259  1  0.473162  0  0.122724  0.123485  0  3.982008  0
C  C137  1  0.73812509  0.32143069  0.59897859  1  0.437432  0  0.118616  0.108433  0  4.002589  0
C  C138  1  0.70891003  0.73939302  0.82224732  1  1.593656  0  0.226449  0.585984  0  4.240593  0
C  C139  1  0.63573980  0.78144545  0.77825372  1  0.385737  0  0.064814  0.05852  0  3.938201  0
C  C140  1  0.59864656  0.76599750  0.72422628  1  0.002589  0  -0.103329  -0.16211  0  3.984777  0
C  C141  1  0.53137289  0.82511586  0.69996194  1  0.050966  0  -0.099422  -0.17344  0  3.980719  0
C  C142  1  0.52994747  0.87353650  0.74089097  1  0.324768  0  0.069169  0.083503  0  3.936246  0
C  C143  1  0.46856203  0.94387950  0.73952533  1  1.610692  0  0.180188  0.508878  0  4.327756  0
C  C144  1  0.70640726  0.60195998  0.95296941  1  1.655243  0  0.228876  0.578136  0  4.259601  0
C  C145  1  0.62906710  0.58067313  0.01491391  1  0.416542  0  0.069781  0.060744  0  3.939581  0
C  C146  1  0.56545584  0.61436903  0.07230862  1  -0.046276  0  -0.096764  -0.167777  0  3.982221  0
C  C147  1  0.87723852  0.61360059  0.63028021  1  0.467183  0  0.070629  0.125416  0  3.91294  0
C  C148  1  0.84183641  0.63120324  0.57075403  1  -0.01626  0  -0.080989  -0.127629  0  3.974834  0
C  C149  1  0.71235099  0.63274524  0.56583102  1  -0.040167  0  -0.063043  -0.068077  0  3.922379  0
C  C150  1  0.61807728  0.61627152  0.62034562  1  -0.056546  0  -0.002144  0.038519  0  4.019855  0
C  C151  1  0.48294968  0.61531477  0.61869686  1  -0.04289  0  -0.083332  -0.12473  0  3.969264  0
C  C152  1  0.39738544  0.59618888  0.67193022  1  -0.056197  0  -0.078724  -0.116268  0  3.983233  0
C  C153  1  0.43978694  0.57727793  0.73092507  1  0.009591  0  -0.00118  0.038748  0  4.010567  0
C  C154  1  0.35691817  0.55402480  0.78586578  1  -0.061477  0  -0.056754  -0.063951  0  3.887438  0
C  C155  1  0.40760808  0.53463977  0.84003954  1  -0.021862  0  -0.080439  -0.125396  0  3.978793  0
C  C156  1  0.53834547  0.53995196  0.84009711  1  0.527025  0  0.069829  0.126003  0  3.914947  0
C  C157  1  0.57152154  0.58000093  0.73499226  1  0.490124  0  0.121298  0.120132  0  3.985215  0
C  C158  1  0.66290654  0.59899873  0.67855524  1  0.460959  0  0.1183  0.109896  0  4.002707  0
C  C159  1  0.27048544  0.26063176  0.17775588  1  1.619573  0  0.226778  0.584916  0  4.241541  0
C  C160  1  0.19538742  0.21860686  0.22177939  1  0.404606  0  0.065579  0.060225  0  3.936634  0
C  C161  1  0.08873891  0.23401182  0.27578535  1  -0.040111  0  -0.10418  -0.162452  0  3.985444  0
C  C162  1  0.05653139  0.17485359  0.30005204  1  0.014341  0  -0.099479  -0.173805  0  3.980294  0
C  C163  1  0.14460969  0.12645865  0.25914619  1  0.365542  0  0.069989  0.084177  0  3.938044  0
C  C164  1  0.15210914  0.05612561  0.26044976  1  1.604842  0  0.180073  0.508906  0  4.333093  0
C  C165  1  0.26123856  0.39804722  0.04708265  1  1.651994  0  0.230212  0.579888  0  4.257883  0
C  C166  1  0.22450973  0.41930923  0.98514300  1  0.364609  0  0.069978  0.061611  0  3.938814  0
C  C167  1  0.25216678  0.38561219  0.92774189  1  0.054784  0  -0.096585  -0.167126  0  3.980078  0
C  C168  1  0.12112838  0.38639508  0.36970894  1  0.485838  0  0.071483  0.127398  0  3.912471  0
C  C169  1  0.04380814  0.36876904  0.42923191  1  0.00449  0  -0.080908  -0.127892  0  3.973608  0
C  C170  1  0.91093568  0.36723531  0.43415410  1  -0.058278  0  -0.062825  -0.067516  0  3.921392  0
C  C171  1  0.85461394  0.38375018  0.37966229  1  -0.010375  0  -0.003215  0.037977  0  4.017087  0
C  C172  1  0.71687035  0.38473924  0.38128648  1  -0.018621  0  -0.08343  -0.122851  0  3.965485  0
C  C173  1  0.66547406  0.40387277  0.32804150  1  -0.041454  0  -0.079936  -0.120361  0  3.984005  0
C  C174  1  0.74800236  0.42277651  0.26905977  1  0.001653  0  -0.000326  0.040747  0  4.0104  0
C  C175  1  0.69690713  0.44596285  0.21409517  1  -0.063358  0  -0.057803  -0.068313  0  3.888396  0
C  C176  1  0.78238874  0.46529012  0.15989664  1  0.019923  0  -0.080468  -0.12438  0  3.97573  0
C  C177  1  0.91846346  0.46002587  0.15987247  1  0.492621  0  0.069818  0.127182  0  3.910963  0
C  C178  1  0.88650902  0.42005767  0.26499653  1  0.487876  0  0.123318  0.125317  0  3.982239  0
C  C179  1  0.94040162  0.40102989  0.32145327  1  0.434035  0  0.119655  0.110974  0  4.000354  0
C  C180  1  0.28109114  0.23935442  0.67775357  1  1.594857  0  0.226366  0.585382  0  4.242155  0
C  C181  1  0.16391420  0.28139756  0.72173683  1  0.387217  0  0.065368  0.05895  0  3.940002  0
C  C182  1  0.07278239  0.26598011  0.77576486  1  -0.00332  0  -0.103968  -0.161687  0  3.983744  0
C  C183  1  0.98133631  0.32511882  0.80003728  1  0.054394  0  -0.099903  -0.17457  0  3.979086  0
C  C184  1  0.02090998  0.37352788  0.75911237  1  0.366917  0  0.070557  0.084802  0  3.936247  0
C  C185  1  0.95816809  0.44387999  0.76046511  1  1.573563  0  0.181136  0.511784  0  4.328804  0
C  C186  1  0.40941820  0.10196497  0.54704882  1  1.642485  0  0.229426  0.579375  0  4.257269  0
C  C187  1  0.39392309  0.08065976  0.48513679  1  0.414075  0  0.068978  0.06109  0  3.938643  0
C  C188  1  0.38778632  0.11435309  0.42773661  1  -0.023843  0  -0.095742  -0.166259  0  3.979727  0
C  C189  1  0.25751856  0.11359821  0.86973508  1  0.502218  0  0.071526  0.126382  0  3.912342  0
C  C190  1  0.16254925  0.13121870  0.92925866  1  0.001079  0  -0.081546  -0.127913  0  3.974968  0
C  C191  1  0.02813335  0.13277183  0.93417156  1  -0.06407  0  -0.06256  -0.066187  0  3.921682  0
C  C192  1  0.98840232  0.11627364  0.87966084  1  -0.058284  0  -0.003015  0.036055  0  4.020633  0
C  C193  1  0.85163600  0.11529173  0.88128433  1  -0.024539  0  -0.083057  -0.12288  0  3.96831  0
C  C194  1  0.81939486  0.09614466  0.82803384  1  -0.022056  0  -0.07973  -0.118168  0  3.985481  0
C  C195  1  0.92082566  0.07720813  0.76905550  1  0.044012  0  -0.000984  0.03857  0  4.010063  0
C  C196  1  0.89294462  0.05398913  0.71408940  1  -0.074352  0  -0.05728  -0.065639  0  3.886643  0
C  C197  1  0.99779395  0.03463538  0.65989461  1  0.00374  0  -0.081121  -0.12539  0  3.976113  0
C  C198  1  0.12858736  0.03994052  0.65988454  1  0.474827  0  0.070762  0.128542  0  3.908999  0
C  C199  1  0.05658570  0.07993930  0.76500853  1  0.458959  0  0.122809  0.120927  0  3.985409  0
C  C200  1  0.09145529  0.09898581  0.82145656  1  0.458829  0  0.120164  0.114764  0  3.999117  0
C  C201  1  0.19834124  0.76061209  0.32223472  1  1.618087  0  0.227099  0.585846  0  4.237965  0
C  C202  1  0.16714080  0.71857801  0.27825721  1  0.415817  0  0.0664  0.061114  0  3.936804  0
C  C203  1  0.11453793  0.73400111  0.22425190  1  -0.051719  0  -0.103887  -0.162867  0  3.985938  0
C  C204  1  0.10655437  0.67485926  0.19996076  1  0.017143  0  -0.099861  -0.174928  0  3.980192  0
C  C205  1  0.15367959  0.62645086  0.24086703  1  0.36361  0  0.070364  0.0858  0  3.935201  0
C  C206  1  0.16259413  0.55610603  0.23953097  1  1.605136  0  0.180531  0.509762  0  4.328069  0
C  C207  1  0.05826794  0.89800733  0.45291250  1  1.650353  0  0.230338  0.581926  0  4.255987  0
C  C208  1  0.95968040  0.91933900  0.51485231  1  0.393927  0  0.069574  0.060458  0  3.940119  0
C  C209  1  0.92986170  0.88565184  0.57225450  1  -0.008242  0  -0.096285  -0.167351  0  3.981631  0
C  C210  1  0.24084294  0.88638640  0.13029997  1  0.476286  0  0.071066  0.125725  0  3.912546  0
C  C211  1  0.22305223  0.86877415  0.07076850  1  -0.001151  0  -0.081112  -0.127375  0  3.973371  0
C  C212  1  0.09511063  0.86722515  0.06585587  1  -0.057126  0  -0.06293  -0.069273  0  3.921221  0
C  C213  1  0.98434663  0.88374112  0.12035994  1  -0.003109  0  -0.002451  0.040382  0  4.018549  0
C  C214  1  0.84825697  0.88469112  0.11872187  1  -0.052652  0  -0.083287  -0.122674  0  3.967188  0
C  C215  1  0.74356660  0.90383464  0.17194521  1  -0.069404  0  -0.080551  -0.121425  0  3.986318  0
C  C216  1  0.76702688  0.92277807  0.23093491  1  0.050096  0  -0.000538  0.039962  0  4.010964  0
C  C217  1  0.66097446  0.94599110  0.28590557  1  -0.093553  0  -0.057678  -0.066339  0  3.888418  0
C  C218  1  0.69224666  0.96538051  0.34008966  1  -0.033113  0  -0.080515  -0.126385  0  3.977512  0
C  C219  1  0.82829622  0.96010604  0.34013489  1  0.515023  0  0.071233  0.130098  0  3.909557  0
C  C220  1  0.90146598  0.92006494  0.23500857  1  0.472707  0  0.122582  0.123305  0  3.981982  0
C  C221  1  0.01186673  0.90102179  0.17857323  1  0.437413  0  0.118613  0.108439  0  4.002732  0
C  C222  1  0.04109020  0.67776357  0.76061560  1  1.593464  0  0.226565  0.585854  0  4.241052  0
C  C223  1  0.11426762  0.72175029  0.71856067  1  0.385538  0  0.064824  0.058592  0  3.938143  0
C  C224  1  0.15137879  0.77577540  0.73400274  1  0.002916  0  -0.103022  -0.161738  0  3.984298  0
C  C225  1  0.21864812  0.80003443  0.67487871  1  0.050372  0  -0.099723  -0.174007  0  3.980977  0
C  C226  1  0.22004416  0.75910815  0.62646491  1  0.324154  0  0.069344  0.083787  0  3.936181  0
C  C227  1  0.28142001  0.76047093  0.55611875  1  1.611559  0  0.180418  0.50909  0  4.327639  0
C  C228  1  0.04361537  0.54703300  0.89804438  1  1.656031  0  0.228911  0.578093  0  4.25958  0
C  C229  1  0.12093431  0.48508238  0.91932347  1  0.41609  0  0.069839  0.060977  0  3.939387  0
C  C230  1  0.18451574  0.42768371  0.88562646  1  -0.047104  0  -0.096496  -0.167348  0  3.981949  0
C  C231  1  0.87277164  0.86971568  0.88641629  1  0.466614  0  0.070616  0.125389  0  3.91337  0
C  C232  1  0.90817449  0.92924254  0.86880536  1  -0.01666  0  -0.081011  -0.12778  0  3.974844  0
C  C233  1  0.03766591  0.93416421  0.86725593  1  -0.04035  0  -0.062973  -0.067762  0  3.921806  0
C  C234  1  0.13194061  0.87965318  0.88373164  1  -0.056138  0  -0.002168  0.038321  0  4.020181  0
C  C235  1  0.26706508  0.88130322  0.88468785  1  -0.043014  0  -0.083378  -0.124685  0  3.969565  0
C  C236  1  0.35263135  0.82806847  0.90381112  1  -0.055961  0  -0.078629  -0.116299  0  3.983293  0
C  C237  1  0.31023909  0.76907245  0.92271733  1  0.009791  0  -0.001123  0.038819  0  4.010339  0
C  C238  1  0.39310066  0.71413303  0.94596980  1  -0.062239  0  -0.056748  -0.063946  0  3.887334  0
C  C239  1  0.34242311  0.65995572  0.96534545  1  -0.021807  0  -0.080452  -0.125246  0  3.978417  0
C  C240  1  0.21168468  0.65990038  0.96003849  1  0.527399  0  0.070035  0.126153  0  3.914961  0
C  C241  1  0.17849259  0.76500714  0.92000087  1  0.490392  0  0.12145  0.120425  0  3.984896  0
C  C242  1  0.08711207  0.82144576  0.90100593  1  0.460408  0  0.118356  0.109846  0  4.003095  0
C  C243  1  0.47949743  0.32225665  0.23937518  1  1.620051  0  0.226828  0.585113  0  4.241672  0
C  C244  1  0.55460868  0.27822877  0.28139352  1  0.404294  0  0.065506  0.060021  0  3.936809  0
C  C245  1  0.66125752  0.22422866  0.26598821  1  -0.040114  0  -0.104226  -0.162322  0  3.985506  0
C  C246  1  0.69347101  0.19995841  0.32514254  1  0.01357  0  -0.099363  -0.173608  0  3.979755  0
C  C247  1  0.60538057  0.24085899  0.37354023  1  0.365716  0  0.069938  0.083992  0  3.937806  0
C  C248  1  0.59788005  0.23955484  0.44387491  1  1.605643  0  0.180056  0.508999  0  4.332515  0
C  C249  1  0.48876337  0.45290360  0.10194195  1  1.651418  0  0.230233  0.579989  0  4.257913  0
C  C250  1  0.52548483  0.51484549  0.08066993  1  0.364723  0  0.069574  0.061084  0  3.939001  0
C  C251  1  0.49780557  0.57224920  0.11437329  1  0.05362  0  -0.096272  -0.166713  0  3.980259  0
C  C252  1  0.62888581  0.13028669  0.11360477  1  0.485226  0  0.071521  0.127344  0  3.912401  0
C  C253  1  0.70621079  0.07076230  0.13122681  1  0.005004  0  -0.080958  -0.128046  0  3.973851  0
C  C254  1  0.83907642  0.06584306  0.13276372  1  -0.05861  0  -0.06275  -0.067292  0  3.921486  0
C  C255  1  0.89539498  0.12033630  0.11624989  1  -0.010873  0  -0.003213  0.037917  0  4.017204  0
C  C256  1  0.03313573  0.11871647  0.11526399  1  -0.018777  0  -0.083312  -0.122498  0  3.965299  0
C  C257  1  0.08453091  0.17196451  0.09613512  1  -0.041473  0  -0.079948  -0.120629  0  3.98449  0
C  C258  1  0.00200165  0.23094584  0.07723316  1  0.002929  0  -0.000348  0.040808  0  4.010299  0
C  C259  1  0.05309558  0.28591215  0.05405058  1  -0.06356  0  -0.057901  -0.068496  0  3.88828  0
C  C260  1  0.96761227  0.34010415  0.03471997  1  0.018933  0  -0.080486  -0.124263  0  3.975437  0
C  C261  1  0.83154007  0.34012615  0.03997594  1  0.492768  0  0.069727  0.127087  0  3.910452  0
C  C262  1  0.86349296  0.23500478  0.07994654  1  0.487991  0  0.123185  0.125172  0  3.982059  0
C  C263  1  0.80960501  0.17854701  0.09897441  1  0.434236  0  0.119708  0.110908  0  4.000178  0
N  N264  1  0.52655892  0.68279138  0.40189495  1  -1.239176  0  -0.351483  -0.325288  0  3.464763  0
N  N265  1  0.59268943  0.78951495  0.43723996  1  -1.237767  0  -0.349763  -0.307699  0  3.455052  0
N  N266  1  0.61127561  0.31718644  0.59810835  1  -1.259097  0  -0.350369  -0.320991  0  3.463511  0
N  N267  1  0.81953666  0.21048505  0.56272627  1  -1.241247  0  -0.350083  -0.309488  0  3.454787  0
N  N268  1  0.79062486  0.59811401  0.68279667  1  -1.249531  0  -0.350576  -0.322755  0  3.463788  0
N  N269  1  0.61771201  0.56278004  0.78950275  1  -1.252886  0  -0.349342  -0.306484  0  3.454625  0
N  N270  1  0.07149614  0.40190195  0.31721008  1  -1.230284  0  -0.351356  -0.324834  0  3.464645  0
N  N271  1  0.97002889  0.43724705  0.21048617  1  -1.248035  0  -0.350523  -0.31082  0  3.457057  0
N  N272  1  0.22341858  0.09810169  0.81721926  1  -1.238664  0  -0.351395  -0.325232  0  3.464404  0
N  N273  1  0.15730494  0.06275063  0.71050027  1  -1.237504  0  -0.349984  -0.308118  0  3.455583  0
N  N274  1  0.13872038  0.90189007  0.18281371  1  -1.259181  0  -0.350387  -0.32097  0  3.463601  0
N  N275  1  0.93045924  0.93727464  0.28952095  1  -1.240655  0  -0.34988  -0.30933  0  3.454531  0
N  N276  1  0.95939041  0.81720376  0.90189905  1  -1.248493  0  -0.350835  -0.32304  0  3.464297  0
N  N277  1  0.13231372  0.71049258  0.93721597  1  -1.252814  0  -0.349464  -0.306623  0  3.454865  0
N  N278  1  0.67851557  0.18278610  0.09809887  1  -1.23001  0  -0.35144  -0.324859  0  3.464387  0
N  N279  1  0.77997783  0.28950951  0.06275327  1  -1.248492  0  -0.350396  -0.310624  0  3.456764  0
O  O280  1  0.39264772  0.86672633  0.23471829  1  -1.18582  0  -0.348946  -0.575038  0  2.266631  0
O  O281  1  0.45321453  0.81125939  0.32152348  1  -1.205159  0  -0.379583  -0.622617  0  2.363465  0
O  O282  1  0.61616626  0.78846808  0.15253274  1  -1.047327  0  -0.109808  -0.104274  0  2.609933  0
O  O283  1  0.74158569  0.77978152  0.01641194  1  -1.186928  0  -0.361769  -0.579045  0  2.114902  0
O  O284  1  0.89959806  0.69433418  0.03753207  1  -1.180669  0  -0.372986  -0.579111  0  2.189882  0
O  O285  1  0.35073759  0.90372959  0.43497447  1  -1.19773  0  -0.341016  -0.56617  0  2.302603  0
O  O286  1  0.32042691  0.95515707  0.34105923  1  -1.210085  0  -0.383934  -0.604941  0  2.367008  0
O  O287  1  0.49393440  0.13327320  0.76532223  1  -1.197133  0  -0.349155  -0.575268  0  2.265619  0
O  O288  1  0.58578494  0.18876079  0.67851365  1  -1.208174  0  -0.379987  -0.622979  0  2.362937  0
O  O289  1  0.55702538  0.21154299  0.84749157  1  -1.040273  0  -0.110805  -0.105644  0  2.608772  0
O  O290  1  0.53772674  0.22020474  0.98359402  1  -1.185652  0  -0.360978  -0.577363  0  2.112709  0
O  O291  1  0.63138800  0.30566540  0.96247572  1  -1.180962  0  -0.373046  -0.578471  0  2.189693  0
O  O292  1  0.68972096  0.09630081  0.56505382  1  -1.200328  0  -0.341569  -0.56682  0  2.302302  0
O  O293  1  0.61673899  0.04490157  0.65896501  1  -1.214802  0  -0.384236  -0.606031  0  2.36685  0
O  O294  1  0.74073874  0.76531576  0.86672166  1  -1.188248  0  -0.348317  -0.57501  0  2.26579  0
O  O295  1  0.73548048  0.67851108  0.81127813  1  -1.20496  0  -0.379489  -0.622847  0  2.363453  0
O  O296  1  0.59533743  0.84750896  0.78846296  1  -1.047778  0  -0.10864  -0.103308  0  2.609592  0
O  O297  1  0.47859558  0.98358327  0.77977558  1  -1.189805  0  -0.361631  -0.577534  0  2.113129  0
O  O298  1  0.40605472  0.96247280  0.69430886  1  -1.186923  0  -0.372622  -0.577567  0  2.188498  0
O  O299  1  0.74535449  0.56498554  0.90377098  1  -1.20014  0  -0.34092  -0.56609  0  2.303061  0
O  O300  1  0.72441422  0.65893284  0.95511127  1  -1.215138  0  -0.383625  -0.60389  0  2.367097  0
O  O301  1  0.37268315  0.23467801  0.13326056  1  -1.198674  0  -0.349247  -0.57543  0  2.265331  0
O  O302  1  0.22532645  0.32150923  0.18871529  1  -1.206407  0  -0.379652  -0.62234  0  2.364689  0
O  O303  1  0.23146757  0.15253214  0.21158212  1  -1.037768  0  -0.110264  -0.105027  0  2.609412  0
O  O304  1  0.24205549  0.01642717  0.22019166  1  -1.186836  0  -0.361177  -0.577284  0  2.11526  0
O  O305  1  0.06288129  0.03753454  0.30562511  1  -1.183606  0  -0.372832  -0.577863  0  2.190823  0
O  O306  1  0.21403419  0.43502114  0.09626581  1  -1.198467  0  -0.341644  -0.566637  0  2.302729  0
O  O307  1  0.33844632  0.34108454  0.04491286  1  -1.217675  0  -0.384054  -0.605204  0  2.366984  0
O  O308  1  0.35734658  0.26528010  0.63326769  1  -1.186472  0  -0.348986  -0.575153  0  2.266774  0
O  O309  1  0.29678519  0.17847150  0.68873930  1  -1.205154  0  -0.379624  -0.622661  0  2.363068  0
O  O310  1  0.13383076  0.34746261  0.71152629  1  -1.04721  0  -0.109817  -0.104259  0  2.609755  0
O  O311  1  0.00841355  0.48358244  0.72021875  1  -1.186821  0  -0.361931  -0.57918  0  2.114863  0
O  O312  1  0.85043163  0.46246895  0.80568525  1  -1.180366  0  -0.372894  -0.578926  0  2.189746  0
O  O313  1  0.39925588  0.06501866  0.59627196  1  -1.197642  0  -0.341112  -0.566303  0  2.302007  0
O  O314  1  0.42957431  0.15893471  0.54484407  1  -1.210379  0  -0.383949  -0.60486  0  2.36756  0
O  O315  1  0.25604879  0.73468363  0.36671742  1  -1.197817  0  -0.349102  -0.575163  0  2.266032  0
O  O316  1  0.16419149  0.82149055  0.31123421  1  -1.208143  0  -0.380077  -0.623176  0  2.362614  0
O  O317  1  0.19297249  0.65250660  0.28845019  1  -1.040577  0  -0.110954  -0.105901  0  2.608758  0
O  O318  1  0.21230759  0.51640429  0.27977937  1  -1.185299  0  -0.360846  -0.577207  0  2.112677  0
O  O319  1  0.11860382  0.53752610  0.19433051  1  -1.181125  0  -0.373108  -0.578523  0  2.189522  0
O  O320  1  0.06027920  0.93495604  0.40369725  1  -1.199607  0  -0.341775  -0.567083  0  2.301943  0
O  O321  1  0.13324494  0.84104484  0.45509861  1  -1.214597  0  -0.384266  -0.60611  0  2.367794  0
O  O322  1  0.00925268  0.63328982  0.73468959  1  -1.187926  0  -0.348468  -0.57495  0  2.265933  0
O  O323  1  0.01451626  0.68873048  0.82149500  1  -1.2046  0  -0.379493  -0.6227  0  2.363357  0
O  O324  1  0.15464893  0.71153881  0.65249871  1  -1.047249  0  -0.108825  -0.10354  0  2.60953  0
O  O325  1  0.27136030  0.72023004  0.51641631  1  -1.18997  0  -0.361766  -0.577605  0  2.113266  0
O  O326  1  0.34394266  0.80568233  0.53752522  1  -1.18725  0  -0.372696  -0.577656  0  2.188372  0
O  O327  1  0.00466951  0.59622202  0.93502002  1  -1.199744  0  -0.340892  -0.566089  0  2.303375  0
O  O328  1  0.02560843  0.54490167  0.84106399  1  -1.21559  0  -0.383711  -0.603956  0  2.36676  0
O  O329  1  0.37733921  0.36673904  0.26531255  1  -1.199214  0  -0.34912  -0.575249  0  2.266689  0
O  O330  1  0.52467398  0.31128058  0.17847971  1  -1.206786  0  -0.37981  -0.622648  0  2.363599  0
O  O331  1  0.51852411  0.28842519  0.34746926  1  -1.037468  0  -0.110319  -0.104996  0  2.609519  0
O  O332  1  0.50793166  0.27980986  0.48357616  1  -1.18703  0  -0.361043  -0.577191  0  2.114971  0
O  O333  1  0.68710645  0.19438063  0.46246429  1  -1.184352  0  -0.372944  -0.577974  0  2.190629  0
O  O334  1  0.53600241  0.40371169  0.06494932  1  -1.197666  0  -0.341867  -0.56694  0  2.301912  0
O  O335  1  0.41157798  0.45506319  0.15888624  1  -1.21754  0  -0.383803  -0.604982  0  2.368225  0
O  O336  1  0.37500158  0.01955702  0.48044350  1  -1.042608  0  -0.108655  -0.097594  0  2.603883  0
O  O337  1  0.87499226  0.98044760  0.51955405  1  -1.04453  0  -0.108956  -0.096759  0  2.603057  0
O  O338  1  0.60555938  0.51955473  0.01959227  1  -1.043541  0  -0.109164  -0.096479  0  2.602209  0
O  O339  1  0.14446164  0.48039746  0.98043834  1  -1.043432  0  -0.109533  -0.09707  0  2.602204  0
