# generated using pymatgen
data_Al2H17C18S2NO10
_symmetry_space_group_name_H-M   'P 1'
_cell_length_a   6.65577131
_cell_length_b   10.98157905
_cell_length_c   12.60202893
_cell_angle_alpha   84.81398309
_cell_angle_beta   77.20786276
_cell_angle_gamma   72.42113696
_symmetry_Int_Tables_number   1
_chemical_formula_structural   Al2H17C18S2NO10
_chemical_formula_sum   'Al2 H17 C18 S2 N1 O10'
_cell_volume   856.01206061
_cell_formula_units_Z   1
loop_
 _symmetry_equiv_pos_site_id
 _symmetry_equiv_pos_as_xyz
  1  'x, y, z'
loop_
 _atom_site_type_symbol
 _atom_site_label
 _atom_site_symmetry_multiplicity
 _atom_site_fract_x
 _atom_site_fract_y
 _atom_site_fract_z
 _atom_site_occupancy
 _atom_site_pbe_bader_charge
 _atom_site_pbe_bader_spin_density
 _atom_site_pbe_cm5_charge
 _atom_site_pbe_ddec_charge
 _atom_site_pbe_ddec_spin_density
 _atom_site_pbe_ddec_sum_bond_order
 _atom_site_pbe_magmom
Al  Al0  1  0.49950305  0.49723123  0.49913491  1  2.503344  0  0.392973  1.640261  0  2.588888  0
Al  Al1  1  0.99503896  0.50115074  0.50200229  1  2.500543  0  0.394979  1.64091  0  2.572513  0
H  H2  1  0.28661145  0.35478568  0.57391740  1  0.623506  0  0.350402  0.425413  0  0.862708  0
H  H3  1  0.70323424  0.64420260  0.42634499  1  0.632866  0  0.351661  0.426472  0  0.861039  0
H  H4  1  0.74771857  0.42390918  0.15759706  1  0.161369  0  0.115136  0.139399  0  0.991359  0
H  H5  1  0.06586113  0.88725670  0.32855680  1  0.03203  0  0.092536  0.087688  0  0.979245  0
H  H6  1  0.81036670  0.89766813  0.41249817  1  0.048374  0  0.092378  0.088967  0  0.992358  0
H  H7  1  0.73023446  0.12044603  0.39475331  1  0.031991  0  0.096031  0.095821  0  0.985366  0
H  H8  1  0.99692835  0.10850378  0.32494079  1  0.018731  0  0.093956  0.089907  0  0.974246  0
H  H9  1  0.64538894  0.10696317  0.59929834  1  -0.005542  0  0.091581  0.088872  0  0.996089  0
H  H10  1  0.83544042  0.11252557  0.67532680  1  0.023022  0  0.092323  0.087927  0  0.978448  0
H  H11  1  0.76211746  0.88375974  0.61582342  1  0.025041  0  0.094016  0.094649  0  0.989836  0
H  H12  1  0.97174353  0.89023042  0.67803438  1  0.035047  0  0.092045  0.090216  0  0.976274  0
H  H13  1  0.37209188  0.89211515  0.41659853  1  0.043591  0  0.088876  0.082492  0  0.990938  0
H  H14  1  0.34487032  0.87856538  0.55888984  1  0.021269  0  0.093436  0.091767  0  0.983603  0
H  H15  1  0.21853302  0.10062423  0.57443092  1  -0.003538  0  0.089648  0.082855  0  0.986237  0
H  H16  1  0.27885026  0.11355921  0.43149852  1  0.040252  0  0.091969  0.090448  0  0.991837  0
H  H17  1  0.05719210  0.56365729  0.88362413  1  0.451484  0  0.279696  0.267397  0  1.035765  0
H  H18  1  0.21922321  0.56334442  0.75558590  1  0.5147  0  0.310589  0.324553  0  0.948283  0
C  C19  1  0.87330925  0.26902567  0.49861754  1  1.559495  0  0.279345  0.645245  0  4.015737  0
C  C20  1  0.64935223  0.50585689  0.69732573  1  1.523007  0  0.240438  0.641867  0  4.172093  0
C  C21  1  0.12617677  0.72940747  0.50201312  1  1.532007  0  0.277854  0.642062  0  4.017508  0
C  C22  1  0.34475753  0.48415346  0.30534220  1  1.648234  0  0.251561  0.634089  0  4.166205  0
C  C23  1  0.38103339  0.52602273  0.87787283  1  0.502372  0  0.1053  0.282521  0  4.120417  0
C  C24  1  0.60489868  0.45083452  0.12225170  1  0.008766  0  -0.091065  -0.140911  0  3.976951  0
C  C25  1  0.59165678  0.49766886  0.81461953  1  -0.080168  0  -0.05007  -0.270702  0  3.955696  0
C  C26  1  0.39922349  0.48104696  0.18584356  1  -0.207397  0  -0.023677  -0.119512  0  3.974222  0
C  C27  1  0.59878021  0.46403287  0.01062327  1  -0.18207  0  -0.025567  0.001173  0  4.123026  0
C  C28  1  0.38878433  0.50586869  0.99069426  1  -0.154654  0  -0.029573  -0.122141  0  4.028137  0
C  C29  1  0.95582583  0.92845183  0.40384002  1  -0.053794  0  -0.1529  -0.168215  0  3.849963  0
C  C30  1  0.90041308  0.07625092  0.39842919  1  -0.012787  0  -0.154407  -0.168051  0  3.843548  0
C  C31  1  0.94594180  0.12393775  0.50005904  1  0.06815  0  -0.015501  0.010968  0  3.817643  0
C  C32  1  0.81707917  0.07244571  0.60230801  1  -0.012776  0  -0.157345  -0.171887  0  3.864149  0
C  C33  1  0.89665584  0.92457698  0.60725198  1  0.013756  0  -0.15626  -0.170697  0  3.85422  0
C  C34  1  0.06248381  0.87449666  0.50235384  1  0.048755  0  -0.016365  0.010307  0  3.814165  0
C  C35  1  0.25915630  0.92338334  0.49372545  1  -0.032355  0  -0.163469  -0.177635  0  3.891475  0
C  C36  1  0.18765400  0.07058968  0.50009893  1  -0.019153  0  -0.163789  -0.179844  0  3.89393  0
S  S37  1  0.79168306  0.44513531  0.89187599  1  0.195504  0  0.061579  0.086532  0  2.86523  0
S  S38  1  0.19777472  0.52609432  0.11026152  1  0.240196  0  0.082449  0.13199  0  2.762427  0
N  N39  1  0.19872557  0.57172733  0.83752334  1  -1.272512  0  -0.584369  -0.581287  0  3.35713  0
O  O40  1  0.67128650  0.32426982  0.51401174  1  -1.268226  0  -0.236148  -0.602864  0  2.35279  0
O  O41  1  0.84850569  0.48638545  0.65178742  1  -1.266348  0  -0.252368  -0.607532  0  2.323005  0
O  O42  1  0.97524652  0.67639062  0.51964045  1  -1.264339  0  -0.238256  -0.596747  0  2.330777  0
O  O43  1  0.50372554  0.46260003  0.35231037  1  -1.258052  0  -0.237266  -0.580398  0  2.327143  0
O  O44  1  0.32612310  0.66965871  0.48233232  1  -1.271547  0  -0.232607  -0.596204  0  2.375841  0
O  O45  1  0.14591654  0.51051638  0.35115973  1  -1.263352  0  -0.241921  -0.593551  0  2.338985  0
O  O46  1  0.01765625  0.32634202  0.48296973  1  -1.273153  0  -0.233386  -0.589459  0  2.363715  0
O  O47  1  0.49286942  0.53120105  0.64646421  1  -1.274785  0  -0.247553  -0.605102  0  2.357248  0
O  O48  1  0.25340806  0.44404449  0.55075517  1  -1.432304  0  -0.449341  -0.991695  0  2.201592  0
O  O49  1  0.74039589  0.55547001  0.45083911  1  -1.438548  0  -0.449551  -0.988331  0  2.198867  0
