# generated using pymatgen
data_HoH21C17NO7
_symmetry_space_group_name_H-M   'P 1'
_cell_length_a   8.18429513
_cell_length_b   10.33658642
_cell_length_c   11.69659298
_cell_angle_alpha   108.70744383
_cell_angle_beta   106.14606111
_cell_angle_gamma   97.52985923
_symmetry_Int_Tables_number   1
_chemical_formula_structural   HoH21C17NO7
_chemical_formula_sum   'Ho2 H42 C34 N2 O14'
_cell_volume   873.48523753
_cell_formula_units_Z   2
loop_
 _symmetry_equiv_pos_site_id
 _symmetry_equiv_pos_as_xyz
  1  'x, y, z'
loop_
 _atom_site_type_symbol
 _atom_site_label
 _atom_site_symmetry_multiplicity
 _atom_site_fract_x
 _atom_site_fract_y
 _atom_site_fract_z
 _atom_site_occupancy
 _atom_site_hle17_bader_spin_density
 _atom_site_hle17_ddec_charge
 _atom_site_hle17_ddec_spin_density
 _atom_site_hle17_ddec_sum_bond_order
 _atom_site_hle17_magmom
 _atom_site_hse06_10hf_bader_spin_density
 _atom_site_hse06_10hf_ddec_charge
 _atom_site_hse06_10hf_ddec_spin_density
 _atom_site_hse06_10hf_ddec_sum_bond_order
 _atom_site_hse06_10hf_magmom
 _atom_site_hse06_bader_spin_density
 _atom_site_hse06_ddec_charge
 _atom_site_hse06_ddec_spin_density
 _atom_site_hse06_ddec_sum_bond_order
 _atom_site_hse06_magmom
 _atom_site_pbe_bader_spin_density
 _atom_site_pbe_cm5_charge
 _atom_site_pbe_ddec_charge
 _atom_site_pbe_ddec_spin_density
 _atom_site_pbe_ddec_sum_bond_order
 _atom_site_pbe_magmom
Ho  Ho0  1  0.58509239  0.92478519  0.84707555  1  0  2.170594  0  1.629851  0  0  2.006373  0  2.119232  0  0  2.060039  0  2.076541  0  0  1.498409  1.966303  0  2.152006  0
Ho  Ho1  1  0.41490839  0.07521303  0.15292329  1  0  2.170653  0  1.629823  0  0  2.006486  0  2.119072  0  0  2.06015  0  2.076384  0  0  1.498448  1.966412  0  2.151869  0
H  H2  1  0.97013416  0.61620427  0.92099122  1  0  0.121073  0  0.957641  0  0  0.132739  0  1.015449  0  0  0.136609  0  1.014489  0  0  0.10471  0.130033  0  1.016304  0
H  H3  1  0.02986221  0.38379186  0.07900961  1  0  0.121097  0  0.957712  0  0  0.132771  0  1.015499  0  0  0.136643  0  1.01454  0  0  0.104732  0.130063  0  1.016359  0
H  H4  1  0.61883331  0.43909035  0.71132375  1  0  0.079497  0  0.934724  0  0  0.095186  0  0.98916  0  0  0.097348  0  0.987757  0  0  0.108094  0.093542  0  0.990311  0
H  H5  1  0.38116110  0.56090785  0.28867301  1  0  0.079468  0  0.934786  0  0  0.095172  0  0.989202  0  0  0.097332  0  0.987801  0  0  0.10809  0.093527  0  0.990347  0
H  H6  1  0.94978373  0.35354715  0.84514510  1  0  0.105599  0  0.958846  0  0  0.1269  0  1.019915  0  0  0.127919  0  1.020955  0  0  0.089864  0.126135  0  1.019181  0
H  H7  1  0.05021101  0.64644789  0.15484997  1  0  0.105645  0  0.958805  0  0  0.126934  0  1.019877  0  0  0.127952  0  1.020918  0  0  0.08988  0.126166  0  1.019147  0
H  H8  1  0.81419720  0.26676173  0.67987640  1  0  0.115595  0  0.941342  0  0  0.135865  0  1.004591  0  0  0.137106  0  1.005099  0  0  0.094874  0.134559  0  1.004621  0
H  H9  1  0.18579561  0.73323540  0.32011890  1  0  0.115506  0  0.941384  0  0  0.135776  0  1.004648  0  0  0.137028  0  1.005144  0  0  0.094863  0.134469  0  1.004683  0
H  H10  1  0.72807850  0.25781244  0.79919047  1  0  0.136508  0  0.959675  0  0  0.155126  0  1.021763  0  0  0.157034  0  1.021552  0  0  0.10151  0.153626  0  1.022079  0
H  H11  1  0.27191655  0.74218365  0.20080496  1  0  0.136492  0  0.959766  0  0  0.155085  0  1.021884  0  0  0.156991  0  1.021677  0  0  0.101505  0.153581  0  1.022202  0
H  H12  1  0.06413654  0.67049008  0.47107060  1  0  0.110519  0  0.956483  0  0  0.121953  0  1.015319  0  0  0.125145  0  1.015303  0  0  0.100076  0.119708  0  1.015417  0
H  H13  1  0.93585977  0.32951445  0.52893086  1  0  0.110475  0  0.956481  0  0  0.121902  0  1.015339  0  0  0.125098  0  1.015314  0  0  0.100059  0.119659  0  1.015431  0
H  H14  1  0.96529529  0.68898248  0.70940842  1  0  0.066011  0  0.969765  0  0  0.080227  0  1.030965  0  0  0.081629  0  1.030712  0  0  0.098774  0.079118  0  1.031249  0
H  H15  1  0.03470422  0.31101996  0.29059392  1  0  0.066042  0  0.969713  0  0  0.080236  0  1.030942  0  0  0.081639  0  1.030682  0  0  0.09876  0.079124  0  1.031232  0
H  H16  1  0.74340649  0.56454824  0.41836236  1  0  0.10679  0  0.964313  0  0  0.12972  0  1.024956  0  0  0.130533  0  1.025696  0  0  0.091419  0.129097  0  1.024475  0
H  H17  1  0.25659336  0.43545105  0.58163916  1  0  0.106812  0  0.964399  0  0  0.129714  0  1.025056  0  0  0.130528  0  1.025791  0  0  0.091441  0.129088  0  1.024575  0
H  H18  1  0.66659726  0.65063119  0.54538123  1  0  0.122953  0  0.941529  0  0  0.143717  0  1.001636  0  0  0.144936  0  1.001961  0  0  0.099508  0.142786  0  1.001463  0
H  H19  1  0.33340099  0.34936704  0.45461884  1  0  0.122935  0  0.941535  0  0  0.143709  0  1.00163  0  0  0.144927  0  1.001956  0  0  0.099501  0.142779  0  1.001455  0
H  H20  1  0.71507549  0.48689324  0.52870001  1  0  0.120012  0  0.941746  0  0  0.143174  0  1.000281  0  0  0.144176  0  1.000437  0  0  0.09809  0.142408  0  1.000236  0
H  H21  1  0.28492753  0.51310817  0.47130271  1  0  0.120017  0  0.941729  0  0  0.143182  0  1.000261  0  0  0.144184  0  1.000417  0  0  0.098094  0.142414  0  1.00022  0
H  H22  1  0.36292639  0.35188038  0.00057514  1  0  0.118179  0  0.984369  0  0  0.127895  0  1.044834  0  0  0.130347  0  1.046442  0  0  0.104534  0.12616  0  1.043781  0
H  H23  1  0.63707502  0.64811995  0.99942440  1  0  0.118225  0  0.98435  0  0  0.127925  0  1.044829  0  0  0.130378  0  1.046434  0  0  0.104557  0.126188  0  1.043781  0
H  H24  1  0.36174801  0.30231479  0.72713239  1  0  0.070277  0  0.951837  0  0  0.083521  0  1.013191  0  0  0.085313  0  1.012365  0  0  0.103361  0.082164  0  1.013917  0
H  H25  1  0.63825307  0.69768447  0.27286508  1  0  0.070275  0  0.951856  0  0  0.083497  0  1.013228  0  0  0.085288  0  1.0124  0  0  0.103349  0.082137  0  1.013947  0
H  H26  1  0.26079438  0.53257546  0.92389080  1  0  0.108768  0  0.945642  0  0  0.13193  0  1.002647  0  0  0.132954  0  1.003387  0  0  0.092308  0.131112  0  1.002237  0
H  H27  1  0.73920859  0.46742592  0.07610762  1  0  0.108737  0  0.945649  0  0  0.1319  0  1.002645  0  0  0.132928  0  1.00338  0  0  0.092303  0.131082  0  1.00224  0
H  H28  1  0.14635109  0.46009930  0.75472665  1  0  0.107383  0  0.947987  0  0  0.130579  0  1.009587  0  0  0.13126  0  1.010351  0  0  0.095027  0.129976  0  1.009155  0
H  H29  1  0.85365064  0.53990208  0.24527325  1  0  0.107393  0  0.947978  0  0  0.130572  0  1.009596  0  0  0.131252  0  1.010361  0  0  0.095023  0.129968  0  1.009168  0
H  H30  1  0.36158411  0.56372087  0.81461565  1  0  0.136218  0  0.950968  0  0  0.154236  0  1.01524  0  0  0.156331  0  1.014289  0  0  0.103224  0.152521  0  1.016388  0
H  H31  1  0.63841727  0.43627944  0.18538132  1  0  0.136249  0  0.950971  0  0  0.154249  0  1.015266  0  0  0.156344  0  1.014314  0  0  0.103243  0.152535  0  1.016415  0
H  H32  1  0.00631651  0.02675299  0.85151591  1  0  0.088355  0  0.948957  0  0  0.096623  0  1.011561  0  0  0.099532  0  1.008881  0  0  0.124684  0.094517  0  1.013406  0
H  H33  1  0.99368968  0.97325053  0.14848801  1  0  0.088394  0  0.948991  0  0  0.096634  0  1.011584  0  0  0.099542  0  1.008906  0  0  0.124682  0.094527  0  1.013432  0
H  H34  1  0.17651645  0.05215528  0.71412630  1  0  0.103535  0  1.005502  0  0  0.113178  0  1.066698  0  0  0.115658  0  1.066791  0  0  0.109361  0.111353  0  1.066877  0
H  H35  1  0.82348526  0.94785032  0.28587649  1  0  0.103548  0  1.005424  0  0  0.113216  0  1.06659  0  0  0.115696  0  1.066682  0  0  0.109383  0.111389  0  1.066771  0
H  H36  1  0.68648434  0.93593180  0.40078316  1  0  0.119817  0  0.992684  0  0  0.126908  0  1.057068  0  0  0.130902  0  1.054928  0  0  0.109352  0.124081  0  1.058721  0
H  H37  1  0.31352030  0.06406646  0.59922070  1  0  0.119829  0  0.992775  0  0  0.126912  0  1.057166  0  0  0.130907  0  1.055026  0  0  0.109359  0.124079  0  1.058821  0
H  H38  1  0.53696647  0.90808604  0.54950265  1  0  0.092166  0  0.968029  0  0  0.100471  0  1.030949  0  0  0.103577  0  1.028058  0  0  0.122289  0.098252  0  1.032957  0
H  H39  1  0.46303750  0.09191853  0.45050199  1  0  0.092163  0  0.968035  0  0  0.100411  0  1.031025  0  0  0.103515  0  1.028137  0  0  0.122259  0.098187  0  1.033036  0
H  H40  1  0.78199312  0.15822087  0.08662437  1  0  0.448307  0  0.849706  0  0  0.417212  0  0.914134  0  0  0.428935  0  0.896814  0  0  0.301343  0.408963  0  0.926291  0
H  H41  1  0.21800448  0.84177946  0.91337530  1  0  0.448252  0  0.849783  0  0  0.417156  0  0.914217  0  0  0.428877  0  0.896899  0  0  0.30131  0.408906  0  0.926375  0
H  H42  1  0.93351356  0.13394669  0.02731117  1  0  0.436867  0  0.865089  0  0  0.408515  0  0.925006  0  0  0.419827  0  0.908465  0  0  0.294147  0.400477  0  0.936726  0
H  H43  1  0.06648056  0.86605048  0.97268781  1  0  0.436885  0  0.865043  0  0  0.408537  0  0.924954  0  0  0.41985  0  0.908408  0  0  0.294178  0.400501  0  0.93667  0
C  C44  1  0.75682452  0.70768178  0.84683135  1  0  0.670307  0  3.955481  0  0  0.626658  0  4.247784  0  0  0.661869  0  4.238848  0  0  0.185482  0.60305  0  4.252877  0
C  C45  1  0.24317686  0.29231853  0.15316476  1  0  0.670302  0  3.955478  0  0  0.626696  0  4.247753  0  0  0.661908  0  4.238814  0  0  0.185523  0.603101  0  4.252828  0
C  C46  1  0.83706745  0.58942995  0.85317091  1  0  -0.301624  0  3.708515  0  0  -0.315523  0  3.963754  0  0  -0.329745  0  3.980613  0  0  -0.115374  -0.306487  0  3.952768  0
C  C47  1  0.16292920  0.41056721  0.14682684  1  0  -0.301696  0  3.708736  0  0  -0.315623  0  3.963974  0  0  -0.329847  0  3.980829  0  0  -0.115425  -0.306586  0  3.952987  0
C  C48  1  0.75057959  0.45543523  0.77786727  1  0  0.111209  0  3.664168  0  0  0.09665  0  3.920816  0  0  0.10417  0  3.937078  0  0  -0.056437  0.091619  0  3.909879  0
C  C49  1  0.24941674  0.54456088  0.22212927  1  0  0.111272  0  3.664259  0  0  0.096696  0  3.920909  0  0  0.104218  0  3.937171  0  0  -0.056392  0.091668  0  3.90996  0
C  C50  1  0.81657530  0.32839111  0.77692983  1  0  -0.328271  0  3.739067  0  0  -0.401124  0  3.976554  0  0  -0.405099  0  3.986286  0  0  -0.243056  -0.397995  0  3.970033  0
C  C51  1  0.18341847  0.67160498  0.22306536  1  0  -0.328183  0  3.739124  0  0  -0.401012  0  3.976614  0  0  -0.404994  0  3.986338  0  0  -0.24306  -0.397879  0  3.970102  0
C  C52  1  0.25320856  0.77409800  0.66501159  1  0  0.695921  0  3.910659  0  0  0.652777  0  4.197919  0  0  0.688502  0  4.188199  0  0  0.191582  0.628715  0  4.203883  0
C  C53  1  0.74679251  0.22590548  0.33498878  1  0  0.695905  0  3.910632  0  0  0.652727  0  4.197952  0  0  0.688451  0  4.188239  0  0  0.191532  0.628662  0  4.203923  0
C  C54  1  0.07761056  0.69532274  0.57176321  1  0  -0.284822  0  3.71213  0  0  -0.297391  0  3.966468  0  0  -0.311597  0  3.985629  0  0  -0.112924  -0.288133  0  3.953345  0
C  C55  1  0.92238320  0.30468178  0.42823776  1  0  -0.284704  0  3.711996  0  0  -0.297244  0  3.966315  0  0  -0.311454  0  3.985485  0  0  -0.112882  -0.287987  0  3.953188  0
C  C56  1  0.94052378  0.66013046  0.60663231  1  0  0.097004  0  3.682575  0  0  0.081102  0  3.941096  0  0  0.087259  0  3.96006  0  0  -0.065479  0.077422  0  3.927705  0
C  C57  1  0.05947636  0.33987409  0.39337074  1  0  0.096934  0  3.68256  0  0  0.081027  0  3.941089  0  0  0.087184  0  3.960059  0  0  -0.065464  0.077348  0  3.927699  0
C  C58  1  0.75799636  0.58722453  0.51922015  1  0  -0.317099  0  3.737375  0  0  -0.393101  0  3.977304  0  0  -0.396174  0  3.988045  0  0  -0.240395  -0.390698  0  3.96971  0
C  C59  1  0.24200286  0.41277687  0.48078355  1  0  -0.317103  0  3.737487  0  0  -0.393086  0  3.977428  0  0  -0.396157  0  3.988169  0  0  -0.240407  -0.39068  0  3.969831  0
C  C60  1  0.44060469  0.17081583  0.89068503  1  0  0.728708  0  3.874932  0  0  0.686936  0  4.155961  0  0  0.723799  0  4.143688  0  0  0.210142  0.661773  0  4.163765  0
C  C61  1  0.55939421  0.82918030  0.10931370  1  0  0.728817  0  3.874932  0  0  0.687066  0  4.155912  0  0  0.723934  0  4.143638  0  0  0.210194  0.66191  0  4.163697  0
C  C62  1  0.38093221  0.30185218  0.90918819  1  0  -0.283514  0  3.67613  0  0  -0.297592  0  3.9267  0  0  -0.312003  0  3.945599  0  0  -0.107445  -0.287908  0  3.913859  0
C  C63  1  0.61907046  0.69814814  0.09080988  1  0  -0.283587  0  3.676207  0  0  -0.297662  0  3.926744  0  0  -0.312075  0  3.945644  0  0  -0.107445  -0.28798  0  3.913901  0
C  C64  1  0.34282036  0.35663588  0.81787427  1  0  0.097148  0  3.671451  0  0  0.08268  0  3.930549  0  0  0.089286  0  3.947838  0  0  -0.059341  0.078295  0  3.918649  0
C  C65  1  0.65718134  0.64336550  0.18212392  1  0  0.097169  0  3.671525  0  0  0.08275  0  3.930558  0  0  0.089356  0  3.947849  0  0  -0.05934  0.078371  0  3.918648  0
C  C66  1  0.27472591  0.48488022  0.82983707  1  0  -0.32208  0  3.7401  0  0  -0.3976  0  3.981858  0  0  -0.400485  0  3.990712  0  0  -0.240071  -0.395327  0  3.976035  0
C  C67  1  0.72527549  0.51512011  0.17016162  1  0  -0.322094  0  3.740113  0  0  -0.397615  0  3.981875  0  0  -0.400502  0  3.990727  0  0  -0.24008  -0.39534  0  3.97606  0
C  C68  1  0.93874478  0.00664460  0.75085995  1  0  0.145729  0  3.700306  0  0  0.120323  0  3.954159  0  0  0.127167  0  3.971309  0  0  0.052981  0.116115  0  3.942107  0
C  C69  1  0.06126078  0.99335682  0.24914325  1  0  0.14558  0  3.700494  0  0  0.120271  0  3.954269  0  0  0.127113  0  3.97142  0  0  0.05296  0.116061  0  3.942217  0
C  C70  1  0.03474796  0.02236911  0.67313468  1  0  -0.156655  0  3.707541  0  0  -0.17436  0  3.950498  0  0  -0.182486  0  3.973628  0  0  -0.08116  -0.169056  0  3.934734  0
C  C71  1  0.96525728  0.97763546  0.32687021  1  0  -0.156595  0  3.707532  0  0  -0.174354  0  3.950446  0  0  -0.18248  0  3.973576  0  0  -0.081164  -0.169044  0  3.934678  0
C  C72  1  0.94996535  0.99484073  0.54296269  1  0  0.094267  0  3.744288  0  0  0.106943  0  3.97213  0  0  0.110613  0  3.99401  0  0  0.013167  0.104893  0  3.956858  0
C  C73  1  0.05003767  0.00516067  0.45704003  1  0  0.094242  0  3.744313  0  0  0.106957  0  3.972125  0  0  0.110627  0  3.994004  0  0  0.013184  0.104904  0  3.956849  0
C  C74  1  0.76589911  0.95600951  0.49921201  1  0  -0.15619  0  3.672752  0  0  -0.174205  0  3.91988  0  0  -0.181468  0  3.939764  0  0  -0.079724  -0.169519  0  3.906473  0
C  C75  1  0.23410391  0.04399189  0.50079071  1  0  -0.15626  0  3.673  0  0  -0.174292  0  3.920094  0  0  -0.181555  0  3.939979  0  0  -0.07977  -0.169593  0  3.906668  0
C  C76  1  0.67933193  0.94175593  0.58289703  1  0  0.132258  0  3.707351  0  0  0.106147  0  3.959183  0  0  0.112838  0  3.975781  0  0  0.049556  0.101981  0  3.94762  0
C  C77  1  0.32067462  0.05824444  0.41710778  1  0  0.13227  0  3.707552  0  0  0.106203  0  3.959388  0  0  0.112895  0  3.975983  0  0  0.049569  0.102047  0  3.947813  0
N  N78  1  0.76230790  0.96454503  0.70738292  1  0  -0.421488  0  3.215881  0  0  -0.364921  0  3.486205  0  0  -0.380771  0  3.504921  0  0  -0.379065  -0.354  0  3.473072  0
N  N79  1  0.23769578  0.03545428  0.29262019  1  0  -0.421422  0  3.216025  0  0  -0.364889  0  3.486257  0  0  -0.380745  0  3.504986  0  0  -0.379026  -0.353975  0  3.473137  0
O  O80  1  0.84740113  0.83577295  0.91489571  1  0  -0.722797  0  2.019746  0  0  -0.662954  0  2.258239  0  0  -0.689561  0  2.248077  0  0  -0.365057  -0.644324  0  2.26456  0
O  O81  1  0.15260313  0.16422421  0.08510007  1  0  -0.722803  0  2.019707  0  0  -0.663001  0  2.258197  0  0  -0.689608  0  2.248036  0  0  -0.365111  -0.64437  0  2.264509  0
O  O82  1  0.59794272  0.68634477  0.77651958  1  0  -0.692873  0  1.99192  0  0  -0.645674  0  2.2366  0  0  -0.670842  0  2.22921  0  0  -0.386213  -0.628015  0  2.24099  0
O  O83  1  0.40206055  0.31364921  0.22347084  1  0  -0.692888  0  1.991927  0  0  -0.645646  0  2.236473  0  0  -0.67081  0  2.229075  0  0  -0.386233  -0.627998  0  2.240869  0
O  O84  1  0.28570976  0.81193709  0.78737315  1  0  -0.742556  0  2.052329  0  0  -0.67841  0  2.288682  0  0  -0.706051  0  2.279692  0  0  -0.390652  -0.658994  0  2.294665  0
O  O85  1  0.71428811  0.18806848  0.21262633  1  0  -0.742614  0  2.052319  0  0  -0.678432  0  2.288612  0  0  -0.70606  0  2.279592  0  0  -0.390661  -0.659021  0  2.294615  0
O  O86  1  0.37627795  0.80830755  0.62546540  1  0  -0.690403  0  1.965023  0  0  -0.645052  0  2.208446  0  0  -0.6698  0  2.199238  0  0  -0.367344  -0.627581  0  2.214212  0
O  O87  1  0.62372539  0.19169069  0.37453478  1  0  -0.690381  0  1.965005  0  0  -0.645021  0  2.208415  0  0  -0.669769  0  2.199207  0  0  -0.367313  -0.627547  0  2.214187  0
O  O88  1  0.48486131  0.11273495  0.79341765  1  0  -0.70759  0  2.012053  0  0  -0.655691  0  2.253551  0  0  -0.680824  0  2.244113  0  0  -0.375486  -0.637996  0  2.259646  0
O  O89  1  0.51513979  0.88726433  0.20658154  1  0  -0.707632  0  2.012012  0  0  -0.65576  0  2.253522  0  0  -0.680896  0  2.244082  0  0  -0.375502  -0.638065  0  2.25961  0
O  O90  1  0.44503940  0.11091899  0.97230266  1  0  -0.801478  0  2.111844  0  0  -0.736379  0  2.369387  0  0  -0.763967  0  2.359502  0  0  -0.426234  -0.716589  0  2.375427  0
O  O91  1  0.55495249  0.88907922  0.02769618  1  0  -0.801545  0  2.111831  0  0  -0.736483  0  2.369438  0  0  -0.764054  0  2.359508  0  0  -0.426281  -0.716713  0  2.375513  0
O  O92  1  0.80388904  0.12424967  0.00344129  1  0  -0.928123  0  1.845584  0  0  -0.882289  0  2.046678  0  0  -0.901752  0  2.014119  0  0  -0.65642  -0.868124  0  2.069134  0
O  O93  1  0.19610672  0.87574014  0.99655594  1  0  -0.928087  0  1.845547  0  0  -0.88225  0  2.046613  0  0  -0.901718  0  2.014069  0  0  -0.656417  -0.868089  0  2.06907  0
