# generated using pymatgen
data_KH24C12I(ClO3)2
_symmetry_space_group_name_H-M   'P 1'
_cell_length_a   8.02436314
_cell_length_b   8.85860789
_cell_length_c   13.88661123
_cell_angle_alpha   101.88549644
_cell_angle_beta   90.00004863
_cell_angle_gamma   89.99989091
_symmetry_Int_Tables_number   1
_chemical_formula_structural   KH24C12I(ClO3)2
_chemical_formula_sum   'K2 H48 C24 I2 Cl4 O12'
_cell_volume   965.96257552
_cell_formula_units_Z   2
loop_
 _symmetry_equiv_pos_site_id
 _symmetry_equiv_pos_as_xyz
  1  'x, y, z'
loop_
 _atom_site_type_symbol
 _atom_site_label
 _atom_site_symmetry_multiplicity
 _atom_site_fract_x
 _atom_site_fract_y
 _atom_site_fract_z
 _atom_site_occupancy
 _atom_site_hle17_bader_spin_density
 _atom_site_hle17_ddec_charge
 _atom_site_hle17_ddec_spin_density
 _atom_site_hle17_ddec_sum_bond_order
 _atom_site_hle17_magmom
 _atom_site_hse06_10hf_bader_spin_density
 _atom_site_hse06_10hf_ddec_charge
 _atom_site_hse06_10hf_ddec_spin_density
 _atom_site_hse06_10hf_ddec_sum_bond_order
 _atom_site_hse06_10hf_magmom
 _atom_site_hse06_bader_spin_density
 _atom_site_hse06_ddec_charge
 _atom_site_hse06_ddec_spin_density
 _atom_site_hse06_ddec_sum_bond_order
 _atom_site_hse06_magmom
 _atom_site_pbe_bader_spin_density
 _atom_site_pbe_cm5_charge
 _atom_site_pbe_ddec_charge
 _atom_site_pbe_ddec_spin_density
 _atom_site_pbe_ddec_sum_bond_order
 _atom_site_pbe_magmom
K  K0  1  0.50000249  0.99999978  0.00000121  1  0  0.875199  0  0.525454  0  0  0.792278  0  0.736421  0  0  0.809852  0  0.714343  0  0  0.698982  0.77933  0  0.752012  0
K  K1  1  0.99998948  0.49999611  0.49999809  1  0  0.875184  0  0.525482  0  0  0.792294  0  0.736386  0  0  0.809869  0  0.714308  0  0  0.698984  0.779348  0  0.751976  0
H  H2  1  0.71494595  0.49561984  0.01808700  1  0  0.057823  0  0.955341  0  0  0.07078  0  1.024717  0  0  0.071067  0  1.024412  0  0  0.08816  0.070362  0  1.025178  0
H  H3  1  0.21494950  0.00438094  0.48191241  1  0  0.057792  0  0.955275  0  0  0.070755  0  1.024659  0  0  0.07104  0  1.024354  0  0  0.088145  0.070337  0  1.025121  0
H  H4  1  0.28505085  0.50438243  0.98191457  1  0  0.057857  0  0.955435  0  0  0.070802  0  1.024806  0  0  0.071086  0  1.024507  0  0  0.088168  0.0704  0  1.025251  0
H  H5  1  0.78505229  0.99562017  0.51808542  1  0  0.057836  0  0.955242  0  0  0.07079  0  1.02462  0  0  0.071077  0  1.024316  0  0  0.088161  0.070368  0  1.025086  0
H  H6  1  0.83280970  0.32989081  0.03317223  1  0  0.047702  0  0.957662  0  0  0.056421  0  1.034997  0  0  0.056969  0  1.034149  0  0  0.088239  0.055989  0  1.035703  0
H  H7  1  0.33281287  0.17010978  0.46682864  1  0  0.047687  0  0.957608  0  0  0.056404  0  1.034961  0  0  0.056952  0  1.034113  0  0  0.088243  0.055974  0  1.035664  0
H  H8  1  0.16718586  0.67011146  0.96682934  1  0  0.047692  0  0.957616  0  0  0.056403  0  1.034963  0  0  0.056951  0  1.034115  0  0  0.088238  0.05597  0  1.035673  0
H  H9  1  0.66718767  0.82989134  0.53317062  1  0  0.047707  0  0.957602  0  0  0.056416  0  1.034953  0  0  0.056966  0  1.034104  0  0  0.088249  0.055984  0  1.03566  0
H  H10  1  0.68714452  0.46701840  0.18774033  1  0  0.057985  0  0.938942  0  0  0.073448  0  1.002103  0  0  0.073746  0  1.002085  0  0  0.101334  0.073277  0  1.001944  0
H  H11  1  0.18714527  0.03298588  0.31225952  1  0  0.058047  0  0.938865  0  0  0.073483  0  1.002047  0  0  0.073784  0  1.002026  0  0  0.101345  0.073311  0  1.001889  0
H  H12  1  0.31285478  0.53298271  0.81226109  1  0  0.058019  0  0.938907  0  0  0.073456  0  1.002101  0  0  0.073756  0  1.002085  0  0  0.101343  0.073285  0  1.001942  0
H  H13  1  0.81285528  0.96701638  0.68773917  1  0  0.058058  0  0.93888  0  0  0.073499  0  1.002071  0  0  0.073799  0  1.002054  0  0  0.101354  0.073327  0  1.001912  0
H  H14  1  0.49066663  0.42251113  0.12657149  1  0  0.050439  0  0.9276  0  0  0.064053  0  0.994383  0  0  0.064853  0  0.993362  0  0  0.097971  0.06319  0  0.995431  0
H  H15  1  0.99066947  0.07749150  0.37342901  1  0  0.050477  0  0.927578  0  0  0.06406  0  0.994372  0  0  0.064861  0  0.993356  0  0  0.097966  0.063197  0  0.995421  0
H  H16  1  0.50933267  0.57748767  0.87343035  1  0  0.050473  0  0.927544  0  0  0.064081  0  0.994332  0  0  0.064882  0  0.993315  0  0  0.09799  0.063218  0  0.995379  0
H  H17  1  0.00933232  0.92250961  0.62657025  1  0  0.050477  0  0.927586  0  0  0.06406  0  0.994409  0  0  0.064861  0  0.993392  0  0  0.097972  0.063197  0  0.995456  0
H  H18  1  0.43193199  0.27908242  0.25601783  1  0  0.058734  0  0.931204  0  0  0.071566  0  0.999032  0  0  0.072449  0  0.998147  0  0  0.099715  0.070672  0  0.999878  0
H  H19  1  0.93193434  0.22091916  0.24398179  1  0  0.058717  0  0.931182  0  0  0.071503  0  0.999051  0  0  0.072387  0  0.998166  0  0  0.099703  0.070611  0  0.999894  0
H  H20  1  0.56806855  0.72091639  0.74398401  1  0  0.058729  0  0.931205  0  0  0.071545  0  0.999047  0  0  0.07243  0  0.998163  0  0  0.099712  0.070654  0  0.99989  0
H  H21  1  0.06806869  0.77908080  0.75601588  1  0  0.058738  0  0.931167  0  0  0.071549  0  0.999015  0  0  0.072434  0  0.998131  0  0  0.099709  0.070658  0  0.999857  0
H  H22  1  0.63745485  0.30659952  0.30528134  1  0  0.049573  0  0.955992  0  0  0.057368  0  1.034012  0  0  0.058056  0  1.033022  0  0  0.091981  0.056271  0  1.035267  0
H  H23  1  0.13745758  0.19340139  0.19471876  1  0  0.049579  0  0.955935  0  0  0.057392  0  1.03393  0  0  0.058081  0  1.03294  0  0  0.091971  0.056292  0  1.03519  0
H  H24  1  0.36254444  0.69339929  0.69471978  1  0  0.049546  0  0.955917  0  0  0.057347  0  1.033945  0  0  0.058035  0  1.032955  0  0  0.091952  0.056249  0  1.035202  0
H  H25  1  0.86254546  0.80659972  0.80527978  1  0  0.049543  0  0.955929  0  0  0.057345  0  1.033954  0  0  0.058034  0  1.032963  0  0  0.091951  0.056247  0  1.035213  0
H  H26  1  0.68802859  0.01933487  0.24601200  1  0  0.046546  0  0.935007  0  0  0.058731  0  1.007059  0  0  0.059983  0  1.004957  0  0  0.097384  0.057676  0  1.008705  0
H  H27  1  0.18802956  0.48066711  0.25398754  1  0  0.046588  0  0.934942  0  0  0.058732  0  1.007038  0  0  0.059985  0  1.004936  0  0  0.097387  0.057678  0  1.008684  0
H  H28  1  0.31197195  0.98066509  0.75398783  1  0  0.046537  0  0.934984  0  0  0.05872  0  1.007043  0  0  0.059972  0  1.004938  0  0  0.097388  0.057665  0  1.008691  0
H  H29  1  0.81197099  0.51933516  0.74601331  1  0  0.046548  0  0.934981  0  0  0.058729  0  1.007044  0  0  0.059982  0  1.004939  0  0  0.097383  0.057674  0  1.008692  0
H  H30  1  0.53661223  0.06975612  0.34216952  1  0  0.055828  0  0.930024  0  0  0.070536  0  0.995634  0  0  0.07063  0  0.99579  0  0  0.096975  0.070149  0  0.99605  0
H  H31  1  0.03661316  0.43024495  0.15782912  1  0  0.055786  0  0.930083  0  0  0.070517  0  0.995661  0  0  0.070612  0  0.995817  0  0  0.096969  0.07013  0  0.996077  0
H  H32  1  0.46338956  0.93024269  0.65783088  1  0  0.055803  0  0.930026  0  0  0.070528  0  0.995632  0  0  0.07061  0  0.995798  0  0  0.096989  0.070159  0  0.996031  0
H  H33  1  0.96338987  0.56975616  0.84216870  1  0  0.055821  0  0.930012  0  0  0.07054  0  0.995624  0  0  0.070624  0  0.995791  0  0  0.096982  0.070169  0  0.996026  0
H  H34  1  0.39875748  0.81582447  0.28759274  1  0  0.048773  0  0.947822  0  0  0.059462  0  1.021921  0  0  0.060026  0  1.021226  0  0  0.089561  0.058844  0  1.022632  0
H  H35  1  0.89875737  0.68417736  0.21240656  1  0  0.048766  0  0.947823  0  0  0.05945  0  1.021927  0  0  0.060015  0  1.021231  0  0  0.089542  0.058831  0  1.022639  0
H  H36  1  0.60124555  0.18417549  0.71240781  1  0  0.048697  0  0.947812  0  0  0.059415  0  1.021893  0  0  0.059981  0  1.021197  0  0  0.089539  0.058798  0  1.022606  0
H  H37  1  0.10124442  0.31582376  0.78759198  1  0  0.048762  0  0.947848  0  0  0.059471  0  1.021914  0  0  0.060037  0  1.021217  0  0  0.089564  0.058852  0  1.022626  0
H  H38  1  0.56480304  0.77253111  0.19979069  1  0  0.054249  0  0.931721  0  0  0.068854  0  0.99885  0  0  0.069302  0  0.998661  0  0  0.098422  0.068505  0  0.998909  0
H  H39  1  0.06480211  0.72747011  0.30021053  1  0  0.054259  0  0.931716  0  0  0.068853  0  0.99886  0  0  0.0693  0  0.998672  0  0  0.098421  0.068503  0  0.99892  0
H  H40  1  0.43520000  0.22746770  0.80021042  1  0  0.054308  0  0.931683  0  0  0.068905  0  0.998827  0  0  0.069355  0  0.998635  0  0  0.098446  0.068555  0  0.998887  0
H  H41  1  0.93519843  0.27252870  0.69978915  1  0  0.054303  0  0.931716  0  0  0.068882  0  0.998872  0  0  0.069331  0  0.998683  0  0  0.098438  0.068532  0  0.998931  0
H  H42  1  0.30064513  0.61751115  0.15474525  1  0  0.042276  0  0.949996  0  0  0.056198  0  1.02067  0  0  0.0562  0  1.020396  0  0  0.095906  0.055855  0  1.021236  0
H  H43  1  0.80064355  0.88248852  0.34525445  1  0  0.042329  0  0.950018  0  0  0.056206  0  1.020722  0  0  0.056209  0  1.020452  0  0  0.095927  0.055865  0  1.021288  0
H  H44  1  0.69935666  0.38248881  0.84525530  1  0  0.042317  0  0.949962  0  0  0.0562  0  1.020677  0  0  0.056205  0  1.020406  0  0  0.0959  0.055855  0  1.021241  0
H  H45  1  0.19935824  0.11750913  0.65474508  1  0  0.042346  0  0.949978  0  0  0.056239  0  1.020674  0  0  0.056245  0  1.020405  0  0  0.095924  0.055896  0  1.021238  0
H  H46  1  0.19774830  0.79104300  0.14092454  1  0  0.049644  0  0.936785  0  0  0.058947  0  1.011998  0  0  0.059828  0  1.010881  0  0  0.093748  0.05808  0  1.013004  0
H  H47  1  0.69774835  0.70895685  0.35907513  1  0  0.049627  0  0.936834  0  0  0.058927  0  1.01204  0  0  0.05981  0  1.010923  0  0  0.093733  0.058062  0  1.013046  0
H  H48  1  0.80224850  0.20895812  0.85907688  1  0  0.049695  0  0.93687  0  0  0.059032  0  1.012027  0  0  0.059926  0  1.010908  0  0  0.093766  0.058166  0  1.013032  0
H  H49  1  0.30224845  0.29104196  0.64092383  1  0  0.049665  0  0.936874  0  0  0.05899  0  1.01205  0  0  0.059882  0  1.010933  0  0  0.093761  0.058127  0  1.013056  0
C  C50  1  0.70564566  0.37763526  0.03236861  1  0  0.051105  0  3.666562  0  0  -0.006946  0  3.936257  0  0  -0.000818  0  3.94246  0  0  -0.081558  -0.011751  0  3.932869  0
C  C51  1  0.20564520  0.12236900  0.46763196  1  0  0.051162  0  3.66644  0  0  -0.00689  0  3.936144  0  0  -0.000757  0  3.942344  0  0  -0.081515  -0.011697  0  3.932751  0
C  C52  1  0.29435489  0.62236239  0.96763163  1  0  0.051079  0  3.666598  0  0  -0.006931  0  3.936272  0  0  -0.000803  0  3.94248  0  0  -0.081523  -0.011748  0  3.93288  0
C  C53  1  0.79435535  0.87763212  0.53236730  1  0  0.051097  0  3.666449  0  0  -0.006897  0  3.936101  0  0  -0.000771  0  3.942315  0  0  -0.08153  -0.011697  0  3.932705  0
C  C54  1  0.62127890  0.38397244  0.13003367  1  0  0.065417  0  3.65708  0  0  0.009252  0  3.924623  0  0  0.015362  0  3.930538  0  0  -0.075686  0.005517  0  3.92035  0
C  C55  1  0.12128330  0.11602965  0.36996658  1  0  0.065313  0  3.65706  0  0  0.009217  0  3.92456  0  0  0.015318  0  3.930483  0  0  -0.0757  0.005482  0  3.920288  0
C  C56  1  0.37871416  0.61602867  0.86996775  1  0  0.06538  0  3.657088  0  0  0.009211  0  3.924635  0  0  0.015314  0  3.930555  0  0  -0.075695  0.005473  0  3.92037  0
C  C57  1  0.87871725  0.88397147  0.63003268  1  0  0.065268  0  3.65713  0  0  0.009101  0  3.924696  0  0  0.015203  0  3.930622  0  0  -0.075761  0.005367  0  3.920421  0
C  C58  1  0.56031606  0.23299553  0.24839411  1  0  0.051284  0  3.681407  0  0  -0.007572  0  3.955551  0  0  -0.001539  0  3.961286  0  0  -0.078922  -0.01144  0  3.951662  0
C  C59  1  0.06031871  0.26700666  0.25160612  1  0  0.051346  0  3.681367  0  0  -0.00748  0  3.955476  0  0  -0.001447  0  3.961212  0  0  -0.078869  -0.011347  0  3.951586  0
C  C60  1  0.43968449  0.76700559  0.75160803  1  0  0.051268  0  3.681344  0  0  -0.007615  0  3.955533  0  0  -0.001584  0  3.961265  0  0  -0.078898  -0.011484  0  3.951649  0
C  C61  1  0.93968308  0.73299330  0.74839227  1  0  0.051296  0  3.681304  0  0  -0.007586  0  3.955488  0  0  -0.001555  0  3.961222  0  0  -0.078897  -0.011453  0  3.951602  0
C  C62  1  0.56290087  0.06973067  0.26405209  1  0  0.058071  0  3.669562  0  0  -0.002554  0  3.942859  0  0  0.003801  0  3.948848  0  0  -0.07658  -0.006636  0  3.938529  0
C  C63  1  0.06290066  0.43027036  0.23594727  1  0  0.058087  0  3.669587  0  0  -0.002515  0  3.942853  0  0  0.003838  0  3.948842  0  0  -0.076563  -0.006599  0  3.938524  0
C  C64  1  0.43710092  0.93026813  0.73594831  1  0  0.058149  0  3.669499  0  0  -0.00248  0  3.942793  0  0  0.00389  0  3.948773  0  0  -0.076582  -0.006577  0  3.938464  0
C  C65  1  0.93709988  0.56973076  0.76405127  1  0  0.058082  0  3.669483  0  0  -0.00255  0  3.942781  0  0  0.003813  0  3.948769  0  0  -0.076576  -0.006646  0  3.938453  0
C  C66  1  0.43864843  0.82295841  0.21240667  1  0  0.051683  0  3.677766  0  0  -0.008279  0  3.950791  0  0  -0.002239  0  3.95689  0  0  -0.079713  -0.012224  0  3.946541  0
C  C67  1  0.93864845  0.67704220  0.28759322  1  0  0.051689  0  3.677821  0  0  -0.008261  0  3.950814  0  0  -0.002217  0  3.956915  0  0  -0.079693  -0.012203  0  3.946566  0
C  C68  1  0.56135086  0.17704040  0.78759373  1  0  0.051689  0  3.67769  0  0  -0.00831  0  3.950714  0  0  -0.002268  0  3.956819  0  0  -0.079734  -0.012257  0  3.946467  0
C  C69  1  0.06135085  0.32295776  0.71240589  1  0  0.051617  0  3.677904  0  0  -0.008337  0  3.950865  0  0  -0.002292  0  3.95697  0  0  -0.07973  -0.012279  0  3.946618  0
C  C70  1  0.32026400  0.73281793  0.13783712  1  0  0.055763  0  3.69191  0  0  -0.00347  0  3.965072  0  0  0.002736  0  3.971596  0  0  -0.077936  -0.007538  0  3.960952  0
C  C71  1  0.82026269  0.76718287  0.36216273  1  0  0.0557  0  3.692049  0  0  -0.00349  0  3.965178  0  0  0.002705  0  3.97172  0  0  -0.077962  -0.007568  0  3.96107  0
C  C72  1  0.67974153  0.26718087  0.86216544  1  0  0.055679  0  3.691974  0  0  -0.003533  0  3.965056  0  0  0.00265  0  3.971614  0  0  -0.077932  -0.007597  0  3.960933  0
C  C73  1  0.17974035  0.23281825  0.63783581  1  0  0.055633  0  3.692046  0  0  -0.003577  0  3.965131  0  0  0.002599  0  3.971701  0  0  -0.077954  -0.007653  0  3.961025  0
I  I74  1  0.99999930  0.99999881  0.99999968  1  0  0.073967  0  1.661689  0  0  0.056675  0  2.076415  0  0  0.069576  0  2.053543  0  0  0.129976  0.050141  0  2.090478  0
I  I75  1  0.49999965  0.49999998  0.50000064  1  0  0.073989  0  1.661676  0  0  0.056689  0  2.076407  0  0  0.069589  0  2.053535  0  0  0.129977  0.050153  0  2.090469  0
Cl  Cl76  1  0.18499710  0.22081736  0.96935544  1  0  -0.414592  0  0.971698  0  0  -0.376413  0  1.232193  0  0  -0.3866  0  1.217034  0  0  -0.24124  -0.368374  0  1.242081  0
Cl  Cl77  1  0.68499776  0.27918060  0.53064494  1  0  -0.414606  0  0.971705  0  0  -0.37643  0  1.232208  0  0  -0.386617  0  1.217049  0  0  -0.241247  -0.368387  0  1.242093  0
Cl  Cl78  1  0.81500096  0.77918029  0.03064265  1  0  -0.414602  0  0.971703  0  0  -0.376427  0  1.23221  0  0  -0.386614  0  1.217049  0  0  -0.241247  -0.368384  0  1.242096  0
Cl  Cl79  1  0.31500154  0.72081705  0.46935531  1  0  -0.4146  0  0.971696  0  0  -0.376419  0  1.232183  0  0  -0.386604  0  1.217022  0  0  -0.241244  -0.368377  0  1.242073  0
O  O80  1  0.60821815  0.28193288  0.95751719  1  0  -0.336589  0  2.304785  0  0  -0.263404  0  2.557486  0  0  -0.280061  0  2.560717  0  0  -0.283978  -0.252124  0  2.555394  0
O  O81  1  0.10821935  0.21806636  0.54248259  1  0  -0.336537  0  2.30477  0  0  -0.263382  0  2.557496  0  0  -0.280035  0  2.560726  0  0  -0.284005  -0.252099  0  2.555406  0
O  O82  1  0.39177990  0.71806708  0.04248264  1  0  -0.336601  0  2.304656  0  0  -0.263421  0  2.557366  0  0  -0.280081  0  2.560586  0  0  -0.284016  -0.252141  0  2.555281  0
O  O83  1  0.89178119  0.78193245  0.45751637  1  0  -0.336541  0  2.304788  0  0  -0.263376  0  2.557481  0  0  -0.280031  0  2.560707  0  0  -0.283971  -0.252093  0  2.555391  0
O  O84  1  0.62488560  0.23370570  0.15258711  1  0  -0.341991  0  2.294325  0  0  -0.270365  0  2.549019  0  0  -0.286329  0  2.551074  0  0  -0.283717  -0.259092  0  2.547081  0
O  O85  1  0.12488715  0.26629522  0.34741299  1  0  -0.34206  0  2.294415  0  0  -0.270457  0  2.549091  0  0  -0.286417  0  2.551149  0  0  -0.283764  -0.259183  0  2.547151  0
O  O86  1  0.37511370  0.76629310  0.84741401  1  0  -0.341996  0  2.294271  0  0  -0.270322  0  2.548935  0  0  -0.286282  0  2.550994  0  0  -0.283733  -0.259048  0  2.546999  0
O  O87  1  0.87511215  0.73370474  0.65258540  1  0  -0.341985  0  2.294334  0  0  -0.270314  0  2.548996  0  0  -0.286274  0  2.551055  0  0  -0.283696  -0.259042  0  2.547058  0
O  O88  1  0.44173137  0.98008011  0.20134281  1  0  -0.334311  0  2.268226  0  0  -0.26109  0  2.520485  0  0  -0.277135  0  2.522513  0  0  -0.27454  -0.249948  0  2.518847  0
O  O89  1  0.94173173  0.51992049  0.29865707  1  0  -0.33431  0  2.268229  0  0  -0.2611  0  2.520468  0  0  -0.277144  0  2.522494  0  0  -0.274551  -0.249958  0  2.518832  0
O  O90  1  0.55826917  0.01991870  0.79865830  1  0  -0.334313  0  2.268185  0  0  -0.261091  0  2.520445  0  0  -0.277136  0  2.522471  0  0  -0.27455  -0.24995  0  2.518815  0
O  O91  1  0.05826757  0.48007947  0.70134132  1  0  -0.334256  0  2.268193  0  0  -0.261026  0  2.520424  0  0  -0.277071  0  2.522451  0  0  -0.274535  -0.249884  0  2.518789  0
