# generated using pymatgen
data_ZnH7C6SN7O2
_symmetry_space_group_name_H-M   'P 1'
_cell_length_a   7.44649139
_cell_length_b   9.80143538
_cell_length_c   15.49902312
_cell_angle_alpha   90.00000821
_cell_angle_beta   89.99989548
_cell_angle_gamma   89.99983120
_symmetry_Int_Tables_number   1
_chemical_formula_structural   ZnH7C6SN7O2
_chemical_formula_sum   'Zn4 H28 C24 S4 N28 O8'
_cell_volume   1131.21641450
_cell_formula_units_Z   4
loop_
 _symmetry_equiv_pos_site_id
 _symmetry_equiv_pos_as_xyz
  1  'x, y, z'
loop_
 _atom_site_type_symbol
 _atom_site_label
 _atom_site_symmetry_multiplicity
 _atom_site_fract_x
 _atom_site_fract_y
 _atom_site_fract_z
 _atom_site_occupancy
 _atom_site_hle17_bader_spin_density
 _atom_site_hle17_ddec_charge
 _atom_site_hle17_ddec_spin_density
 _atom_site_hle17_ddec_sum_bond_order
 _atom_site_hle17_magmom
 _atom_site_hse06_10hf_bader_spin_density
 _atom_site_hse06_10hf_ddec_charge
 _atom_site_hse06_10hf_ddec_spin_density
 _atom_site_hse06_10hf_ddec_sum_bond_order
 _atom_site_hse06_10hf_magmom
 _atom_site_hse06_bader_spin_density
 _atom_site_hse06_ddec_charge
 _atom_site_hse06_ddec_spin_density
 _atom_site_hse06_ddec_sum_bond_order
 _atom_site_hse06_magmom
 _atom_site_pbe_bader_spin_density
 _atom_site_pbe_cm5_charge
 _atom_site_pbe_ddec_charge
 _atom_site_pbe_ddec_spin_density
 _atom_site_pbe_ddec_sum_bond_order
 _atom_site_pbe_magmom
Zn  Zn0  1  0.04668132  0.21452877  0.35793287  1  0  0.889477  0  2.011682  0  0  0.674699  0  2.498501  0  0  0.713916  0  2.453335  0  0  0.747943  0.647444  0  2.529452  0
Zn  Zn1  1  0.45332451  0.78547127  0.85793132  1  0  0.889471  0  2.011659  0  0  0.674675  0  2.498491  0  0  0.713892  0  2.453317  0  0  0.747948  0.647424  0  2.529446  0
Zn  Zn2  1  0.54667720  0.28547090  0.64206927  1  0  0.889466  0  2.01166  0  0  0.674675  0  2.498485  0  0  0.713897  0  2.453316  0  0  0.74795  0.647426  0  2.52943  0
Zn  Zn3  1  0.95332253  0.71452896  0.14206856  1  0  0.889457  0  2.011647  0  0  0.674679  0  2.498467  0  0  0.713902  0  2.453301  0  0  0.747948  0.647431  0  2.529424  0
H  H4  1  0.35255474  0.84482179  0.16584582  1  0  0.119562  0  0.929666  0  0  0.125848  0  0.990972  0  0  0.128381  0  0.990319  0  0  0.125749  0.123892  0  0.991848  0
H  H5  1  0.14744106  0.15517616  0.66584642  1  0  0.11958  0  0.929786  0  0  0.125903  0  0.991042  0  0  0.128436  0  0.99039  0  0  0.125774  0.123946  0  0.99192  0
H  H6  1  0.85255712  0.65517764  0.83415222  1  0  0.119556  0  0.929722  0  0  0.125849  0  0.991018  0  0  0.128382  0  0.990366  0  0  0.125723  0.123898  0  0.991896  0
H  H7  1  0.64744861  0.34482124  0.33415498  1  0  0.11956  0  0.929673  0  0  0.12584  0  0.990987  0  0  0.128372  0  0.990335  0  0  0.125746  0.123886  0  0.99186  0
H  H8  1  0.39648676  0.07783205  0.26563012  1  0  0.116633  0  0.939096  0  0  0.122094  0  1.004171  0  0  0.12537  0  1.001694  0  0  0.125113  0.119589  0  1.006325  0
H  H9  1  0.10351404  0.92216490  0.76563083  1  0  0.116612  0  0.939129  0  0  0.122073  0  1.004205  0  0  0.125348  0  1.001728  0  0  0.125096  0.119565  0  1.006363  0
H  H10  1  0.89648716  0.42216681  0.73436784  1  0  0.116624  0  0.939116  0  0  0.122085  0  1.004196  0  0  0.125362  0  1.001719  0  0  0.125123  0.11958  0  1.006356  0
H  H11  1  0.60351492  0.57783103  0.23436937  1  0  0.116619  0  0.939139  0  0  0.122085  0  1.004208  0  0  0.125357  0  1.001732  0  0  0.125122  0.119578  0  1.006366  0
H  H12  1  0.99744826  0.80792141  0.63011995  1  0  0.087031  0  0.937091  0  0  0.103801  0  0.996564  0  0  0.104171  0  0.997309  0  0  0.09529  0.103598  0  0.99578  0
H  H13  1  0.50255017  0.19207437  0.13012153  1  0  0.086993  0  0.937104  0  0  0.103759  0  0.996585  0  0  0.104128  0  0.997333  0  0  0.095278  0.103552  0  0.995801  0
H  H14  1  0.49745376  0.69207361  0.36987989  1  0  0.087006  0  0.937132  0  0  0.103774  0  0.996623  0  0  0.104141  0  0.997369  0  0  0.095283  0.103566  0  0.995838  0
H  H15  1  0.00254397  0.30792846  0.86987871  1  0  0.08696  0  0.937189  0  0  0.10373  0  0.996679  0  0  0.104096  0  0.997429  0  0  0.095265  0.103526  0  0.995897  0
H  H16  1  0.78447158  0.78910604  0.57928006  1  0  0.08362  0  0.949712  0  0  0.098444  0  1.012093  0  0  0.099631  0  1.011795  0  0  0.092334  0.097535  0  1.012533  0
H  H17  1  0.71552704  0.21089177  0.07928211  1  0  0.083596  0  0.949759  0  0  0.098416  0  1.012138  0  0  0.099606  0  1.01184  0  0  0.092312  0.097507  0  1.012577  0
H  H18  1  0.28447816  0.71089254  0.42071997  1  0  0.083582  0  0.949826  0  0  0.098408  0  1.012216  0  0  0.099589  0  1.011911  0  0  0.09232  0.097497  0  1.012654  0
H  H19  1  0.21552072  0.28910853  0.92071665  1  0  0.083586  0  0.949801  0  0  0.098411  0  1.012183  0  0  0.099595  0  1.011882  0  0  0.092339  0.0975  0  1.012617  0
H  H20  1  0.93732383  0.56090867  0.59633332  1  0  0.103038  0  0.965158  0  0  0.121899  0  1.033654  0  0  0.122443  0  1.034659  0  0  0.085211  0.121982  0  1.031409  0
H  H21  1  0.56267204  0.43908709  0.09633745  1  0  0.103076  0  0.965117  0  0  0.121888  0  1.033672  0  0  0.122443  0  1.034664  0  0  0.085209  0.12197  0  1.031429  0
H  H22  1  0.43733364  0.93908853  0.40366529  1  0  0.102987  0  0.965123  0  0  0.121865  0  1.033617  0  0  0.122434  0  1.034597  0  0  0.085178  0.121944  0  1.03137  0
H  H23  1  0.06266664  0.06091254  0.90366273  1  0  0.103012  0  0.965173  0  0  0.121895  0  1.033668  0  0  0.122452  0  1.034654  0  0  0.085214  0.121979  0  1.031416  0
H  H24  1  0.91364704  0.59971321  0.48521213  1  0  0.095374  0  0.961441  0  0  0.110396  0  1.032013  0  0  0.112112  0  1.031683  0  0  0.078336  0.109529  0  1.03128  0
H  H25  1  0.58634872  0.40028673  0.98521540  1  0  0.095335  0  0.961395  0  0  0.110373  0  1.031953  0  0  0.112085  0  1.031631  0  0  0.078314  0.109508  0  1.031215  0
H  H26  1  0.41365524  0.90028507  0.51478714  1  0  0.095366  0  0.961346  0  0  0.110397  0  1.031916  0  0  0.112113  0  1.031591  0  0  0.078335  0.10953  0  1.031181  0
H  H27  1  0.08634515  0.09971489  0.01478477  1  0  0.095366  0  0.961412  0  0  0.110394  0  1.031983  0  0  0.11211  0  1.031657  0  0  0.078321  0.109529  0  1.031244  0
H  H28  1  0.12537634  0.62013970  0.53805388  1  0  0.090467  0  0.993573  0  0  0.106307  0  1.065119  0  0  0.107095  0  1.066409  0  0  0.075805  0.105483  0  1.064503  0
H  H29  1  0.37462262  0.37985822  0.03805838  1  0  0.090452  0  0.993565  0  0  0.106334  0  1.065074  0  0  0.107122  0  1.066366  0  0  0.07581  0.105513  0  1.064458  0
H  H30  1  0.62538328  0.87985618  0.46194436  1  0  0.090541  0  0.993488  0  0  0.106397  0  1.065013  0  0  0.107184  0  1.066308  0  0  0.075834  0.105571  0  1.064401  0
H  H31  1  0.87461660  0.12014477  0.96194282  1  0  0.090558  0  0.993497  0  0  0.106432  0  1.064997  0  0  0.107219  0  1.066291  0  0  0.075861  0.105609  0  1.064385  0
C  C32  1  0.25418340  0.90216249  0.20245011  1  0  0.063032  0  3.621404  0  0  0.018123  0  3.897614  0  0  0.019378  0  3.916888  0  0  0.025164  0.01728  0  3.884643  0
C  C33  1  0.24581360  0.09783853  0.70244933  1  0  0.063028  0  3.62162  0  0  0.018082  0  3.897817  0  0  0.019337  0  3.917091  0  0  0.025175  0.017241  0  3.884845  0
C  C34  1  0.75418345  0.59783921  0.79754996  1  0  0.062989  0  3.621465  0  0  0.018073  0  3.897645  0  0  0.019327  0  3.916918  0  0  0.025166  0.017223  0  3.884685  0
C  C35  1  0.74581973  0.40216068  0.29755134  1  0  0.063093  0  3.621328  0  0  0.018187  0  3.897521  0  0  0.019441  0  3.916796  0  0  0.025211  0.017339  0  3.884553  0
C  C36  1  0.99803687  0.95981544  0.25492857  1  0  0.308061  0  3.779297  0  0  0.259501  0  4.055808  0  0  0.265563  0  4.075814  0  0  0.290021  0.255318  0  4.042421  0
C  C37  1  0.50196244  0.04018750  0.75492865  1  0  0.308049  0  3.779323  0  0  0.259499  0  4.055806  0  0  0.265561  0  4.075814  0  0  0.290087  0.255321  0  4.04241  0
C  C38  1  0.49803617  0.54018570  0.74507257  1  0  0.308037  0  3.779269  0  0  0.259456  0  4.055771  0  0  0.265516  0  4.07578  0  0  0.290051  0.255285  0  4.042365  0
C  C39  1  0.00196739  0.45981431  0.24507224  1  0  0.308123  0  3.779036  0  0  0.259514  0  4.0556  0  0  0.265575  0  4.075609  0  0  0.290066  0.255333  0  4.042211  0
C  C40  1  0.90074264  0.04159293  0.51362810  1  0  0.242603  0  3.844009  0  0  0.220862  0  4.145513  0  0  0.233649  0  4.159612  0  0  0.211102  0.212101  0  4.136119  0
C  C41  1  0.59925757  0.95840588  0.01362709  1  0  0.242635  0  3.844071  0  0  0.220889  0  4.145581  0  0  0.233672  0  4.159682  0  0  0.211152  0.212123  0  4.136187  0
C  C42  1  0.40074267  0.45840796  0.48637372  1  0  0.242659  0  3.844065  0  0  0.220935  0  4.145534  0  0  0.23372  0  4.159636  0  0  0.211151  0.212181  0  4.136134  0
C  C43  1  0.09925865  0.54159312  0.98637247  1  0  0.242647  0  3.84409  0  0  0.220864  0  4.145646  0  0  0.23365  0  4.159747  0  0  0.211106  0.212102  0  4.136262  0
C  C44  1  0.27559774  0.02025593  0.25150024  1  0  0.056652  0  3.635511  0  0  0.012866  0  3.912649  0  0  0.014127  0  3.931436  0  0  0.023823  0.011923  0  3.90009  0
C  C45  1  0.22440177  0.97974102  0.75150086  1  0  0.056678  0  3.635553  0  0  0.012885  0  3.912679  0  0  0.014146  0  3.931468  0  0  0.023835  0.011946  0  3.900119  0
C  C46  1  0.77559787  0.47974117  0.74849846  1  0  0.056666  0  3.635559  0  0  0.012865  0  3.912684  0  0  0.014127  0  3.931469  0  0  0.023822  0.011926  0  3.90013  0
C  C47  1  0.72440280  0.52025769  0.24849988  1  0  0.056572  0  3.635429  0  0  0.012783  0  3.912567  0  0  0.014051  0  3.931347  0  0  0.023754  0.011844  0  3.90001  0
C  C48  1  0.92972929  0.77643630  0.57048267  1  0  -0.082386  0  3.653837  0  0  -0.114242  0  3.916598  0  0  -0.112638  0  3.927971  0  0  -0.145864  -0.115378  0  3.908625  0
C  C49  1  0.57026802  0.22356253  0.07048420  1  0  -0.082381  0  3.653879  0  0  -0.114224  0  3.916631  0  0  -0.112633  0  3.928031  0  0  -0.145864  -0.115357  0  3.908651  0
C  C50  1  0.42973579  0.72356092  0.42951659  1  0  -0.082335  0  3.653826  0  0  -0.114238  0  3.916682  0  0  -0.112619  0  3.928045  0  0  -0.145867  -0.115368  0  3.908697  0
C  C51  1  0.07026306  0.27643913  0.92951469  1  0  -0.082246  0  3.653834  0  0  -0.114141  0  3.916674  0  0  -0.112516  0  3.928016  0  0  -0.145846  -0.115277  0  3.908704  0
C  C52  1  0.97963634  0.63130035  0.54528170  1  0  -0.2896  0  3.729858  0  0  -0.364181  0  3.97735  0  0  -0.366481  0  3.987663  0  0  -0.257842  -0.362008  0  3.968879  0
C  C53  1  0.52035838  0.36869847  0.04528586  1  0  -0.289551  0  3.72979  0  0  -0.364137  0  3.977232  0  0  -0.366439  0  3.987547  0  0  -0.257796  -0.361963  0  3.968754  0
C  C54  1  0.47964623  0.86869676  0.45471622  1  0  -0.289615  0  3.729683  0  0  -0.364216  0  3.977146  0  0  -0.366541  0  3.987437  0  0  -0.257843  -0.36204  0  3.968672  0
C  C55  1  0.02035387  0.13130432  0.95471436  1  0  -0.289669  0  3.729841  0  0  -0.364299  0  3.977316  0  0  -0.366611  0  3.987622  0  0  -0.257873  -0.362127  0  3.968835  0
S  S56  1  0.00092000  0.88944631  0.48358407  1  0  -0.001019  0  2.382489  0  0  0.00392  0  2.71973  0  0  -0.003611  0  2.721281  0  0  0.036216  0.009216  0  2.718059  0
S  S57  1  0.49907730  0.11055273  0.98358500  1  0  -0.001033  0  2.382491  0  0  0.0039  0  2.719737  0  0  -0.003632  0  2.721296  0  0  0.036207  0.009196  0  2.718063  0
S  S58  1  0.50092508  0.61055291  0.51641687  1  0  -0.001024  0  2.382475  0  0  0.003921  0  2.719723  0  0  -0.003615  0  2.721272  0  0  0.036226  0.009215  0  2.718048  0
S  S59  1  0.99907781  0.38944896  0.01641544  1  0  -0.001063  0  2.382423  0  0  0.003898  0  2.7197  0  0  -0.00364  0  2.721248  0  0  0.036208  0.009198  0  2.71803  0
N  N60  1  0.81210901  0.95742621  0.27615515  1  0  0.446361  0  3.977221  0  0  0.472201  0  4.286774  0  0  0.493837  0  4.291765  0  0  0.048544  0.457623  0  4.283469  0
N  N61  1  0.68788888  0.04257980  0.77615377  1  0  0.446473  0  3.977156  0  0  0.472297  0  4.286713  0  0  0.493933  0  4.291703  0  0  0.048584  0.457723  0  4.283411  0
N  N62  1  0.31210838  0.54257842  0.72384680  1  0  0.44646  0  3.977238  0  0  0.472309  0  4.286772  0  0  0.493946  0  4.291762  0  0  0.048613  0.45774  0  4.283459  0
N  N63  1  0.18789392  0.45742261  0.22384566  1  0  0.44637  0  3.977333  0  0  0.472212  0  4.286901  0  0  0.493848  0  4.291896  0  0  0.048555  0.457645  0  4.283591  0
N  N64  1  0.11187756  0.05638246  0.28392430  1  0  -0.409464  0  3.307471  0  0  -0.328521  0  3.606312  0  0  -0.344817  0  3.618952  0  0  -0.355531  -0.31708  0  3.59742  0
N  N65  1  0.38812317  0.94361756  0.78392411  1  0  -0.409449  0  3.307476  0  0  -0.328481  0  3.606277  0  0  -0.344777  0  3.618916  0  0  -0.35554  -0.317044  0  3.597385  0
N  N66  1  0.61187660  0.44361808  0.71607649  1  0  -0.409418  0  3.307445  0  0  -0.328449  0  3.606262  0  0  -0.344746  0  3.618905  0  0  -0.355522  -0.317012  0  3.597365  0
N  N67  1  0.88812554  0.55638282  0.21607647  1  0  -0.40943  0  3.307146  0  0  -0.328471  0  3.605988  0  0  -0.344768  0  3.618627  0  0  -0.355532  -0.317036  0  3.597104  0
N  N68  1  0.75133227  0.19580114  0.57641407  1  0  -0.115664  0  3.291138  0  0  -0.048035  0  3.602694  0  0  -0.056932  0  3.614094  0  0  -0.123963  -0.042233  0  3.594921  0
N  N69  1  0.74866502  0.80419565  0.07641420  1  0  -0.115732  0  3.291297  0  0  -0.048125  0  3.602887  0  0  -0.057022  0  3.614291  0  0  -0.124011  -0.042323  0  3.595111  0
N  N70  1  0.25133580  0.30419908  0.42358724  1  0  -0.115839  0  3.291228  0  0  -0.048216  0  3.602804  0  0  -0.057112  0  3.614203  0  0  -0.124047  -0.042418  0  3.595037  0
N  N71  1  0.24866844  0.69580199  0.92358652  1  0  -0.115728  0  3.291357  0  0  -0.048097  0  3.602907  0  0  -0.056992  0  3.614306  0  0  -0.124009  -0.042298  0  3.595135  0
N  N72  1  0.91177858  0.15721577  0.46531022  1  0  -0.327769  0  3.254985  0  0  -0.256252  0  3.560584  0  0  -0.273575  0  3.570301  0  0  -0.244343  -0.24518  0  3.554292  0
N  N73  1  0.58822532  0.84278416  0.96530836  1  0  -0.327738  0  3.254984  0  0  -0.256219  0  3.560581  0  0  -0.273526  0  3.570277  0  0  -0.244331  -0.245154  0  3.554308  0
N  N74  1  0.41177484  0.34278510  0.53469353  1  0  -0.327772  0  3.255058  0  0  -0.25624  0  3.56063  0  0  -0.273554  0  3.570333  0  0  -0.244351  -0.245194  0  3.554377  0
N  N75  1  0.08822548  0.65721589  0.03469121  1  0  -0.327757  0  3.254989  0  0  -0.256212  0  3.560577  0  0  -0.27353  0  3.570288  0  0  -0.244336  -0.24516  0  3.554315  0
N  N76  1  0.07791388  0.86441516  0.20560716  1  0  -0.39273  0  3.279898  0  0  -0.312458  0  3.575638  0  0  -0.3284  0  3.588059  0  0  -0.349587  -0.301276  0  3.566858  0
N  N77  1  0.42208312  0.13558688  0.70560687  1  0  -0.392754  0  3.280116  0  0  -0.312494  0  3.575859  0  0  -0.328436  0  3.588282  0  0  -0.349659  -0.301313  0  3.567072  0
N  N78  1  0.57791513  0.63558593  0.79439371  1  0  -0.39273  0  3.279987  0  0  -0.312431  0  3.575701  0  0  -0.328374  0  3.588125  0  0  -0.349617  -0.301256  0  3.566925  0
N  N79  1  0.92208940  0.36441499  0.29439429  1  0  -0.392776  0  3.279956  0  0  -0.312471  0  3.575683  0  0  -0.328412  0  3.588104  0  0  -0.3496  -0.301291  0  3.566905  0
N  N80  1  0.80013401  0.06355514  0.58394677  1  0  -0.289975  0  2.908338  0  0  -0.277731  0  3.182253  0  0  -0.287162  0  3.197047  0  0  -0.229737  -0.271701  0  3.172471  0
N  N81  1  0.69986191  0.93644266  0.08394696  1  0  -0.289884  0  2.908295  0  0  -0.277617  0  3.182206  0  0  -0.287049  0  3.197004  0  0  -0.229712  -0.271579  0  3.172412  0
N  N82  1  0.30013841  0.43644598  0.41605385  1  0  -0.289898  0  2.908228  0  0  -0.277639  0  3.182123  0  0  -0.287071  0  3.196918  0  0  -0.22972  -0.271604  0  3.172334  0
N  N83  1  0.19986451  0.56355611  0.91605315  1  0  -0.289914  0  2.908376  0  0  -0.277648  0  3.182296  0  0  -0.28708  0  3.197091  0  0  -0.229709  -0.27161  0  3.17251  0
N  N84  1  0.81600704  0.25279577  0.50639866  1  0  -0.060608  0  2.927449  0  0  -0.063326  0  3.199193  0  0  -0.058641  0  3.211155  0  0  -0.096863  -0.065888  0  3.189471  0
N  N85  1  0.68399453  0.74720304  0.00639820  1  0  -0.060649  0  2.927637  0  0  -0.063372  0  3.199408  0  0  -0.058692  0  3.21137  0  0  -0.096883  -0.065939  0  3.189694  0
N  N86  1  0.31600516  0.24720634  0.49360388  1  0  -0.060548  0  2.927634  0  0  -0.063283  0  3.199393  0  0  -0.058603  0  3.21136  0  0  -0.096825  -0.065842  0  3.189678  0
N  N87  1  0.18399748  0.75279474  0.99360193  1  0  -0.060628  0  2.927653  0  0  -0.063355  0  3.199398  0  0  -0.058677  0  3.21137  0  0  -0.096835  -0.065908  0  3.189673  0
O  O88  1  0.72838792  0.84880038  0.26518223  1  0  -0.362105  0  1.788581  0  0  -0.340092  0  2.01347  0  0  -0.350322  0  2.008076  0  0  -0.125102  -0.33312  0  2.017482  0
O  O89  1  0.77160598  0.15120665  0.76518144  1  0  -0.362236  0  1.788764  0  0  -0.340188  0  2.013637  0  0  -0.350419  0  2.008242  0  0  -0.125128  -0.333216  0  2.017651  0
O  O90  1  0.22839087  0.65120444  0.73481785  1  0  -0.362193  0  1.788741  0  0  -0.34017  0  2.01363  0  0  -0.3504  0  2.008234  0  0  -0.125134  -0.3332  0  2.017642  0
O  O91  1  0.27161139  0.34879659  0.23481792  1  0  -0.362137  0  1.788723  0  0  -0.34012  0  2.013611  0  0  -0.350348  0  2.008217  0  0  -0.125109  -0.333151  0  2.017624  0
O  O92  1  0.74393759  0.06472235  0.30495760  1  0  -0.370588  0  1.767204  0  0  -0.346121  0  1.984647  0  0  -0.357096  0  1.979225  0  0  -0.131833  -0.338648  0  1.988592  0
O  O93  1  0.75606556  0.93528264  0.80495560  1  0  -0.370573  0  1.766996  0  0  -0.346118  0  1.984455  0  0  -0.357093  0  1.979031  0  0  -0.131855  -0.338652  0  1.988423  0
O  O94  1  0.24393424  0.43528094  0.69504501  1  0  -0.370577  0  1.767061  0  0  -0.346141  0  1.984543  0  0  -0.357118  0  1.979119  0  0  -0.131861  -0.338667  0  1.988484  0
O  O95  1  0.25606682  0.56472008  0.19504317  1  0  -0.370571  0  1.767151  0  0  -0.346096  0  1.984584  0  0  -0.357072  0  1.979164  0  0  -0.131841  -0.338622  0  1.988524  0
