# generated using pymatgen
data_ZnH10C31N4Cl6O13
_symmetry_space_group_name_H-M   'P 1'
_cell_length_a   16.16422938
_cell_length_b   16.73322234
_cell_length_c   27.53673637
_cell_angle_alpha   88.48403846
_cell_angle_beta   88.57386181
_cell_angle_gamma   86.43580977
_symmetry_Int_Tables_number   1
_chemical_formula_structural   ZnH10C31N4Cl6O13
_chemical_formula_sum   'Zn2 H20 C62 N8 Cl12 O26'
_cell_volume   7429.10161627
_cell_formula_units_Z   2
loop_
 _symmetry_equiv_pos_site_id
 _symmetry_equiv_pos_as_xyz
  1  'x, y, z'
loop_
 _atom_site_type_symbol
 _atom_site_label
 _atom_site_symmetry_multiplicity
 _atom_site_fract_x
 _atom_site_fract_y
 _atom_site_fract_z
 _atom_site_occupancy
 _atom_site_pbe_bader_charge
 _atom_site_pbe_bader_spin_density
 _atom_site_pbe_cm5_charge
 _atom_site_pbe_ddec_charge
 _atom_site_pbe_ddec_spin_density
 _atom_site_pbe_ddec_sum_bond_order
 _atom_site_pbe_magmom
Zn  Zn0  1  0.58956414  0.51099620  0.50198387  1  1.313883  0  0.678603  0.882659  0  2.309447  0
Zn  Zn1  1  0.41044090  0.48900378  0.49801361  1  1.313149  0  0.678522  0.88263  0  2.309427  0
H  H2  1  0.61868185  0.26825135  0.45402463  1  0.116553  0  0.111358  0.142648  0  0.992348  0
H  H3  1  0.38132548  0.73173245  0.54597449  1  0.116708  0  0.111337  0.142673  0  0.992323  0
H  H4  1  0.12704359  0.42580548  0.57026056  1  0.100082  0  0.121025  0.152555  0  0.981546  0
H  H5  1  0.87296193  0.57423576  0.42974904  1  0.100416  0  0.121067  0.1526  0  0.981468  0
H  H6  1  0.31747412  0.41047084  0.96984976  1  0.157253  0  0.109981  0.135585  0  1.056397  0
H  H7  1  0.68243737  0.58976201  0.03015862  1  0.15771  0  0.109842  0.135377  0  1.056863  0
H  H8  1  0.54244092  0.37399499  0.67713129  1  0.61447  0  0.311349  0.340837  0  0.930337  0
H  H9  1  0.45762662  0.62610250  0.32289361  1  0.616014  0  0.311322  0.340784  0  0.930394  0
H  H10  1  0.55129872  0.96704031  0.44080274  1  0.630136  0  0.290451  0.29044  0  1.074017  0
H  H11  1  0.44877869  0.03292304  0.55921990  1  0.629924  0  0.290374  0.290414  0  1.074  0
H  H12  1  0.26506396  0.37879058  0.58814644  1  0.629148  0  0.36313  0.389062  0  0.834274  0
H  H13  1  0.73493237  0.62122014  0.41185828  1  0.629669  0  0.363117  0.389091  0  0.834231  0
H  H14  1  0.59569657  0.27158630  0.34175082  1  0.639941  0  0.324937  0.357483  0  0.908271  0
H  H15  1  0.40430501  0.72848460  0.65820214  1  0.639275  0  0.324795  0.357594  0  0.908112  0
H  H16  1  0.54741299  0.28873530  0.24032841  1  0.629269  0  0.308486  0.359579  0  0.949949  0
H  H17  1  0.45259153  0.71136728  0.75963677  1  0.62861  0  0.308643  0.359546  0  0.950017  0
H  H18  1  0.31283912  0.31960023  0.05697121  1  0.610402  0  0.302306  0.32854  0  0.970444  0
H  H19  1  0.68716666  0.68051190  0.94299853  1  0.609917  0  0.302149  0.327967  0  0.970868  0
H  H20  1  0.56411286  0.80262822  0.39081774  1  0.623873  0  0.328407  0.361159  0  0.89727  0
H  H21  1  0.43588948  0.19736576  0.60918168  1  0.6238  0  0.328372  0.36114  0  0.897234  0
C  C22  1  0.53544706  0.35210659  0.52180464  1  1.635305  0  0.220139  0.624271  0  4.150298  0
C  C23  1  0.46451597  0.64788205  0.47818058  1  1.634913  0  0.219976  0.624159  0  4.15003  0
C  C24  1  0.47076440  0.54126019  0.89948369  1  0.00493  0  0.002624  0.047408  0  3.98134  0
C  C25  1  0.52919398  0.45890688  0.10051108  1  0.00546  0  0.002228  0.046667  0  3.9815  0
C  C26  1  0.40572357  0.50716589  0.87436039  1  0.049533  0  -0.018506  -0.141603  0  3.965261  0
C  C27  1  0.59422320  0.49301795  0.12563287  1  0.049278  0  -0.018959  -0.14154  0  3.965732  0
C  C28  1  0.35012846  0.46264413  0.90177750  1  0.065024  0  0.031673  0.163037  0  4.039847  0
C  C29  1  0.64977512  0.53759593  0.09822545  1  0.066252  0  0.032162  0.163657  0  4.038936  0
C  C30  1  0.51984401  0.59739690  0.87395407  1  0.072697  0  -0.014273  -0.112564  0  3.997799  0
C  C31  1  0.48015108  0.40271818  0.12602343  1  0.072572  0  -0.014057  -0.112187  0  3.997642  0
C  C32  1  0.47021908  0.54760769  0.64417982  1  0.087532  0  -0.026676  -0.204714  0  3.923818  0
C  C33  1  0.52981663  0.45245403  0.35581195  1  0.088017  0  -0.027142  -0.205791  0  3.924419  0
C  C34  1  0.44678548  0.44611184  0.02614734  1  0.020663  0  -0.003067  -0.054935  0  3.925538  0
C  C35  1  0.55318401  0.55405529  0.97383709  1  0.025635  0  -0.003116  -0.055591  0  3.92607  0
C  C36  1  0.56875586  0.53007167  0.02450520  1  0.020517  0  0.007429  0.085089  0  3.942443  0
C  C37  1  0.43118801  0.47011877  0.97548656  1  0.024751  0  0.007937  0.084661  0  3.942249  0
C  C38  1  0.51420110  0.47823419  0.05029769  1  0.017393  0  0.002629  0.000262  0  3.932547  0
C  C39  1  0.48576608  0.52193052  0.94969225  1  0.016928  0  0.002452  0.000377  0  3.932813  0
C  C40  1  0.39931891  0.39070214  0.05249596  1  0.569606  0  0.090314  0.215818  0  4.03536  0
C  C41  1  0.60066815  0.60944168  0.94748235  1  0.56823  0  0.090131  0.215521  0  4.035347  0
C  C42  1  0.41760339  0.36872592  0.10133063  1  0.057451  0  0.014389  0.015954  0  4.02327  0
C  C43  1  0.58241112  0.63137545  0.89863767  1  0.055682  0  0.014606  0.015998  0  4.023014  0
C  C44  1  0.47329557  0.53757282  0.58983519  1  1.625081  0  0.222859  0.66  0  4.125379  0
C  C45  1  0.52674962  0.46246673  0.41015965  1  1.626185  0  0.223044  0.660109  0  4.125962  0
C  C46  1  0.36282104  0.44551158  0.95107222  1  -0.003978  0  -0.094971  -0.198385  0  3.93507  0
C  C47  1  0.63710625  0.55469620  0.04892355  1  -0.004386  0  -0.094686  -0.198757  0  3.935227  0
C  C48  1  0.54324926  0.26239372  0.51963616  1  0.033904  0  -0.009158  -0.071754  0  3.922376  0
C  C49  1  0.45674886  0.73759847  0.48036081  1  0.034356  0  -0.009078  -0.071896  0  3.922498  0
C  C50  1  0.50058477  0.21349511  0.55217207  1  0.495204  0  0.071186  0.174995  0  4.080158  0
C  C51  1  0.49942949  0.78648688  0.44783023  1  0.495377  0  0.071288  0.175347  0  4.080452  0
C  C52  1  0.49496279  0.13205113  0.54216209  1  0.539273  0  0.078745  0.149419  0  4.054627  0
C  C53  1  0.50508551  0.86792181  0.45785433  1  0.538742  0  0.078853  0.149227  0  4.054675  0
C  C54  1  0.53210685  0.09903163  0.49916551  1  0.486761  0  0.074833  0.010194  0  4.076565  0
C  C55  1  0.46795527  0.90093831  0.50085364  1  0.487006  0  0.074888  0.010247  0  4.076804  0
C  C56  1  0.57920183  0.14952004  0.46831508  1  0.042474  0  0.004631  0.079059  0  4.075288  0
C  C57  1  0.42084690  0.85045590  0.53170020  1  0.043461  0  0.004405  0.078965  0  4.075476  0
C  C58  1  0.58516487  0.22915401  0.47868327  1  0.068698  0  -0.100232  -0.183219  0  4.001328  0
C  C59  1  0.41484792  0.77083157  0.52131865  1  0.068467  0  -0.100132  -0.183031  0  4.00142  0
C  C60  1  0.23465970  0.51292071  0.45668578  1  0.68101  0  0.152358  0.254722  0  4.049584  0
C  C61  1  0.76535108  0.48708644  0.54331441  1  0.6809  0  0.152288  0.254638  0  4.049918  0
C  C62  1  0.14796260  0.52588947  0.46152104  1  0.147893  0  0.006097  -0.043489  0  4.001596  0
C  C63  1  0.85204991  0.47413921  0.53848536  1  0.146398  0  0.006012  -0.043768  0  4.001972  0
C  C64  1  0.10964501  0.49401324  0.50368101  1  0.345508  0  0.10384  0.186455  0  4.053054  0
C  C65  1  0.89036754  0.50602442  0.49632708  1  0.34659  0  0.103963  0.18682  0  4.052601  0
C  C66  1  0.40108731  0.51487868  0.82099654  1  1.320894  0  0.233978  0.44465  0  4.091247  0
C  C67  1  0.59883343  0.48530575  0.17899495  1  1.319461  0  0.233748  0.443933  0  4.091934  0
C  C68  1  0.15714227  0.45049419  0.53786943  1  0.12058  0  -0.098297  -0.341702  0  3.937894  0
C  C69  1  0.84286556  0.54953988  0.46213733  1  0.119962  0  -0.098415  -0.341804  0  3.937897  0
C  C70  1  0.24234309  0.43895913  0.52910160  1  1.066869  0  0.224829  0.486863  0  4.080978  0
C  C71  1  0.75766272  0.56105818  0.47090288  1  1.067427  0  0.224885  0.486648  0  4.081349  0
C  C72  1  0.50433632  0.61806283  0.82241749  1  1.346882  0  0.246969  0.457959  0  4.073949  0
C  C73  1  0.49566450  0.38204986  0.17755995  1  1.350223  0  0.246844  0.456804  0  4.074101  0
C  C74  1  0.44072200  0.62723019  0.71607060  1  0.624709  0  0.05615  0.10237  0  4.113819  0
C  C75  1  0.55926962  0.37286212  0.28390945  1  0.625242  0  0.056451  0.103043  0  4.114076  0
C  C76  1  0.44236205  0.61946802  0.66521224  1  0.507879  0  0.077496  0.211675  0  4.085396  0
C  C77  1  0.55764457  0.38060274  0.33476678  1  0.510997  0  0.077334  0.211717  0  4.085238  0
C  C78  1  0.49925467  0.48295563  0.67396319  1  0.566704  0  0.072503  0.231914  0  4.118876  0
C  C79  1  0.50076329  0.51712278  0.32604061  1  0.563995  0  0.072881  0.232564  0  4.118291  0
C  C80  1  0.49712662  0.49023500  0.72446483  1  0.07456  0  -0.020349  -0.067981  0  4.080587  0
C  C81  1  0.50286384  0.50985718  0.27553884  1  0.074716  0  -0.020369  -0.068161  0  4.080673  0
C  C82  1  0.46603228  0.56182793  0.74573696  1  0.334388  0  0.062428  0.035227  0  4.076731  0
C  C83  1  0.53394339  0.43827211  0.25425121  1  0.334483  0  0.062162  0.034496  0  4.077259  0
N  N84  1  0.45946385  0.56443957  0.79772223  1  -1.168746  0  -0.234383  -0.195591  0  3.638562  0
N  N85  1  0.54050335  0.43568622  0.20226500  1  -1.169237  0  -0.234146  -0.194454  0  3.63734  0
N  N86  1  0.52252633  0.02162508  0.48567816  1  -0.634089  0  -0.169905  -0.105571  0  3.399108  0
N  N87  1  0.47754865  0.97833766  0.51434562  1  -0.566938  0  -0.169818  -0.105289  0  3.398808  0
N  N88  1  0.28068785  0.47228494  0.49029743  1  -1.211704  0  -0.313153  -0.340169  0  3.37887  0
N  N89  1  0.71932204  0.52771683  0.50970249  1  -1.212203  0  -0.313102  -0.339965  0  3.37897  0
N  N90  1  0.02445440  0.50773657  0.51629385  1  -0.375221  0  -0.113585  -0.070908  0  3.234505  0
N  N91  1  0.97556055  0.49231187  0.48371513  1  -0.425403  0  -0.113786  -0.071103  0  3.234462  0
Cl  Cl92  1  0.62718468  0.11094403  0.41623070  1  -0.221032  0  -0.022732  -0.091291  0  1.462684  0
Cl  Cl93  1  0.37289123  0.88902350  0.58379227  1  -0.220867  0  -0.022656  -0.091324  0  1.462886  0
Cl  Cl94  1  0.71535407  0.45230832  0.59388773  1  -0.092653  0  0.055617  0.005078  0  1.633398  0
Cl  Cl95  1  0.28465903  0.54767193  0.40610518  1  -0.092967  0  0.055615  0.005091  0  1.633263  0
Cl  Cl96  1  0.90651379  0.41819566  0.58136165  1  -0.155903  0  0.000118  -0.052359  0  1.570815  0
Cl  Cl97  1  0.09350630  0.58184022  0.41864453  1  -0.156446  0  6.6e-05  -0.052427  0  1.570714  0
Cl  Cl98  1  0.53523718  0.40928451  0.75967131  1  -0.22995  0  -0.015606  -0.082795  0  1.538289  0
Cl  Cl99  1  0.46472233  0.59081832  0.24035121  1  -0.230655  0  -0.015557  -0.08271  0  1.538046  0
Cl  Cl100  1  0.26302242  0.42528169  0.87865404  1  -0.152139  0  0.012054  -0.045304  0  1.490553  0
Cl  Cl101  1  0.73684170  0.57501455  0.12136618  1  -0.151991  0  0.011849  -0.045558  0  1.490332  0
Cl  Cl102  1  0.35424774  0.29939835  0.12780331  1  -0.153607  0  0.056053  -0.010524  0  1.602408  0
Cl  Cl103  1  0.64582041  0.70063844  0.87215235  1  -0.153399  0  0.056129  -0.010347  0  1.602144  0
O  O104  1  0.60120009  0.38973740  0.51819459  1  -1.159118  0  -0.316514  -0.552012  0  2.330092  0
O  O105  1  0.39875446  0.61026904  0.48181956  1  -1.158942  0  -0.316608  -0.552168  0  2.329521  0
O  O106  1  0.46136177  0.38163495  0.52356273  1  -1.145732  0  -0.308317  -0.534862  0  2.3496  0
O  O107  1  0.53858923  0.61832805  0.47640125  1  -1.146229  0  -0.308095  -0.534671  0  2.3499  0
O  O108  1  0.54445671  0.54143803  0.56969689  1  -1.158222  0  -0.316592  -0.564827  0  2.339147  0
O  O109  1  0.45558767  0.45863327  0.43029570  1  -1.158544  0  -0.316724  -0.565089  0  2.339365  0
O  O110  1  0.40566958  0.52482654  0.57010328  1  -1.148099  0  -0.311089  -0.535279  0  2.268613  0
O  O111  1  0.59438907  0.47515789  0.42989503  1  -1.148816  0  -0.311093  -0.535081  0  2.268956  0
O  O112  1  0.35302770  0.48066871  0.79627364  1  -1.075301  0  -0.265367  -0.412663  0  2.148491  0
O  O113  1  0.64686975  0.51954142  0.20372547  1  -1.074487  0  -0.265112  -0.412179  0  2.14873  0
O  O114  1  0.46923249  0.32231684  0.19905159  1  -1.115672  0  -0.271621  -0.448206  0  2.174385  0
O  O115  1  0.53079969  0.67776958  0.80091447  1  -1.114171  0  -0.271702  -0.448702  0  2.174194  0
O  O116  1  0.52939191  0.41483964  0.65193268  1  -1.118729  0  -0.342403  -0.402736  0  2.315098  0
O  O117  1  0.47065716  0.58523692  0.34808410  1  -1.118903  0  -0.342538  -0.402772  0  2.314281  0
O  O118  1  0.54971150  0.91130428  0.42583298  1  -1.147165  0  -0.34872  -0.43199  0  2.348309  0
O  O119  1  0.45036016  0.08866204  0.57419189  1  -1.146709  0  -0.348482  -0.431894  0  2.348746  0
O  O120  1  0.29337112  0.39440077  0.55808597  1  -1.111998  0  -0.30262  -0.406443  0  2.309387  0
O  O121  1  0.70663013  0.60561054  0.44192012  1  -1.112488  0  -0.30261  -0.406388  0  2.30953  0
O  O122  1  0.58253953  0.31641166  0.36341451  1  -1.143214  0  -0.342427  -0.418362  0  2.295304  0
O  O123  1  0.41747227  0.68364539  0.63655300  1  -1.141215  0  -0.342615  -0.41894  0  2.295394  0
O  O124  1  0.58660459  0.29958269  0.26624327  1  -1.147686  0  -0.375544  -0.461665  0  2.277716  0
O  O125  1  0.41338635  0.70051984  0.73372901  1  -1.146697  0  -0.375566  -0.461258  0  2.277558  0
O  O126  1  0.33576199  0.35615850  0.03198811  1  -1.128902  0  -0.327509  -0.386153  0  2.372247  0
O  O127  1  0.66423041  0.64397933  0.96799129  1  -1.128901  0  -0.327377  -0.385249  0  2.372074  0
O  O128  1  0.53785137  0.75731975  0.40675463  1  -1.11137  0  -0.348321  -0.411705  0  2.266693  0
O  O129  1  0.46213923  0.24267366  0.59323772  1  -1.111002  0  -0.348229  -0.411616  0  2.266367  0
