# generated using pymatgen
data_SmAgH8C14(NO4)2
_symmetry_space_group_name_H-M   'P 1'
_cell_length_a   9.59320486
_cell_length_b   12.07094580
_cell_length_c   16.89900000
_cell_angle_alpha   96.29744553
_cell_angle_beta   90.00000000
_cell_angle_gamma   113.41405405
_symmetry_Int_Tables_number   1
_chemical_formula_structural   SmAgH8C14(NO4)2
_chemical_formula_sum   'Sm4 Ag4 H32 C56 N8 O32'
_cell_volume   1782.87749092
_cell_formula_units_Z   4
loop_
 _symmetry_equiv_pos_site_id
 _symmetry_equiv_pos_as_xyz
  1  'x, y, z'
loop_
 _atom_site_type_symbol
 _atom_site_label
 _atom_site_symmetry_multiplicity
 _atom_site_fract_x
 _atom_site_fract_y
 _atom_site_fract_z
 _atom_site_occupancy
 _atom_site_hle17_bader_spin_density
 _atom_site_hle17_ddec_charge
 _atom_site_hle17_ddec_spin_density
 _atom_site_hle17_ddec_sum_bond_order
 _atom_site_hle17_magmom
 _atom_site_hse06_10hf_bader_spin_density
 _atom_site_hse06_10hf_ddec_charge
 _atom_site_hse06_10hf_ddec_spin_density
 _atom_site_hse06_10hf_ddec_sum_bond_order
 _atom_site_hse06_10hf_magmom
 _atom_site_hse06_bader_spin_density
 _atom_site_hse06_ddec_charge
 _atom_site_hse06_ddec_spin_density
 _atom_site_hse06_ddec_sum_bond_order
 _atom_site_hse06_magmom
 _atom_site_pbe_bader_charge
 _atom_site_pbe_bader_spin_density
 _atom_site_pbe_cm5_charge
 _atom_site_pbe_ddec_charge
 _atom_site_pbe_ddec_spin_density
 _atom_site_pbe_ddec_sum_bond_order
 _atom_site_pbe_magmom
Sm  Sm0  1  0.80451856  0.01061598  0.93321180  1  0  2.283796  0  1.669862  0  0  2.134021  0  2.143825  0  0  2.239696  0  1.983526  0  2.231067  0  1.495778  2.100266  0  2.177492  0
Sm  Sm1  1  0.79393112  0.98940847  0.56676716  1  0  2.283705  0  1.669715  0  0  2.132982  0  2.145303  0  0  2.239626  0  1.983371  0  2.229809  0  1.495689  2.099484  0  2.178632  0
Sm  Sm2  1  0.19547994  0.98938665  0.06678852  1  0  2.283777  0  1.669919  0  0  2.133945  0  2.143968  0  0  2.239664  0  1.983593  0  2.23107  0  1.495818  2.100165  0  2.177682  0
Sm  Sm3  1  0.20607540  0.01059143  0.43323296  1  0  2.283717  0  1.66972  0  0  2.133026  0  2.145261  0  0  2.23965  0  1.983366  0  2.229912  0  1.49563  2.099476  0  2.178668  0
Ag  Ag4  1  0.77369332  0.31870219  0.08573652  1  0  0.525371  0  1.383277  0  0  0.363271  0  1.802599  0  0  0.396139  0  1.757915  0  0.568787  0  0.486298  0.341532  0  1.833128  0
Ag  Ag5  1  0.45506254  0.68134136  0.41428003  1  0  0.525285  0  1.383971  0  0  0.362977  0  1.803749  0  0  0.395909  0  1.758944  0  0.5705  0  0.486463  0.341305  0  1.834253  0
Ag  Ag6  1  0.22630726  0.68130044  0.91426262  1  0  0.525361  0  1.383254  0  0  0.363258  0  1.802567  0  0  0.396128  0  1.757884  0  0.568858  0  0.486309  0.341518  0  1.833094  0
Ag  Ag7  1  0.54492978  0.31865309  0.58571906  1  0  0.525218  0  1.384043  0  0  0.36291  0  1.803823  0  0  0.39584  0  1.75902  0  0.570545  0  0.48645  0.341238  0  1.834326  0
H  H8  1  0.52942536  0.59118872  0.13514826  1  0  0.101132  0  0.956031  0  0  0.111664  0  1.013143  0  0  0.113633  0  1.015208  0  0.083936  0  0.106872  0.110246  0  1.011892  0
H  H9  1  0.93821446  0.40871570  0.36491597  1  0  0.100548  0  0.956211  0  0  0.111348  0  1.013093  0  0  0.113398  0  1.015052  0  0.090079  0  0.106567  0.109929  0  1.011835  0
H  H10  1  0.47057308  0.40880754  0.86484919  1  0  0.101119  0  0.956047  0  0  0.111682  0  1.013119  0  0  0.113655  0  1.015174  0  0.083877  0  0.106893  0.110263  0  1.011869  0
H  H11  1  0.06178640  0.59128329  0.63508762  1  0  0.100547  0  0.956192  0  0  0.111302  0  1.01312  0  0  0.113349  0  1.015088  0  0.090037  0  0.106552  0.109883  0  1.011862  0
H  H12  1  0.52451301  0.90731125  0.16416571  1  0  0.123946  0  0.937495  0  0  0.132679  0  0.998595  0  0  0.135719  0  0.99799  0  0.129582  0  0.1191  0.13053  0  0.999018  0
H  H13  1  0.61706543  0.09258408  0.33572679  1  0  0.124674  0  0.937831  0  0  0.133325  0  0.998847  0  0  0.136402  0  0.998143  0  0.143462  0  0.11941  0.131111  0  0.999381  0
H  H14  1  0.47548771  0.09268956  0.83583329  1  0  0.123973  0  0.937558  0  0  0.132698  0  0.998654  0  0  0.135744  0  0.998033  0  0.129595  0  0.119127  0.13055  0  0.999077  0
H  H15  1  0.38293959  0.90741491  0.66427325  1  0  0.124652  0  0.937802  0  0  0.133309  0  0.998812  0  0  0.136387  0  0.998107  0  0.143459  0  0.119421  0.131093  0  0.999346  0
H  H16  1  0.89765751  0.81177652  0.22193458  1  0  0.131548  0  0.940964  0  0  0.14235  0  0.99671  0  0  0.14601  0  0.994698  0  0.128399  0  0.122205  0.139796  0  0.998  0
H  H17  1  0.08578704  0.18800606  0.27802365  1  0  0.131895  0  0.940445  0  0  0.142499  0  0.996592  0  0  0.146152  0  0.99458  0  0.167916  0  0.122569  0.139946  0  0.997874  0
H  H18  1  0.10234113  0.18822429  0.77806679  1  0  0.131533  0  0.940957  0  0  0.142357  0  0.996696  0  0  0.146019  0  0.994681  0  0.128376  0  0.1222  0.139803  0  0.997986  0
H  H19  1  0.91421622  0.81199566  0.72197187  1  0  0.131928  0  0.940441  0  0  0.1425  0  0.996615  0  0  0.146152  0  0.994604  0  0.167911  0  0.122558  0.139946  0  0.997897  0
H  H20  1  0.74299801  0.69931714  0.32858271  1  0  0.072266  0  0.954775  0  0  0.084664  0  1.014463  0  0  0.086011  0  1.013769  0  0.088187  0  0.116234  0.083711  0  1.014896  0
H  H21  1  0.04374929  0.30060365  0.17142244  1  0  0.071789  0  0.954728  0  0  0.084446  0  1.014335  0  0  0.085802  0  1.013618  0  0.083129  0  0.116062  0.083463  0  1.014819  0
H  H22  1  0.25699972  0.30068185  0.67141851  1  0  0.072243  0  0.954805  0  0  0.084633  0  1.0145  0  0  0.08598  0  1.013805  0  0.087794  0  0.116221  0.08368  0  1.014933  0
H  H23  1  0.95625026  0.69939898  0.82857611  1  0  0.071779  0  0.954731  0  0  0.084433  0  1.01435  0  0  0.08579  0  1.013632  0  0.083199  0  0.11605  0.08345  0  1.014834  0
H  H24  1  0.38745440  0.79780162  0.27661807  1  0  0.097834  0  0.932194  0  0  0.108741  0  0.99008  0  0  0.111323  0  0.987753  0  0.127695  0  0.124208  0.106815  0  0.991768  0
H  H25  1  0.58976598  0.20242924  0.22341907  1  0  0.097768  0  0.931984  0  0  0.108529  0  0.990246  0  0  0.111117  0  0.987895  0  0.12225  0  0.124282  0.106647  0  0.991861  0
H  H26  1  0.61254333  0.20219737  0.72338019  1  0  0.097869  0  0.932176  0  0  0.108708  0  0.990143  0  0  0.111312  0  0.987793  0  0.127698  0  0.124208  0.106784  0  0.991828  0
H  H27  1  0.41023338  0.79756884  0.77658208  1  0  0.097766  0  0.931966  0  0  0.108522  0  0.990225  0  0  0.111109  0  0.987879  0  0.122232  0  0.124281  0.106623  0  0.991859  0
H  H28  1  0.36958426  0.36358938  0.12327800  1  0  0.123839  0  0.912577  0  0  0.13641  0  0.965927  0  0  0.140442  0  0.961626  0  0.136966  0  0.124711  0.133456  0  0.968924  0
H  H29  1  0.00593207  0.63631414  0.37671575  1  0  0.123446  0  0.912371  0  0  0.136069  0  0.965831  0  0  0.140066  0  0.961527  0  0.133907  0  0.124837  0.133093  0  0.968873  0
H  H30  1  0.63040943  0.63640780  0.87671953  1  0  0.123791  0  0.912586  0  0  0.136383  0  0.965916  0  0  0.140415  0  0.961612  0  0.136994  0  0.124681  0.133411  0  0.968934  0
H  H31  1  0.99406923  0.36368576  0.62329147  1  0  0.123471  0  0.912476  0  0  0.136083  0  0.965951  0  0  0.140085  0  0.961644  0  0.133759  0  0.124849  0.133104  0  0.968991  0
H  H32  1  0.45643912  0.71632726  0.04795087  1  0  0.098283  0  0.935154  0  0  0.106505  0  0.997811  0  0  0.109198  0  0.995226  0  0.15112  0  0.124401  0.104662  0  0.999353  0
H  H33  1  0.74018902  0.28365627  0.45217400  1  0  0.098555  0  0.935013  0  0  0.106665  0  0.997616  0  0  0.109334  0  0.995074  0  0.158554  0  0.124441  0.104707  0  0.999369  0
H  H34  1  0.54356323  0.28367264  0.95204747  1  0  0.098269  0  0.935103  0  0  0.10649  0  0.99777  0  0  0.109182  0  0.995185  0  0.151147  0  0.124397  0.104646  0  0.999313  0
H  H35  1  0.25980838  0.71633999  0.54782701  1  0  0.098446  0  0.93502  0  0  0.106548  0  0.997657  0  0  0.109216  0  0.995114  0  0.158609  0  0.124385  0.10459  0  0.999413  0
H  H36  1  0.07754224  0.41518168  0.95138684  1  0  0.094149  0  0.927361  0  0  0.102744  0  0.990319  0  0  0.106355  0  0.986001  0  0.108743  0  0.124297  0.100199  0  0.993258  0
H  H37  1  0.66225827  0.58478913  0.54858732  1  0  0.093705  0  0.92685  0  0  0.102801  0  0.989436  0  0  0.1064  0  0.985136  0  0.131351  0  0.124387  0.100315  0  0.992283  0
H  H38  1  0.92245776  0.58482186  0.04860941  1  0  0.094129  0  0.927468  0  0  0.102726  0  0.990417  0  0  0.106335  0  0.986105  0  0.108833  0  0.124287  0.100181  0  0.993355  0
H  H39  1  0.33773315  0.41520350  0.45141400  1  0  0.093677  0  0.926822  0  0  0.102847  0  0.989336  0  0  0.106436  0  0.98506  0  0.131327  0  0.124405  0.100361  0  0.992184  0
C  C40  1  0.42886252  0.54844656  0.09488652  1  0  -0.121028  0  3.744  0  0  -0.130736  0  3.993937  0  0  -0.139862  0  4.018055  0  0.015622  0  -0.081538  -0.124964  0  3.977756  0
C  C41  1  0.88039322  0.45148060  0.40515938  1  0  -0.120406  0  3.74267  0  0  -0.1304  0  3.992749  0  0  -0.139593  0  4.016831  0  0.017399  0  -0.080674  -0.12461  0  3.976562  0
C  C42  1  0.57113625  0.45155244  0.90511056  1  0  -0.121128  0  3.743979  0  0  -0.130864  0  3.993948  0  0  -0.139993  0  4.018074  0  0.015597  0  -0.081614  -0.125089  0  3.97776  0
C  C43  1  0.11960451  0.54851839  0.59484480  1  0  -0.120485  0  3.742684  0  0  -0.130448  0  3.992771  0  0  -0.139642  0  4.016849  0  0.017638  0  -0.080733  -0.124657  0  3.976584  0
C  C44  1  0.72387698  0.87028126  0.18539833  1  0  -0.011945  0  3.691771  0  0  0.006782  0  3.921259  0  0  0.005103  0  3.939441  0  -0.04634  0  0.006762  0.007991  0  3.908287  0
C  C45  1  0.85347830  0.12955497  0.31452801  1  0  -0.010906  0  3.691281  0  0  0.007251  0  3.921892  0  0  0.00547  0  3.940282  0  -0.043109  0  0.007526  0.00857  0  3.908709  0
C  C46  1  0.27612224  0.12971864  0.81460237  1  0  -0.01194  0  3.691737  0  0  0.006842  0  3.921221  0  0  0.005112  0  3.939474  0  -0.046393  0  0.006764  0.00805  0  3.908249  0
C  C47  1  0.14652763  0.87044584  0.68547040  1  0  -0.010914  0  3.691301  0  0  0.007254  0  3.92188  0  0  0.005474  0  3.940269  0  -0.04318  0  0.007537  0.008569  0  3.908696  0
C  C48  1  0.57724078  0.86341793  0.19997567  1  0  -0.114909  0  3.69953  0  0  -0.13652  0  3.948599  0  0  -0.141634  0  3.969563  0  0.056868  0  -0.071504  -0.133072  0  3.934276  0
C  C49  1  0.71375649  0.13649105  0.29994867  1  0  -0.116158  0  3.701662  0  0  -0.137157  0  3.95061  0  0  -0.142228  0  3.971649  0  -0.055729  0  -0.072284  -0.133748  0  3.936312  0
C  C50  1  0.42276099  0.13658289  0.80002392  1  0  -0.11493  0  3.699598  0  0  -0.136527  0  3.948622  0  0  -0.141625  0  3.969614  0  0.014025  0  -0.071514  -0.13308  0  3.934301  0
C  C51  1  0.28624749  0.86350795  0.70005078  1  0  -0.116121  0  3.701696  0  0  -0.137139  0  3.950655  0  0  -0.142211  0  3.971696  0  -0.055775  0  -0.072337  -0.133726  0  3.93635  0
C  C52  1  0.21166948  0.37488914  0.03711974  1  0  -0.110624  0  3.741062  0  0  -0.083764  0  3.972759  0  0  -0.096364  0  3.996266  0  0.015871  0  -0.010157  -0.07556  0  3.956162  0
C  C53  1  0.83670079  0.62504893  0.46286014  1  0  -0.112744  0  3.741959  0  0  -0.085854  0  3.97377  0  0  -0.098402  0  3.997135  0  -0.021861  0  -0.010621  -0.077654  0  3.957201  0
C  C54  1  0.78832766  0.62511076  0.96287623  1  0  -0.110759  0  3.741036  0  0  -0.083892  0  3.972722  0  0  -0.096491  0  3.99622  0  0.016299  0  -0.01017  -0.075688  0  3.956122  0
C  C55  1  0.16330006  0.37495007  0.53714404  1  0  -0.112619  0  3.742213  0  0  -0.085756  0  3.97403  0  0  -0.098301  0  3.997398  0  -0.058037  0  -0.010591  -0.077554  0  3.957458  0
C  C56  1  0.72143761  0.92915517  0.74491384  1  0  0.543488  0  3.974491  0  0  0.50167  0  4.277432  0  0  0.530509  0  4.275347  0  1.639787  0  0.204988  0.48165  0  4.2831  0
C  C57  1  0.79247443  0.07078654  0.75502372  1  0  0.5444  0  3.972489  0  0  0.502618  0  4.275472  0  0  0.531468  0  4.273331  0  1.518664  0  0.204703  0.482595  0  4.28116  0
C  C58  1  0.27856076  0.07084928  0.25508366  1  0  0.543554  0  3.974581  0  0  0.501706  0  4.277553  0  0  0.530544  0  4.275471  0  1.63962  0  0.20499  0.481686  0  4.28322  0
C  C59  1  0.20752557  0.92921700  0.24497076  1  0  0.544246  0  3.972182  0  0  0.502484  0  4.275159  0  0  0.531334  0  4.273018  0  1.51867  0  0.20463  0.48246  0  4.280845  0
C  C60  1  0.78431699  0.80923960  0.23166361  1  0  -0.106789  0  3.677217  0  0  -0.126477  0  3.916131  0  0  -0.131007  0  3.934944  0  0.053487  0  -0.068556  -0.123403  0  3.903116  0
C  C61  1  0.97498964  0.19057299  0.26828336  1  0  -0.107554  0  3.677282  0  0  -0.127312  0  3.917333  0  0  -0.131804  0  3.936171  0  -0.02401  0  -0.069201  -0.124293  0  3.904275  0
C  C62  1  0.21568269  0.19076121  0.76833775  1  0  -0.106742  0  3.677184  0  0  -0.126481  0  3.916117  0  0  -0.130993  0  3.934942  0  0.05352  0  -0.068529  -0.123409  0  3.903106  0
C  C63  1  0.02501154  0.80942873  0.73171335  1  0  -0.107599  0  3.677284  0  0  -0.127315  0  3.917303  0  0  -0.131807  0  3.936141  0  -0.023965  0  -0.069218  -0.124296  0  3.904246  0
C  C64  1  0.69892951  0.74739049  0.29142383  1  0  0.119389  0  3.700363  0  0  0.09067  0  3.942585  0  0  0.097139  0  3.961332  0  0.409839  0  0.047309  0.086351  0  3.929728  0
C  C65  1  0.95155178  0.25251303  0.20854446  1  0  0.120423  0  3.701681  0  0  0.09178  0  3.943725  0  0  0.098279  0  3.962467  0  0.446629  0  0.047751  0.087412  0  3.930961  0
C  C66  1  0.30106809  0.25261032  0.70857576  1  0  0.119329  0  3.700408  0  0  0.090618  0  3.942654  0  0  0.09709  0  3.961395  0  0.409867  0  0.047256  0.086296  0  3.929806  0
C  C67  1  0.04844894  0.74748778  0.79145394  1  0  0.120389  0  3.701737  0  0  0.09173  0  3.943771  0  0  0.098233  0  3.962506  0  0.4466  0  0.047758  0.087361  0  3.931009  0
C  C68  1  0.49979938  0.80158518  0.26191245  1  0  0.115632  0  3.670851  0  0  0.086732  0  3.914061  0  0  0.092595  0  3.933125  0  0.365207  0  0.048839  0.082875  0  3.901073  0
C  C69  1  0.69825813  0.19845928  0.23807458  1  0  0.116177  0  3.671076  0  0  0.086877  0  3.914598  0  0  0.092786  0  3.933621  0  0.488268  0  0.048626  0.082989  0  3.901595  0
C  C70  1  0.50019938  0.19841381  0.73808700  1  0  0.115548  0  3.670942  0  0  0.08669  0  3.914156  0  0  0.092533  0  3.933217  0  0.408066  0  0.048812  0.082833  0  3.901167  0
C  C71  1  0.30174273  0.80153972  0.76192486  1  0  0.116179  0  3.671102  0  0  0.086889  0  3.914616  0  0  0.0928  0  3.933636  0  0.488178  0  0.048631  0.083015  0  3.901613  0
C  C72  1  0.81713398  0.94202346  0.12197867  1  0  0.705652  0  3.890353  0  0  0.659379  0  4.181558  0  0  0.694518  0  4.173821  0  1.635095  0  0.22964  0.635772  0  4.188578  0
C  C73  1  0.87498586  0.05789824  0.37800526  1  0  0.70571  0  3.890524  0  0  0.65948  0  4.181829  0  0  0.694544  0  4.174325  0  1.616418  0  0.229945  0.635902  0  4.188756  0
C  C74  1  0.18287077  0.05797917  0.87802343  1  0  0.705651  0  3.890202  0  0  0.659293  0  4.181517  0  0  0.694432  0  4.173808  0  1.634913  0  0.229634  0.635687  0  4.188537  0
C  C75  1  0.12502007  0.94210257  0.62199256  1  0  0.705372  0  3.890534  0  0  0.659151  0  4.181829  0  0  0.694212  0  4.174335  0  1.616339  0  0.229776  0.635587  0  4.188733  0
C  C76  1  0.34087845  0.42389360  0.08904500  1  0  -0.009752  0  3.674288  0  0  -0.036719  0  3.914839  0  0  -0.031026  0  3.931287  0  -0.092886  0  -0.05261  -0.039989  0  3.903172  0
C  C77  1  0.91691730  0.57602810  0.41095195  1  0  -0.00851  0  3.672041  0  0  -0.035604  0  3.91281  0  0  -0.029827  0  3.92919  0  -0.051859  0  -0.052912  -0.03889  0  3.901179  0
C  C78  1  0.65911882  0.57610448  0.91095201  1  0  -0.009611  0  3.674263  0  0  -0.036607  0  3.914834  0  0  -0.030912  0  3.931284  0  -0.093221  0  -0.05257  -0.039863  0  3.903172  0
C  C79  1  0.08308206  0.42396998  0.58905276  1  0  -0.008553  0  3.6722  0  0  -0.035627  0  3.912942  0  0  -0.029855  0  3.929326  0  -0.015665  0  -0.052917  -0.038908  0  3.901304  0
C  C80  1  0.38905019  0.61917945  0.04692124  1  0  0.13952  0  3.652738  0  0  0.10551  0  3.896873  0  0  0.114254  0  3.914823  0  0.42504  0  0.055421  0.099977  0  3.88433  0
C  C81  1  0.76988431  0.38078681  0.45315021  1  0  0.13914  0  3.652488  0  0  0.105452  0  3.896547  0  0  0.114212  0  3.914527  0  0.387928  0  0.05504  0.099889  0  3.884148  0
C  C82  1  0.61095066  0.38081954  0.95307703  1  0  0.139704  0  3.652719  0  0  0.105678  0  3.896879  0  0  0.114425  0  3.914826  0  0.425029  0  0.055506  0.100145  0  3.884336  0
C  C83  1  0.23011310  0.61920946  0.54685139  1  0  0.139315  0  3.652531  0  0  0.105625  0  3.896556  0  0  0.114389  0  3.914532  0  0.387503  0  0.055103  0.10006  0  3.884158  0
C  C84  1  0.17747472  0.45198071  0.99228951  1  0  0.095759  0  3.698656  0  0  0.057225  0  3.936994  0  0  0.065504  0  3.955345  0  0.492146  0  0.049963  0.051602  0  3.924966  0
C  C85  1  0.72540289  0.54798009  0.50769511  1  0  0.097918  0  3.696575  0  0  0.059025  0  3.934739  0  0  0.067152  0  3.953481  0  0.508812  0  0.050542  0.053444  0  3.922551  0
C  C86  1  0.82252587  0.54802192  0.00770785  1  0  0.095868  0  3.698582  0  0  0.057321  0  3.936905  0  0  0.065586  0  3.955278  0  0.49219  0  0.049967  0.051698  0  3.924877  0
C  C87  1  0.27459094  0.45201526  0.49230761  1  0  0.097972  0  3.6967  0  0  0.058999  0  3.934889  0  0  0.067123  0  3.953629  0  0.509045  0  0.050568  0.053419  0  3.922701  0
C  C88  1  0.11323034  0.24091138  0.02588565  1  0  0.702681  0  3.921275  0  0  0.653746  0  4.216105  0  0  0.688847  0  4.210622  0  1.619989  0  0.228522  0.630218  0  4.221622  0
C  C89  1  0.87236508  0.75903669  0.47414886  1  0  0.703057  0  3.921629  0  0  0.654322  0  4.216071  0  0  0.689421  0  4.210695  0  1.618174  0  0.228601  0.630752  0  4.221667  0
C  C90  1  0.88676458  0.75909034  0.97411164  1  0  0.702711  0  3.921249  0  0  0.653845  0  4.215971  0  0  0.688946  0  4.210488  0  1.619402  0  0.228542  0.630318  0  4.221487  0
C  C91  1  0.12763160  0.24096230  0.52585591  1  0  0.703019  0  3.921565  0  0  0.654354  0  4.21589  0  0  0.689452  0  4.210511  0  1.617779  0  0.228645  0.630781  0  4.221492  0
C  C92  1  0.53554635  0.06950989  0.01216376  1  0  0.556  0  3.952542  0  0  0.510705  0  4.246599  0  0  0.540616  0  4.243474  0  1.61946  0  0.204385  0.489846  0  4.252958  0
C  C93  1  0.46615165  0.93050183  0.48782426  1  0  0.556917  0  3.950847  0  0  0.511349  0  4.245601  0  0  0.541293  0  4.242452  0  1.577271  0  0.204151  0.490423  0  4.252017  0
C  C94  1  0.46444517  0.93049546  0.98783974  1  0  0.556107  0  3.952253  0  0  0.510647  0  4.246526  0  0  0.540574  0  4.243382  0  1.587075  0  0.204206  0.489751  0  4.252926  0
C  C95  1  0.53386166  0.06949080  0.51218179  1  0  0.556908  0  3.950769  0  0  0.511185  0  4.245722  0  0  0.541137  0  4.24256  0  1.604309  0  0.204065  0.490261  0  4.252136  0
N  N96  1  0.56011564  0.74509725  0.30777945  1  0  -0.297255  0  3.376172  0  0  -0.208535  0  3.662744  0  0  -0.226646  0  3.677737  0  -1.180982  0  -0.348997  -0.196203  0  3.652064  0
N  N97  1  0.81509678  0.25493538  0.19221790  1  0  -0.298453  0  3.377474  0  0  -0.209579  0  3.664268  0  0  -0.227755  0  3.679324  0  -1.192236  0  -0.34914  -0.197204  0  3.65361  0
N  N98  1  0.43988059  0.25490083  0.69222052  1  0  -0.297154  0  3.376204  0  0  -0.208416  0  3.662728  0  0  -0.226528  0  3.677731  0  -1.180631  0  -0.348947  -0.196085  0  3.652045  0
N  N99  1  0.18490290  0.74506543  0.80778051  1  0  -0.298441  0  3.377542  0  0  -0.209557  0  3.664317  0  0  -0.227734  0  3.679374  0  -1.192101  0  -0.349128  -0.197181  0  3.653653  0
N  N100  1  0.26579268  0.57158712  0.99587057  1  0  -0.293792  0  3.365524  0  0  -0.200609  0  3.644091  0  0  -0.221183  0  3.660492  0  -1.197932  0  -0.345274  -0.186695  0  3.632329  0
N  N101  1  0.69416789  0.42839005  0.50415971  1  0  -0.294592  0  3.365805  0  0  -0.201703  0  3.64502  0  0  -0.222246  0  3.661316  0  -1.215312  0  -0.345785  -0.187774  0  3.633222  0
N  N102  1  0.73420700  0.42841369  0.00412724  1  0  -0.293977  0  3.365719  0  0  -0.200773  0  3.64431  0  0  -0.221341  0  3.660701  0  -1.197788  0  -0.345318  -0.186858  0  3.632552  0
N  N103  1  0.30582847  0.57160622  0.49584130  1  0  -0.294709  0  3.365836  0  0  -0.201797  0  3.645058  0  0  -0.222339  0  3.661352  0  -1.215106  0  -0.345796  -0.187868  0  3.633263  0
O  O104  1  0.71416772  0.87843215  0.80727668  1  0  -0.650273  0  2.025312  0  0  -0.607165  0  2.270217  0  0  -0.635664  0  2.257618  0  -1.182586  0  -0.373629  -0.591834  0  2.277267  0
O  O105  1  0.83613855  0.12151320  0.69268483  1  0  -0.65092  0  2.025022  0  0  -0.607781  0  2.270236  0  0  -0.636404  0  2.257535  0  -1.170227  0  -0.374101  -0.592482  0  2.277294  0
O  O106  1  0.28582602  0.12157139  0.19272667  1  0  -0.650256  0  2.025511  0  0  -0.60713  0  2.270421  0  0  -0.635634  0  2.257823  0  -1.182522  0  -0.373605  -0.591797  0  2.277477  0
O  O107  1  0.16385904  0.87848762  0.30731653  1  0  -0.650846  0  2.024603  0  0  -0.607722  0  2.269823  0  0  -0.636341  0  2.257113  0  -1.170083  0  -0.374066  -0.592412  0  2.276882  0
O  O108  1  0.75054714  0.98146308  0.07450015  1  0  -0.712925  0  2.027604  0  0  -0.663184  0  2.278443  0  0  -0.696075  0  2.268013  0  -1.195237  0  -0.369211  -0.645182  0  2.283851  0
O  O109  1  0.76896352  0.01856592  0.42550579  1  0  -0.712865  0  2.02874  0  0  -0.662963  0  2.279598  0  0  -0.696025  0  2.269345  0  -1.187654  0  -0.369518  -0.644979  0  2.284961  0
O  O110  1  0.24945957  0.01854137  0.92550091  1  0  -0.712941  0  2.027548  0  0  -0.663168  0  2.278436  0  0  -0.696058  0  2.268006  0  -1.195118  0  -0.369224  -0.645164  0  2.283846  0
O  O111  1  0.23105193  0.98143308  0.57449247  1  0  -0.712561  0  2.028574  0  0  -0.662656  0  2.279385  0  0  -0.695716  0  2.269147  0  -1.187526  0  -0.369298  -0.644666  0  2.284732  0
O  O112  1  0.65959811  0.12916670  0.98122284  1  0  -0.65704  0  2.109642  0  0  -0.595619  0  2.370595  0  0  -0.627551  0  2.358081  0  -1.174264  0  -0.371509  -0.577892  0  2.37819  0
O  O113  1  0.53062013  0.87091867  0.51879048  1  0  -0.656934  0  2.110594  0  0  -0.595004  0  2.371424  0  0  -0.62703  0  2.35876  0  -1.167487  0  -0.371424  -0.577282  0  2.379102  0
O  O114  1  0.34040267  0.87084047  0.01877666  1  0  -0.656956  0  2.109857  0  0  -0.595487  0  2.3709  0  0  -0.627424  0  2.358372  0  -1.174672  0  -0.371429  -0.577752  0  2.378516  0
O  O115  1  0.46938679  0.12907577  0.48120802  1  0  -0.657162  0  2.110214  0  0  -0.595221  0  2.37113  0  0  -0.627248  0  2.358457  0  -1.167199  0  -0.37156  -0.57749  0  2.378807  0
O  O116  1  0.97888623  0.20846058  0.99693856  1  0  -0.720308  0  2.036177  0  0  -0.670363  0  2.301021  0  0  -0.702702  0  2.28555  0  -1.190678  0  -0.377742  -0.653215  0  2.30993  0
O  O117  1  0.77048065  0.79154296  0.50305296  1  0  -0.72004  0  2.03511  0  0  -0.669918  0  2.299629  0  0  -0.702383  0  2.284136  0  -1.181312  0  -0.377323  -0.652871  0  2.30862  0
O  O118  1  0.02110810  0.79154205  0.00305881  1  0  -0.720231  0  2.036235  0  0  -0.670297  0  2.301026  0  0  -0.702644  0  2.285555  0  -1.190878  0  -0.377673  -0.653145  0  2.309935  0
O  O119  1  0.22952346  0.20845421  0.49695641  1  0  -0.720151  0  2.03499  0  0  -0.670054  0  2.299473  0  0  -0.702516  0  2.283981  0  -1.180841  0  -0.377425  -0.652997  0  2.308465  0
O  O120  1  0.95529732  0.95646665  0.12122677  1  0  -0.754596  0  2.082664  0  0  -0.70545  0  2.344926  0  0  -0.740579  0  2.333365  0  -1.209824  0  -0.392575  -0.687576  0  2.351452  0
O  O121  1  0.99869177  0.04343323  0.37881640  1  0  -0.755051  0  2.082528  0  0  -0.705786  0  2.345095  0  0  -0.740947  0  2.3334  0  -1.204413  0  -0.392532  -0.68799  0  2.351718  0
O  O122  1  0.04470490  0.04353507  0.87877763  1  0  -0.754576  0  2.082587  0  0  -0.705412  0  2.34488  0  0  -0.740539  0  2.333344  0  -1.209752  0  -0.392557  -0.687541  0  2.351401  0
O  O123  1  0.00132418  0.95657304  0.62117948  1  0  -0.755008  0  2.082557  0  0  -0.705762  0  2.345162  0  0  -0.740927  0  2.333475  0  -1.204314  0  -0.392602  -0.687971  0  2.351758  0
O  O124  1  0.17380441  0.17163608  0.04564748  1  0  -0.73438  0  2.086833  0  0  -0.684956  0  2.351425  0  0  -0.719151  0  2.3379  0  -1.201545  0  -0.392879  -0.667655  0  2.35942  0
O  O125  1  0.00234415  0.82828289  0.45450843  1  0  -0.734264  0  2.086799  0  0  -0.684793  0  2.351461  0  0  -0.719177  0  2.337935  0  -1.210654  0  -0.393022  -0.667604  0  2.359571  0
O  O126  1  0.82618693  0.82836473  0.95435152  1  0  -0.73447  0  2.086767  0  0  -0.685078  0  2.351314  0  0  -0.719266  0  2.33779  0  -1.200964  0  -0.392969  -0.66778  0  2.359304  0
O  O127  1  0.99765285  0.17171883  0.54549064  1  0  -0.734191  0  2.086896  0  0  -0.684753  0  2.351553  0  0  -0.719138  0  2.338024  0  -1.210761  0  -0.393001  -0.667572  0  2.359663  0
O  O128  1  0.67727580  0.87584249  0.67491329  1  0  -0.668985  0  2.004005  0  0  -0.625872  0  2.244712  0  0  -0.654523  0  2.230421  0  -1.178673  0  -0.391503  -0.610983  0  2.252502  0
O  O129  1  0.80178574  0.12412468  0.82502922  1  0  -0.669263  0  2.003857  0  0  -0.626247  0  2.244499  0  0  -0.654767  0  2.230259  0  -1.179018  0  -0.391353  -0.611328  0  2.252336  0
O  O130  1  0.32272687  0.12416014  0.32508821  1  0  -0.669027  0  2.003973  0  0  -0.62591  0  2.244681  0  0  -0.654562  0  2.230396  0  -1.178659  0  -0.391529  -0.611011  0  2.252473  0
O  O131  1  0.19821412  0.87588068  0.17497191  1  0  -0.669174  0  2.004052  0  0  -0.626156  0  2.244699  0  0  -0.654682  0  2.230457  0  -1.179059  0  -0.391304  -0.611237  0  2.252539  0
O  O132  1  0.46679616  0.11438799  0.06103715  1  0  -0.66547  0  2.054214  0  0  -0.619012  0  2.310794  0  0  -0.649325  0  2.298075  0  -1.180548  0  -0.372037  -0.602775  0  2.318151  0
O  O133  1  0.35258899  0.88555190  0.43890263  1  0  -0.666642  0  2.052011  0  0  -0.620052  0  2.308915  0  0  -0.650443  0  2.296065  0  -1.174414  0  -0.371784  -0.603603  0  2.316279  0
O  O134  1  0.53320221  0.88561646  0.93896213  1  0  -0.66557  0  2.053744  0  0  -0.619082  0  2.310412  0  0  -0.649396  0  2.29769  0  -1.18063  0  -0.371971  -0.602836  0  2.31778  0
O  O135  1  0.64741253  0.11443800  0.56109610  1  0  -0.666364  0  2.052232  0  0  -0.61971  0  2.309164  0  0  -0.650104  0  2.296317  0  -1.174681  0  -0.37165  -0.603273  0  2.316524  0
