# generated using pymatgen
data_AlH8C14NO6F
_symmetry_space_group_name_H-M   'P 1'
_cell_length_a   6.76605613
_cell_length_b   15.45556174
_cell_length_c   17.04044543
_cell_angle_alpha   84.91103729
_cell_angle_beta   81.71954743
_cell_angle_gamma   76.59413886
_symmetry_Int_Tables_number   1
_chemical_formula_structural   AlH8C14NO6F
_chemical_formula_sum   'Al2 H16 C28 N2 O12 F2'
_cell_volume   1712.51389795
_cell_formula_units_Z   2
loop_
 _symmetry_equiv_pos_site_id
 _symmetry_equiv_pos_as_xyz
  1  'x, y, z'
loop_
 _atom_site_type_symbol
 _atom_site_label
 _atom_site_symmetry_multiplicity
 _atom_site_fract_x
 _atom_site_fract_y
 _atom_site_fract_z
 _atom_site_occupancy
 _atom_site_pbe_bader_charge
 _atom_site_pbe_bader_spin_density
 _atom_site_pbe_cm5_charge
 _atom_site_pbe_ddec_charge
 _atom_site_pbe_ddec_spin_density
 _atom_site_pbe_ddec_sum_bond_order
 _atom_site_pbe_magmom
Al  Al0  1  0.50000028  0.50000027  0.49999951  1  2.506879  0  0.402892  1.645952  0  2.570094  0
Al  Al1  1  0.99999937  0.50000230  0.50000215  1  2.508765  0  0.404764  1.642776  0  2.579344  0
H  H2  1  0.21889388  0.59971182  0.44107110  1  0.601368  0  0.352766  0.42814  0  0.854694  0
H  H3  1  0.78112894  0.40028602  0.55892687  1  0.601357  0  0.352782  0.428166  0  0.854658  0
H  H4  1  0.84457799  0.50424556  0.74068955  1  0.135526  0  0.104377  0.114396  0  1.044317  0
H  H5  1  0.78568811  0.50236831  0.88832781  1  0.10726  0  0.102843  0.107612  0  1.038372  0
H  H6  1  0.42283074  0.50056482  0.89168287  1  0.116496  0  0.114774  0.136788  0  0.997421  0
H  H7  1  0.57717131  0.49943574  0.10831489  1  0.11632  0  0.114778  0.136785  0  0.997417  0
H  H8  1  0.21430299  0.49763030  0.11166950  1  0.107529  0  0.102864  0.107739  0  1.038374  0
H  H9  1  0.15541559  0.49575709  0.25930562  1  0.135683  0  0.104405  0.114404  0  1.044334  0
H  H10  1  0.07045403  0.23141202  0.49635027  1  0.116803  0  0.115868  0.137898  0  0.998039  0
H  H11  1  0.92953901  0.76859442  0.50365350  1  0.116821  0  0.115858  0.137837  0  0.99808  0
H  H12  1  0.29085768  0.77428031  0.50460271  1  0.093488  0  0.105782  0.107314  0  1.009322  0
H  H13  1  0.21379174  0.93579511  0.50259899  1  0.118551  0  0.093164  0.104345  0  1.097861  0
H  H14  1  0.70913174  0.22572156  0.49539801  1  0.09349  0  0.105835  0.107407  0  1.009374  0
H  H15  1  0.78621578  0.06420330  0.49740506  1  0.118469  0  0.093143  0.104329  0  1.09778  0
H  H16  1  0.51399637  0.50495305  0.68022993  1  0.669081  0  0.314517  0.356209  0  0.966334  0
H  H17  1  0.48598078  0.49504968  0.31976379  1  0.669259  0  0.314568  0.35626  0  0.966161  0
C  C18  1  0.66604407  0.66017911  0.50238614  1  1.587009  0  0.273716  0.651882  0  4.075261  0
C  C19  1  0.80648224  0.49609793  0.35533571  1  1.51733  0  0.260917  0.650733  0  4.082433  0
C  C20  1  0.33396161  0.33982601  0.49761526  1  1.585948  0  0.273699  0.651803  0  4.075172  0
C  C21  1  0.19351882  0.50389856  0.64466588  1  1.517171  0  0.260879  0.650779  0  4.082387  0
C  C22  1  0.16524532  0.50418492  0.73180692  1  0.019721  0  -0.035217  -0.20124  0  3.979777  0
C  C23  1  0.97013337  0.50374962  0.77414877  1  -0.047826  0  -0.081189  -0.048582  0  3.992473  0
C  C24  1  0.93637792  0.50257237  0.85598203  1  -0.057597  0  -0.098377  -0.177651  0  3.970285  0
C  C25  1  0.10219948  0.50143497  0.89819978  1  0.294812  0  0.093498  0.198541  0  4.052944  0
C  C26  1  0.29703507  0.50169810  0.85793036  1  0.006822  0  -0.090474  -0.260591  0  3.886856  0
C  C27  1  0.33096194  0.50331790  0.77474611  1  0.535618  0  0.095565  0.323905  0  4.053005  0
C  C28  1  0.70296515  0.49830317  0.14206570  1  0.006944  0  -0.090461  -0.260559  0  3.886912  0
C  C29  1  0.89779843  0.49856498  0.10179649  1  0.29481  0  0.093523  0.198687  0  4.05285  0
C  C30  1  0.06361600  0.49742962  0.14401258  1  -0.057927  0  -0.098423  -0.177882  0  3.970395  0
C  C31  1  0.02986238  0.49625171  0.22584577  1  -0.04774  0  -0.081257  -0.048652  0  3.992476  0
C  C32  1  0.83475291  0.49581430  0.26819231  1  0.019414  0  -0.035184  -0.201071  0  3.979535  0
C  C33  1  0.66903679  0.49668339  0.22524945  1  0.53592  0  0.095557  0.323767  0  4.052995  0
C  C34  1  0.38438991  0.24099345  0.49701852  1  -0.070477  0  -0.010207  -0.015001  0  3.999055  0
C  C35  1  0.61561214  0.75900712  0.50297924  1  -0.07013  0  -0.010227  -0.015117  0  3.999053  0
C  C36  1  0.22890012  0.19537931  0.49702155  1  0.009573  0  -0.090695  -0.215167  0  3.993233  0
C  C37  1  0.27592331  0.10336284  0.49767529  1  0.417874  0  0.106914  0.246257  0  3.994663  0
C  C38  1  0.77110275  0.80462870  0.50297042  1  0.00948  0  -0.09067  -0.215026  0  3.993009  0
C  C39  1  0.72408389  0.89664248  0.50231720  1  0.417532  0  0.106864  0.246179  0  3.994906  0
C  C40  1  0.41465776  0.80868165  0.50331953  1  0.072344  0  -0.084723  -0.093689  0  3.98933  0
C  C41  1  0.37178019  0.90099764  0.50236498  1  -0.052733  0  -0.089791  -0.120041  0  3.96924  0
C  C42  1  0.58534578  0.19131882  0.49668226  1  0.072452  0  -0.084766  -0.093853  0  3.98932  0
C  C43  1  0.62822832  0.09900485  0.49763466  1  -0.05285  0  -0.089769  -0.119895  0  3.969035  0
C  C44  1  0.47569170  0.04939471  0.49889481  1  -0.018922  0  -0.003918  -0.007846  0  3.941383  0
C  C45  1  0.52431518  0.95060526  0.50109921  1  0.085517  0  -0.003865  -0.007719  0  3.941457  0
N  N46  1  0.08876316  0.49988851  0.98198496  1  -0.429008  0  -0.143029  -0.127228  0  3.256502  0
N  N47  1  0.91123176  0.50011148  0.01800971  1  -0.473839  0  -0.142903  -0.127065  0  3.256336  0
O  O48  1  0.51872322  0.62187245  0.50091796  1  -1.260386  0  -0.236033  -0.597988  0  2.335861  0
O  O49  1  0.95748316  0.49809612  0.39112519  1  -1.258785  0  -0.23317  -0.582387  0  2.3456  0
O  O50  1  0.14593774  0.37875196  0.49740357  1  -1.270179  0  -0.231884  -0.593022  0  2.344203  0
O  O51  1  0.37656627  0.50435780  0.60885062  1  -1.265013  0  -0.242329  -0.619461  0  2.396327  0
O  O52  1  0.48129344  0.37812873  0.49908014  1  -1.259087  0  -0.236034  -0.59795  0  2.336031  0
O  O53  1  0.04251589  0.50190436  0.60887686  1  -1.258364  0  -0.233133  -0.582387  0  2.345785  0
O  O54  1  0.85406392  0.62125502  0.50260439  1  -1.269833  0  -0.231865  -0.592986  0  2.344319  0
O  O55  1  0.62343632  0.49563274  0.39114950  1  -1.264782  0  -0.242366  -0.619504  0  2.396457  0
O  O56  1  0.24320137  0.53909518  0.46398602  1  -1.406657  0  -0.4479  -0.985855  0  2.166144  0
O  O57  1  0.75680115  0.46090721  0.53601924  1  -1.406764  0  -0.44793  -0.985889  0  2.166126  0
O  O58  1  0.52185009  0.50363989  0.73865129  1  -1.1801  0  -0.341016  -0.431007  0  2.305426  0
O  O59  1  0.47813951  0.49636484  0.26134045  1  -1.180204  0  -0.341064  -0.431025  0  2.305329  0
F  F60  1  0.11074225  0.06663360  0.49695088  1  -0.640163  0  -0.078639  -0.131801  0  1.436868  0
F  F61  1  0.88924849  0.93337163  0.50304781  1  -0.640072  0  -0.078603  -0.131752  0  1.437124  0
