# generated using pymatgen
data_Al6H33C83N5O28
_symmetry_space_group_name_H-M   'P 1'
_cell_length_a   12.44174061
_cell_length_b   12.67620263
_cell_length_c   27.98141819
_cell_angle_alpha   90.48262777
_cell_angle_beta   89.61685475
_cell_angle_gamma   120.27632774
_symmetry_Int_Tables_number   1
_chemical_formula_structural   Al6H33C83N5O28
_chemical_formula_sum   'Al6 H33 C83 N5 O28'
_cell_volume   3810.98732597
_cell_formula_units_Z   1
loop_
 _symmetry_equiv_pos_site_id
 _symmetry_equiv_pos_as_xyz
  1  'x, y, z'
loop_
 _atom_site_type_symbol
 _atom_site_label
 _atom_site_symmetry_multiplicity
 _atom_site_fract_x
 _atom_site_fract_y
 _atom_site_fract_z
 _atom_site_occupancy
 _atom_site_pbe_bader_charge
 _atom_site_pbe_bader_spin_density
 _atom_site_pbe_cm5_charge
 _atom_site_pbe_ddec_charge
 _atom_site_pbe_ddec_spin_density
 _atom_site_pbe_ddec_sum_bond_order
 _atom_site_pbe_magmom
Al  Al0  1  0.80974180  0.40291640  0.50447822  1  2.496761  0  0.398614  1.686092  0  2.555558  0
Al  Al1  1  0.06638807  0.65808309  0.50155007  1  2.482235  0  0.507446  1.661519  0  2.50938  0
Al  Al2  1  0.07971889  0.42784101  0.50247752  1  2.485328  0  0.50854  1.665058  0  2.502259  0
Al  Al3  1  0.84330071  0.90376977  0.01388318  1  2.488301  0  0.396862  1.685525  0  2.557198  0
Al  Al4  1  0.59032870  0.91611484  0.01804192  1  2.48371  0  0.512333  1.667275  0  2.494393  0
Al  Al5  1  0.56872506  0.66870108  0.01676375  1  2.481605  0  0.510675  1.662473  0  2.502249  0
H  H6  1  0.50599237  0.79653217  0.70309456  1  0.114365  0  0.114495  0.11852  0  0.978699  0
H  H7  1  0.73386092  0.43448086  0.36918173  1  0.110145  0  0.118556  0.124036  0  0.988064  0
H  H8  1  0.95905983  0.80637294  0.13012325  1  0.151539  0  0.117125  0.128556  0  0.997113  0
H  H9  1  0.56955730  0.55177583  0.15072742  1  0.105129  0  0.109092  0.112387  0  1.00239  0
H  H10  1  0.98881255  0.81922199  0.38371644  1  0.100335  0  0.12117  0.130412  0  0.976527  0
H  H11  1  0.11651486  0.54016395  0.72743916  1  0.089601  0  0.110802  0.113104  0  0.992251  0
H  H12  1  0.73505948  0.25511412  0.80950726  1  0.107191  0  0.125643  0.13854  0  0.963446  0
H  H13  1  0.99866419  0.66090437  0.72617412  1  0.089483  0  0.105787  0.105806  0  1.006686  0
H  H14  1  0.65519730  0.65639705  0.70015803  1  0.090409  0  0.111882  0.115554  0  0.983766  0
H  H15  1  0.19583482  0.77192090  0.37418523  1  0.102242  0  0.113134  0.117202  0  0.996547  0
H  H16  1  0.24151702  0.79517716  0.28747345  1  0.095987  0  0.10825  0.111298  0  1.002229  0
H  H17  1  0.96043467  0.65414000  0.81389467  1  0.088817  0  0.10988  0.113733  0  0.988248  0
H  H18  1  0.45569381  0.90246734  0.14526009  1  0.144854  0  0.118225  0.128152  0  1.021081  0
H  H19  1  0.54214398  0.81716692  0.79068183  1  0.0798  0  0.111048  0.11301  0  0.991383  0
H  H20  1  0.31824594  0.51059425  0.38279577  1  0.094284  0  0.116527  0.12078  0  0.979186  0
H  H21  1  0.07490782  0.28396334  0.37451841  1  0.107751  0  0.110252  0.113949  0  0.997501  0
H  H22  1  0.04642001  0.23101142  0.28824474  1  0.072388  0  0.104421  0.10604  0  1.007595  0
H  H23  1  0.69117852  0.18498473  0.38653570  1  0.110403  0  0.114291  0.118003  0  0.984527  0
H  H24  1  0.15275871  0.56050798  0.81508743  1  0.079032  0  0.114118  0.117976  0  0.980262  0
H  H25  1  0.99813826  0.79528255  0.21613923  1  0.096152  0  0.106214  0.110232  0  0.999203  0
H  H26  1  0.70288306  0.46252453  0.28334651  1  0.072111  0  0.110352  0.114635  0  0.989451  0
H  H27  1  0.60603693  0.54317506  0.23772761  1  0.063085  0  0.100891  0.098499  0  1.008659  0
H  H28  1  0.61691520  0.65000646  0.78781540  1  0.057809  0  0.105355  0.106771  0  1.009223  0
H  H29  1  0.94579718  0.07837978  0.71328779  1  0.115473  0  0.12189  0.130036  0  0.965389  0
H  H30  1  0.91422568  0.03944476  0.80085445  1  0.09912  0  0.123052  0.130725  0  0.963561  0
H  H31  1  0.27524525  0.49466568  0.22098458  1  0.097846  0  0.111177  0.114413  0  0.989453  0
H  H32  1  0.32731149  0.51871178  0.13436240  1  0.118812  0  0.122923  0.127592  0  0.968626  0
H  H33  1  0.37321380  0.53933615  0.29638351  1  0.03683  0  0.105384  0.103906  0  1.001158  0
H  H34  1  0.68331334  0.18397582  0.22701435  1  0.107236  0  0.116537  0.126972  0  0.999402  0
H  H35  1  0.98131728  0.10358099  0.23157069  1  0.137003  0  0.112298  0.126682  0  1.03743  0
H  H36  1  0.65861502  0.12658025  0.30061687  1  0.118034  0  0.099828  0.108113  0  1.051984  0
H  H37  1  0.60735220  0.25105957  0.48393053  1  0.55464  0  0.289995  0.376905  0  0.933038  0
H  H38  1  0.04814613  0.99666496  0.04198349  1  0.59848  0  0.287041  0.385371  0  0.93119  0
C  C39  1  0.88951394  0.62304132  0.56796966  1  1.685611  0  0.284858  0.712858  0  4.158828  0
C  C40  1  0.89964910  0.11647525  0.73453722  1  -0.024281  0  -0.067036  -0.110836  0  3.949719  0
C  C41  1  0.88213089  0.09487307  0.78325482  1  -0.005634  0  -0.062387  -0.101931  0  3.919296  0
C  C42  1  0.21686624  0.61795306  0.56868648  1  1.640437  0  0.288411  0.727339  0  4.142496  0
C  C43  1  0.78134023  0.21670999  0.78855244  1  0.048458  0  -0.056848  -0.144267  0  3.879024  0
C  C44  1  0.79883251  0.23856166  0.73948235  1  0.08718  0  0.018359  0.029782  0  4.051754  0
C  C45  1  0.85894649  0.18855039  0.71159628  1  0.12642  0  0.018877  0.101119  0  4.075434  0
C  C46  1  0.82286283  0.14485900  0.81091845  1  0.027317  0  0.010001  0.132167  0  4.123576  0
C  C47  1  0.80450802  0.12107653  0.86042466  1  -0.566697  0  -0.015774  -0.033905  0  4.074751  0
C  C48  1  0.87740002  0.21352030  0.66224190  1  -0.016536  0  -0.01882  -0.039376  0  4.090883  0
C  C49  1  0.78932746  0.09705205  0.90283940  1  0.340915  0  -0.021441  -0.164512  0  3.926454  0
C  C50  1  0.22966047  0.61221081  0.79043705  1  0.026345  0  -0.07423  -0.115456  0  3.949259  0
C  C51  1  0.86511743  0.65026004  0.61526815  1  0.097316  0  -0.03233  -0.194778  0  3.926017  0
C  C52  1  0.91574081  0.65923745  0.73998037  1  -0.099197  0  -0.077174  -0.113399  0  3.962001  0
C  C53  1  0.89416160  0.65470048  0.78877175  1  0.017944  0  -0.07936  -0.122586  0  3.961362  0
C  C54  1  0.90743221  0.29079912  0.57282805  1  1.698005  0  0.279846  0.702921  0  4.167765  0
C  C55  1  0.70044092  0.65274248  0.77409485  1  0.021303  0  -0.078639  -0.119629  0  3.95945  0
C  C56  1  0.72204603  0.65710042  0.72529361  1  -0.041955  0  -0.07444  -0.111922  0  3.953668  0
C  C57  1  0.82975154  0.65998524  0.70756084  1  0.12726  0  0.00747  0.12633  0  4.110603  0
C  C58  1  0.78605372  0.65131008  0.80655418  1  0.059517  0  0.00238  0.123093  0  4.115029  0
C  C59  1  0.76576105  0.65141950  0.85629527  1  -0.377648  0  -0.011338  -0.012285  0  4.06975  0
C  C60  1  0.84927402  0.65753912  0.65789721  1  -0.348455  0  -0.003082  0.005336  0  4.053527  0
C  C61  1  0.20949025  0.60101537  0.74144584  1  -0.008894  0  -0.074874  -0.116525  0  3.951048  0
C  C62  1  0.75059816  0.65707939  0.89911173  1  0.1195  0  -0.035709  -0.196429  0  3.934288  0
C  C63  1  0.25582165  0.64121898  0.38394858  1  -0.020981  0  -0.010583  -0.046533  0  3.971649  0
C  C64  1  0.23537593  0.72196245  0.35680026  1  -0.063463  0  -0.071724  -0.07068  0  3.951773  0
C  C65  1  0.26186525  0.73503460  0.30819600  1  -0.040492  0  -0.082338  -0.123027  0  3.966031  0
C  C66  1  0.88721888  0.60175770  0.43138677  1  1.586197  0  0.270044  0.633311  0  4.105398  0
C  C67  1  0.31236070  0.67015470  0.28552216  1  0.042856  0  -0.000133  0.070119  0  3.995599  0
C  C68  1  0.33276835  0.58941657  0.31311768  1  -0.017296  0  -0.083282  -0.127037  0  3.968238  0
C  C69  1  0.30380746  0.57412839  0.36162145  1  -0.00833  0  -0.072307  -0.076509  0  3.965275  0
C  C70  1  0.31718797  0.58482505  0.20477751  1  -0.029242  0  -0.077891  -0.127818  0  3.966517  0
C  C71  1  0.34404403  0.59731165  0.15608210  1  0.038099  0  -0.06  -0.058279  0  3.94058  0
C  C72  1  0.30877694  0.66745823  0.70924973  1  0.130873  0  0.00732  0.122293  0  4.103761  0
C  C73  1  0.41657131  0.81332165  0.16204147  1  -0.028679  0  -0.054897  -0.093925  0  3.878255  0
C  C74  1  0.39384464  0.80135649  0.21140773  1  0.120393  0  0.010892  0.010744  0  4.039943  0
C  C75  1  0.34136359  0.68542712  0.23384500  1  -0.012289  0  0.018732  0.056507  0  3.938453  0
C  C76  1  0.39304647  0.71182085  0.13430925  1  -0.075894  0  -0.006532  -0.042465  0  3.973436  0
C  C77  1  0.88484386  0.23772449  0.38558223  1  0.003788  0  -0.013925  -0.047888  0  3.982244  0
C  C78  1  0.21469078  0.62002254  0.43470631  1  1.542506  0  0.278574  0.644912  0  4.083896  0
C  C79  1  0.98438140  0.24932347  0.35780938  1  -0.024457  0  -0.077693  -0.080125  0  3.973427  0
C  C80  1  0.96777450  0.21989143  0.30949857  1  -0.046362  0  -0.084033  -0.123879  0  3.977456  0
C  C81  1  0.85120669  0.17744213  0.28786524  1  -0.059713  0  -0.001203  0.073957  0  3.97874  0
C  C82  1  0.75093125  0.16363345  0.31621590  1  -0.050179  0  -0.087199  -0.130034  0  3.951298  0
C  C83  1  0.34977241  0.69027720  0.80892654  1  0.055065  0  0.006892  0.122083  0  4.102861  0
C  C84  1  0.76792530  0.19416008  0.36448006  1  -0.010296  0  -0.075217  -0.07701  0  3.968849  0
C  C85  1  0.74337887  0.15542126  0.20991922  1  0.023229  0  -0.061372  -0.141794  0  3.878316  0
C  C86  1  0.72490051  0.12388623  0.16127408  1  0.062023  0  0.018873  0.060001  0  4.059961  0
C  C87  1  0.89611333  0.08501313  0.16329900  1  0.050137  0  0.022346  0.06794  0  4.046688  0
C  C88  1  0.91135756  0.11356197  0.21216746  1  -0.014008  0  -0.061982  -0.143803  0  3.864868  0
C  C89  1  0.83490620  0.14840361  0.23630773  1  0.015299  0  0.009508  0.094497  0  3.990937  0
C  C90  1  0.90600188  0.28136389  0.43591569  1  1.543003  0  0.269826  0.638092  0  4.096119  0
C  C91  1  0.80008659  0.08632816  0.13703861  1  0.052734  0  0.008668  -0.105267  0  3.878889  0
C  C92  1  0.86375900  0.62475167  0.38143119  1  0.054411  0  -0.009694  -0.039928  0  3.98409  0
C  C93  1  0.78113890  0.52489726  0.35314852  1  -0.020086  0  -0.063624  -0.058586  0  3.942185  0
C  C94  1  0.37156604  0.70162071  0.85888739  1  -0.211015  0  -0.00084  0.001709  0  4.039035  0
C  C95  1  0.76340062  0.54140227  0.30551310  1  -0.081795  0  -0.081222  -0.129912  0  3.979486  0
C  C96  1  0.82499952  0.65741517  0.28431477  1  0.006108  0  0.015165  0.054918  0  3.950379  0
C  C97  1  0.90579171  0.75838652  0.31368289  1  0.099601  0  0.006766  0.005494  0  4.054791  0
C  C98  1  0.92576631  0.74128909  0.36166780  1  -0.003359  0  -0.059755  -0.107615  0  3.914019  0
C  C99  1  0.90369745  0.74229039  0.20233734  1  -0.08021  0  -0.084752  -0.126142  0  3.964983  0
C  C100  1  0.88284949  0.74761406  0.15391859  1  -0.001992  0  -0.071415  -0.069419  0  3.943601  0
C  C101  1  0.66287255  0.60405909  0.16558322  1  -0.007552  0  -0.078749  -0.08087  0  3.98009  0
C  C102  1  0.26508342  0.64494838  0.61656417  1  0.155546  0  -0.029437  -0.192272  0  3.914111  0
C  C103  1  0.68391559  0.59933023  0.21401477  1  -0.042594  0  -0.090683  -0.136021  0  3.992036  0
C  C104  1  0.80452130  0.66843827  0.23317005  1  -0.033104  0  -0.005884  0.064431  0  4.015046  0
C  C105  1  0.28675628  0.65603947  0.65931696  1  -0.386212  0  -0.000125  0.004413  0  4.038488  0
C  C106  1  0.76231530  0.67894231  0.13530276  1  -0.062372  0  -0.012248  -0.045348  0  3.970536  0
C  C107  1  0.76652965  0.04710212  0.95022087  1  1.672775  0  0.280524  0.701376  0  4.17225  0
C  C108  1  0.43902310  0.73069184  0.94977905  1  1.644617  0  0.287959  0.726443  0  4.144651  0
C  C109  1  0.73799969  0.69160297  0.94695921  1  1.681388  0  0.282791  0.713816  0  4.158661  0
C  C110  1  0.77375954  0.03849622  0.08707461  1  1.58106  0  0.268253  0.628329  0  4.127998  0
C  C111  1  0.43485130  0.73114011  0.08351109  1  1.570677  0  0.281361  0.643951  0  4.088207  0
C  C112  1  0.73961475  0.69560501  0.08456614  1  1.555485  0  0.271934  0.638721  0  4.091897  0
C  C113  1  0.42894806  0.74511764  0.72772553  1  -0.122869  0  -0.073068  -0.114474  0  3.946787  0
C  C114  1  0.44905897  0.75653725  0.77672601  1  -0.005332  0  -0.074742  -0.117064  0  3.952679  0
C  C115  1  0.43309062  0.91096934  0.23830701  1  0.807322  0  0.18788  0.243913  0  4.029908  0
C  C116  1  0.39246479  0.71163561  0.90169753  1  -0.000283  0  -0.029128  -0.190742  0  3.913698  0
C  C117  1  0.62590810  0.13151227  0.13895496  1  0.83855  0  0.17815  0.233513  0  4.02945  0
C  C118  1  0.98342648  0.05548768  0.14275472  1  0.873291  0  0.189639  0.247987  0  4.005155  0
C  C119  1  0.96631826  0.88080010  0.29642939  1  0.810493  0  0.184064  0.240447  0  4.042959  0
C  C120  1  0.75584415  0.31155088  0.71751143  1  0.814251  0  0.177005  0.219234  0  4.029268  0
C  C121  1  0.89105512  0.24045052  0.62007117  1  -0.235685  0  -0.015754  -0.15056  0  3.905351  0
N  N122  1  0.46964119  0.00310575  0.25906734  1  -1.137106  0  -0.29998  -0.362085  0  2.763858  0
N  N123  1  0.54200448  0.14080873  0.12597308  1  -1.087965  0  -0.302851  -0.339575  0  2.658127  0
N  N124  1  0.06341764  0.03729549  0.13172815  1  -1.111544  0  -0.290427  -0.340926  0  2.709762  0
N  N125  1  0.01709764  0.98271527  0.28428035  1  -1.138316  0  -0.302715  -0.365476  0  2.777937  0
N  N126  1  0.71968058  0.37172072  0.70057149  1  -1.07422  0  -0.279107  -0.316942  0  2.732089  0
O  O127  1  0.82814899  0.31877301  0.55995505  1  -1.204699  0  -0.197359  -0.536775  0  2.291027  0
O  O128  1  0.45412606  0.64659424  0.96769774  1  -1.235626  0  -0.224293  -0.583576  0  2.243303  0
O  O129  1  0.64047019  0.61657405  0.97106266  1  -1.259904  0  -0.241039  -0.607395  0  2.2289  0
O  O130  1  0.81153772  0.52193713  0.54959040  1  -1.209798  0  -0.194329  -0.523579  0  2.267324  0
O  O131  1  0.82582144  0.78423908  0.06217621  1  -1.24468  0  -0.214694  -0.573455  0  2.363575  0
O  O132  1  0.84505393  0.00550547  0.06897665  1  -1.220835  0  -0.201489  -0.54871  0  2.403709  0
O  O133  1  0.67645151  0.02888249  0.06702388  1  -1.259492  0  -0.232432  -0.589597  0  2.326272  0
O  O134  1  0.46787409  0.83558815  0.06544916  1  -1.263587  0  -0.226756  -0.584562  0  2.301579  0
O  O135  1  0.44320595  0.64598932  0.06231470  1  -1.247151  0  -0.22845  -0.58518  0  2.294491  0
O  O136  1  0.63033903  0.62170634  0.06740312  1  -1.269907  0  -0.247531  -0.610994  0  2.275677  0
O  O137  1  0.66483186  0.82916135  0.01670241  1  -1.609635  0  -0.391842  -1.27388  0  2.288256  0
O  O138  1  0.18687074  0.69552007  0.45385824  1  -1.269832  0  -0.23491  -0.60017  0  2.307819  0
O  O139  1  0.99376503  0.70354886  0.54878580  1  -1.258232  0  -0.242965  -0.61003  0  2.232344  0
O  O140  1  0.19121087  0.69283073  0.54889556  1  -1.23669  0  -0.222287  -0.58026  0  2.244248  0
O  O141  1  0.19719767  0.51653703  0.55062315  1  -1.242834  0  -0.225362  -0.587086  0  2.241291  0
O  O142  1  0.00337118  0.30682153  0.54882111  1  -1.253679  0  -0.240899  -0.604419  0  2.23127  0
O  O143  1  0.82096441  0.28925731  0.45768872  1  -1.249379  0  -0.222312  -0.586217  0  2.348285  0
O  O144  1  0.81570145  0.49659642  0.44771960  1  -1.243726  0  -0.212283  -0.563436  0  2.379381  0
O  O145  1  0.98116220  0.68903120  0.45349970  1  -1.278591  0  -0.24839  -0.612232  0  2.274007  0
O  O146  1  0.20233307  0.52508264  0.45543802  1  -1.257959  0  -0.230902  -0.591068  0  2.291634  0
O  O147  1  0.01440054  0.31439666  0.45356793  1  -1.281963  0  -0.247369  -0.61216  0  2.28683  0
O  O148  1  0.98774249  0.49731481  0.50275057  1  -1.613261  0  -0.391178  -1.270329  0  2.292634  0
O  O149  1  0.82214443  0.79586073  0.96066611  1  -1.211877  0  -0.196534  -0.532903  0  2.289007  0
O  O150  1  0.84004409  0.01421187  0.96539287  1  -1.203965  0  -0.19458  -0.527012  0  2.290225  0
O  O151  1  0.66939014  0.03552835  0.97215433  1  -1.253647  0  -0.239972  -0.600484  0  2.224266  0
O  O152  1  0.46787035  0.83244212  0.96986082  1  -1.246738  0  -0.223049  -0.58416  0  2.243622  0
O  O153  1  0.64701222  0.31924274  0.50588400  1  -1.34128  0  -0.574596  -0.987701  0  1.797981  0
O  O154  1  0.00521202  0.97749421  0.01163620  1  -1.376084  0  -0.575677  -0.994713  0  1.782833  0
