# generated using pymatgen
data_H36Pb2C35N4O9
_symmetry_space_group_name_H-M   'P 1'
_cell_length_a   10.51461937
_cell_length_b   13.34183234
_cell_length_c   13.28082918
_cell_angle_alpha   100.89817696
_cell_angle_beta   96.24869944
_cell_angle_gamma   94.62184359
_symmetry_Int_Tables_number   1
_chemical_formula_structural   H36Pb2C35N4O9
_chemical_formula_sum   'H72 Pb4 C70 N8 O18'
_cell_volume   1808.82914662
_cell_formula_units_Z   2
loop_
 _symmetry_equiv_pos_site_id
 _symmetry_equiv_pos_as_xyz
  1  'x, y, z'
loop_
 _atom_site_type_symbol
 _atom_site_label
 _atom_site_symmetry_multiplicity
 _atom_site_fract_x
 _atom_site_fract_y
 _atom_site_fract_z
 _atom_site_occupancy
 _atom_site_pbe_bader_charge
 _atom_site_pbe_bader_spin_density
 _atom_site_pbe_cm5_charge
 _atom_site_pbe_ddec_charge
 _atom_site_pbe_ddec_spin_density
 _atom_site_pbe_ddec_sum_bond_order
 _atom_site_pbe_magmom
H  H0  1  0.51874015  0.33642100  0.08349939  1  0.134295  0  0.109999  0.10999  0  1.031309  0
H  H1  1  0.48126352  0.66358004  0.91649963  1  0.134336  0  0.110006  0.110034  0  1.031191  0
H  H2  1  0.69943720  0.06664772  0.11820842  1  0.06887  0  0.104232  0.102439  0  1.044437  0
H  H3  1  0.30055927  0.93335018  0.88179606  1  0.068626  0  0.104213  0.102403  0  1.044455  0
H  H4  1  0.15653523  0.44786915  0.88182130  1  0.079287  0  0.109587  0.102768  0  1.039293  0
H  H5  1  0.84346477  0.55213338  0.11818069  1  0.079217  0  0.109578  0.102738  0  1.039309  0
H  H6  1  0.63443979  0.73044030  0.13236850  1  0.103156  0  0.118392  0.095586  0  0.997659  0
H  H7  1  0.36556264  0.26955914  0.86763536  1  0.103382  0  0.118379  0.09555  0  0.997718  0
H  H8  1  0.31880450  0.42879651  0.59824217  1  0.069648  0  0.103738  0.101063  0  1.047581  0
H  H9  1  0.68119365  0.57121370  0.40176118  1  0.06938  0  0.10371  0.101122  0  1.047584  0
H  H10  1  0.67640285  0.91329109  0.12263945  1  0.0527  0  0.106228  0.110745  0  1.0145  0
H  H11  1  0.32359748  0.08670682  0.87736315  1  0.052741  0  0.106251  0.110791  0  1.014491  0
H  H12  1  0.28864548  0.07021788  0.12045715  1  0.095584  0  0.10481  0.103233  0  1.039563  0
H  H13  1  0.71135126  0.92978161  0.87954316  1  0.095623  0  0.104804  0.103189  0  1.039627  0
H  H14  1  0.25949937  0.76477855  0.18936133  1  0.128191  0  0.1171  0.090225  0  1.028902  0
H  H15  1  0.74050294  0.23522010  0.81064386  1  0.128054  0  0.117086  0.090191  0  1.028904  0
H  H16  1  0.90557688  0.37624944  0.59663714  1  0.085521  0  0.102789  0.101152  0  1.04984  0
H  H17  1  0.09442288  0.62374390  0.40336222  1  0.085527  0  0.102769  0.101122  0  1.04986  0
H  H18  1  0.24462079  0.40901098  0.25752537  1  0.125571  0  0.119531  0.090988  0  1.011643  0
H  H19  1  0.75537899  0.59098237  0.74247250  1  0.125626  0  0.119524  0.090977  0  1.011678  0
H  H20  1  0.88708770  0.32759689  0.44510970  1  0.087674  0  0.104349  0.107357  0  1.054834  0
H  H21  1  0.11291399  0.67239645  0.55488909  1  0.087576  0  0.104372  0.107381  0  1.054877  0
H  H22  1  0.86065119  0.31139813  0.25694178  1  0.099304  0  0.11514  0.084173  0  1.01037  0
H  H23  1  0.13935092  0.68859135  0.74305779  1  0.099271  0  0.115139  0.084194  0  1.010401  0
H  H24  1  0.28605362  0.43859546  0.44676241  1  0.077669  0  0.112242  0.118992  0  1.004669  0
H  H25  1  0.71394890  0.56140404  0.55323619  1  0.077672  0  0.11225  0.118996  0  1.004718  0
H  H26  1  0.28124458  0.94593881  0.17526491  1  0.083437  0  0.10803  0.110509  0  1.028648  0
H  H27  1  0.71875690  0.05406063  0.82473885  1  0.083403  0  0.108022  0.110536  0  1.028655  0
H  H28  1  0.02998916  0.06961949  0.91505098  1  0.105018  0  0.125359  0.058758  0  0.98035  0
H  H29  1  0.96999362  0.93037544  0.08494483  1  0.104898  0  0.125457  0.058904  0  0.980329  0
H  H30  1  0.06661035  0.92142212  0.82586938  1  0.137807  0  0.111978  0.139385  0  1.014303  0
H  H31  1  0.93338698  0.07858125  0.17412724  1  0.137751  0  0.111961  0.139359  0  1.014386  0
H  H32  1  0.15775685  0.93392026  0.72212055  1  0.040298  0  0.099843  0.110642  0  1.008902  0
H  H33  1  0.84224545  0.06608533  0.27788377  1  0.040302  0  0.099834  0.110635  0  1.008948  0
H  H34  1  0.99042792  0.89129445  0.69594400  1  0.097515  0  0.101827  0.117911  0  1.011568  0
H  H35  1  0.00958057  0.10870660  0.30405322  1  0.09746  0  0.101818  0.117901  0  1.011567  0
H  H36  1  0.92801125  0.06822339  0.61941863  1  0.034059  0  0.103562  0.116957  0  0.994171  0
H  H37  1  0.07199082  0.93177926  0.38057379  1  0.034109  0  0.10358  0.117009  0  0.994085  0
H  H38  1  0.09662160  0.06145546  0.61572897  1  0.062631  0  0.106083  0.120269  0  1.009677  0
H  H39  1  0.90338043  0.93854785  0.38427261  1  0.062651  0  0.10608  0.120286  0  1.009572  0
H  H40  1  0.03942674  0.17492312  0.68417919  1  0.114857  0  0.110149  0.13381  0  1.005842  0
H  H41  1  0.96057425  0.82507944  0.31582064  1  0.114954  0  0.110142  0.133778  0  1.005874  0
H  H42  1  0.40878476  0.73074965  0.38363429  1  0.043382  0  0.101664  0.08255  0  0.987244  0
H  H43  1  0.59122038  0.26925522  0.61636563  1  0.043296  0  0.101655  0.082542  0  0.98721  0
H  H44  1  0.51301294  0.65571222  0.44293167  1  0.032636  0  0.082016  0.043745  0  1.005164  0
H  H45  1  0.48699348  0.34429496  0.55706734  1  0.032492  0  0.081989  0.043691  0  1.005162  0
H  H46  1  0.55679552  0.80280498  0.65312646  1  0.028556  0  0.095353  0.067792  0  0.995772  0
H  H47  1  0.44321075  0.19719378  0.34687009  1  0.028505  0  0.095389  0.06785  0  0.995621  0
H  H48  1  0.67208811  0.73910890  0.58459444  1  -0.007648  0  0.077472  0.029833  0  1.036794  0
H  H49  1  0.32792208  0.26089755  0.41540177  1  -0.007938  0  0.077508  0.029887  0  1.036751  0
H  H50  1  0.79754990  0.90672242  0.58889401  1  -0.001393  0  0.080939  0.099777  0  1.040307  0
H  H51  1  0.20244931  0.09328856  0.41110959  1  -0.001358  0  0.080948  0.09983  0  1.040273  0
H  H52  1  0.77058070  0.89007527  0.71428119  1  0.031948  0  0.087259  0.118987  0  1.022271  0
H  H53  1  0.22941965  0.10992960  0.28571903  1  0.031916  0  0.087264  0.119046  0  1.022202  0
H  H54  1  0.67958727  0.97356445  0.65221537  1  0.035545  0  0.085641  0.115255  0  1.026843  0
H  H55  1  0.32040826  0.02644040  0.34778665  1  0.035693  0  0.085711  0.115382  0  1.026811  0
H  H56  1  0.29145050  0.63731041  0.48792237  1  0.023027  0  0.085327  0.114075  0  1.03423  0
H  H57  1  0.70856003  0.36269143  0.51207369  1  0.02299  0  0.08534  0.114152  0  1.034131  0
H  H58  1  0.30371023  0.77062944  0.54640386  1  0.02268  0  0.084284  0.11427  0  1.004121  0
H  H59  1  0.69629482  0.22936772  0.45359678  1  0.022647  0  0.084285  0.114306  0  1.00406  0
H  H60  1  0.39923830  0.68559618  0.60205320  1  0.02328  0  0.084916  0.11532  0  1.013551  0
H  H61  1  0.60076787  0.31440181  0.39794318  1  0.023062  0  0.084892  0.115327  0  1.013591  0
H  H62  1  0.71938918  0.81267044  0.42872575  1  0.002401  0  0.08131  0.039709  0  1.004769  0
H  H63  1  0.28061456  0.18733828  0.57127407  1  0.002336  0  0.08129  0.039691  0  1.004687  0
H  H64  1  0.57597562  0.80065113  0.34465170  1  0.031818  0  0.096801  0.065017  0  1.029941  0
H  H65  1  0.42402889  0.19935606  0.65534712  1  0.03177  0  0.096788  0.065004  0  1.029867  0
H  H66  1  0.68751101  0.96903868  0.34980988  1  0.011642  0  0.073567  0.094097  0  1.057937  0
H  H67  1  0.31248645  0.03097381  0.65019612  1  0.011596  0  0.073556  0.094191  0  1.057859  0
H  H68  1  0.69545049  0.00392802  0.48667233  1  0.027311  0  0.079153  0.103919  0  1.04248  0
H  H69  1  0.30454715  0.99607836  0.51333020  1  0.02737  0  0.07919  0.104019  0  1.042455  0
H  H70  1  0.54550792  0.98670147  0.40923770  1  0.055387  0  0.08662  0.124183  0  1.029758  0
H  H71  1  0.45449140  0.01330334  0.59076694  1  0.055516  0  0.086579  0.124172  0  1.029788  0
Pb  Pb72  1  0.00896696  0.33309679  0.04016662  1  1.434294  0  0.629267  1.089813  0  1.841832  0
Pb  Pb73  1  0.99103112  0.66689185  0.95983918  1  1.434414  0  0.629279  1.089838  0  1.841717  0
Pb  Pb74  1  0.64860079  0.45233439  0.90441570  1  1.458018  0  0.659926  1.138764  0  1.828108  0
Pb  Pb75  1  0.35140173  0.54765749  0.09557761  1  1.457925  0  0.659926  1.138762  0  1.828125  0
C  C76  1  0.74608506  0.25194966  0.07592336  1  1.560125  0  0.199749  0.553075  0  4.251112  0
C  C77  1  0.25391076  0.74804291  0.92407622  1  1.559405  0  0.199848  0.553163  0  4.25101  0
C  C78  1  0.51143995  0.25813904  0.09652112  1  -0.039116  0  -0.06666  -0.086137  0  3.908516  0
C  C79  1  0.48856300  0.74186355  0.90347663  1  -0.039391  0  -0.06669  -0.086275  0  3.908669  0
C  C80  1  0.26919019  0.25527239  0.08662874  1  1.579487  0  0.20741  0.573427  0  4.220204  0
C  C81  1  0.73080821  0.74472482  0.91336826  1  1.579437  0  0.207336  0.573328  0  4.220311  0
C  C82  1  0.90279558  0.41567262  0.80022897  1  1.569057  0  0.204602  0.560183  0  4.247232  0
C  C83  1  0.09720027  0.58431996  0.19976912  1  1.568676  0  0.204574  0.560183  0  4.247237  0
C  C84  1  0.25046195  0.43809419  0.74452142  1  -0.084099  0  -0.015552  -0.022342  0  3.956559  0
C  C85  1  0.74953669  0.56191221  0.25547895  1  -0.084147  0  -0.015538  -0.02217  0  3.956495  0
C  C86  1  0.62072173  0.20496306  0.09922372  1  -0.007416  0  -0.019468  -0.035718  0  3.982141  0
C  C87  1  0.37927751  0.79503406  0.90078087  1  -0.007406  0  -0.019541  -0.03584  0  3.982293  0
C  C88  1  0.38417457  0.45997390  0.80224089  1  1.548917  0  0.207386  0.571589  0  4.207631  0
C  C89  1  0.61582278  0.54003018  0.19776039  1  1.548634  0  0.207354  0.571532  0  4.207711  0
C  C90  1  0.39224000  0.20785903  0.10450283  1  -0.020996  0  -0.018279  -0.037212  0  3.988439  0
C  C91  1  0.60776420  0.79213892  0.89549713  1  -0.020447  0  -0.018246  -0.036986  0  3.988284  0
C  C92  1  0.61186916  0.10483763  0.11732763  1  0.006151  0  -0.073879  -0.123165  0  3.918545  0
C  C93  1  0.38812931  0.89516102  0.88267795  1  0.005991  0  -0.073822  -0.123042  0  3.918367  0
C  C94  1  0.01931412  0.41101972  0.74340452  1  0.042572  0  -0.017701  -0.032804  0  3.984152  0
C  C95  1  0.98068547  0.58897905  0.25659065  1  0.042514  0  -0.017751  -0.032968  0  3.984355  0
C  C96  1  0.14325131  0.43281197  0.79772537  1  0.035498  0  -0.068475  -0.094978  0  3.918973  0
C  C97  1  0.85674798  0.56719214  0.20227460  1  0.035764  0  -0.068428  -0.0949  0  3.919059  0
C  C98  1  0.55981581  0.78222452  0.14411553  1  0.437536  0  0.050186  0.09778  0  3.965216  0
C  C99  1  0.44018488  0.21777643  0.85589072  1  0.437504  0  0.050254  0.097844  0  3.965137  0
C  C100  1  0.23293072  0.42245101  0.63652842  1  0.038339  0  -0.07383  -0.125069  0  3.914208  0
C  C101  1  0.76706811  0.57755693  0.36347227  1  0.038611  0  -0.07381  -0.125268  0  3.914227  0
C  C102  1  0.58207745  0.88505794  0.13841102  1  0.015641  0  -0.081965  -0.170337  0  3.936123  0
C  C103  1  0.41792325  0.11494302  0.86159448  1  0.015565  0  -0.082002  -0.170393  0  3.936023  0
C  C104  1  0.49394564  0.05465083  0.12978377  1  -0.090632  0  -0.008984  0.050856  0  4.001802  0
C  C105  1  0.50605389  0.94534858  0.87022206  1  -0.090167  0  -0.008968  0.050876  0  4.001665  0
C  C106  1  0.38445742  0.10714940  0.11986435  1  -0.030991  0  -0.072222  -0.119891  0  3.929401  0
C  C107  1  0.61554186  0.89284775  0.88013724  1  -0.031283  0  -0.072203  -0.119903  0  3.929323  0
C  C108  1  0.10954444  0.39901855  0.58015091  1  -0.031185  0  -0.012994  0.043379  0  4.007019  0
C  C109  1  0.89045667  0.60098479  0.41984833  1  -0.031115  0  -0.013019  0.043235  0  4.006927  0
C  C110  1  0.35029439  0.80057963  0.17383905  1  0.478003  0  0.046743  0.088132  0  3.981201  0
C  C111  1  0.64970686  0.19941825  0.82616589  1  0.478045  0  0.046779  0.088189  0  3.981161  0
C  C112  1  0.00367147  0.39232070  0.63554541  1  -0.129552  0  -0.076004  -0.125028  0  3.917965  0
C  C113  1  0.99633089  0.60767730  0.36444987  1  -0.129473  0  -0.075934  -0.124803  0  3.917838  0
C  C114  1  0.48133343  0.94795403  0.14593685  1  -0.041112  0  0.017194  0.117627  0  3.962295  0
C  C115  1  0.51866716  0.05204616  0.85406923  1  -0.040801  0  0.017227  0.11766  0  3.962409  0
C  C116  1  0.16704536  0.39271372  0.30195693  1  0.446403  0  0.050385  0.104275  0  3.958452  0
C  C117  1  0.83295748  0.60728116  0.69804228  1  0.446217  0  0.050413  0.104247  0  3.958588  0
C  C118  1  0.97010302  0.34785803  0.40823233  1  -0.023215  0  -0.089143  -0.184493  0  3.950167  0
C  C119  1  0.02989808  0.65213836  0.59176927  1  -0.022931  0  -0.089169  -0.184554  0  3.950318  0
C  C120  1  0.95439497  0.33769774  0.30162782  1  0.449633  0  0.04639  0.10196  0  3.979004  0
C  C121  1  0.04560950  0.66229484  0.69837034  1  0.449584  0  0.046367  0.101922  0  3.979186  0
C  C122  1  0.09040524  0.38464517  0.46612759  1  -0.008703  0  0.010516  0.110642  0  3.978173  0
C  C123  1  0.90959341  0.61535431  0.53387290  1  -0.008902  0  0.010541  0.110728  0  3.978163  0
C  C124  1  0.19004197  0.40777586  0.40912537  1  -0.005638  0  -0.081448  -0.176468  0  3.946911  0
C  C125  1  0.80995767  0.59222365  0.59087296  1  -0.005513  0  -0.081471  -0.176474  0  3.947041  0
C  C126  1  0.36399167  0.90285207  0.16657911  1  0.012705  0  -0.080477  -0.164718  0  3.935686  0
C  C127  1  0.63600663  0.09714506  0.83342464  1  0.012557  0  -0.080478  -0.164723  0  3.935889  0
C  C128  1  0.01632460  0.10794440  0.84833534  1  1.361588  0  0.173646  0.29493  0  4.112543  0
C  C129  1  0.98365142  0.89204980  0.15165743  1  1.361505  0  0.173524  0.294736  0  4.112586  0
C  C130  1  0.06397722  0.94359085  0.75029678  1  0.191923  0  -0.134308  -0.29349  0  3.924003  0
C  C131  1  0.93602349  0.05640942  0.24970181  1  0.192014  0  -0.134261  -0.293486  0  3.92401  0
C  C132  1  0.02404952  0.09098645  0.66373963  1  0.250252  0  -0.132101  -0.269804  0  3.879468  0
C  C133  1  0.97595249  0.90901615  0.33625728  1  0.250239  0  -0.132083  -0.269847  0  3.879324  0
C  C134  1  0.45865029  0.72406459  0.45876935  1  0.28305  0  -0.073018  -0.005546  0  3.958299  0
C  C135  1  0.54135286  0.27593953  0.54122873  1  0.283295  0  -0.072907  -0.005283  0  3.958104  0
C  C136  1  0.62251976  0.81033769  0.59543445  1  0.324853  0  -0.07479  0.005324  0  3.958324  0
C  C137  1  0.37748519  0.18966566  0.40456440  1  0.325439  0  -0.074833  0.005296  0  3.958278  0
C  C138  1  0.72293006  0.90078033  0.63985089  1  -0.070089  0  -0.247649  -0.38373  0  3.965625  0
C  C139  1  0.27706855  0.09922605  0.36015098  1  -0.070352  0  -0.247722  -0.384001  0  3.965635  0
C  C140  1  0.35814281  0.70375196  0.52878314  1  -0.077476  0  -0.245597  -0.37756  0  3.963887  0
C  C141  1  0.64186185  0.29624909  0.47121447  1  -0.077314  0  -0.245638  -0.377797  0  3.963863  0
C  C142  1  0.62413046  0.84268782  0.41991906  1  0.289163  0  -0.076799  -0.002909  0  3.940578  0
C  C143  1  0.37587541  0.15732244  0.58008051  1  0.289254  0  -0.076707  -0.002721  0  3.940409  0
C  C144  1  0.63953644  0.95684977  0.41671829  1  -0.088855  0  -0.254751  -0.394345  0  3.984271  0
C  C145  1  0.36046264  0.04316043  0.58328665  1  -0.088882  0  -0.254824  -0.394661  0  3.984469  0
N  N146  1  0.05099071  0.35883608  0.24795255  1  -1.221296  0  -0.300399  -0.263753  0  3.436081  0
N  N147  1  0.94901251  0.64115421  0.75204427  1  -1.221193  0  -0.3004  -0.263688  0  3.436111  0
N  N148  1  0.44548478  0.73966810  0.16031906  1  -1.245372  0  -0.306819  -0.2739  0  3.468489  0
N  N149  1  0.55451655  0.26033054  0.83968754  1  -1.245491  0  -0.30688  -0.273967  0  3.468411  0
N  N150  1  0.03523718  0.04953791  0.75793357  1  -1.204162  0  -0.284182  0.02211  0  3.713575  0
N  N151  1  0.96476239  0.95046085  0.24206310  1  -1.204074  0  -0.284231  0.022239  0  3.713419  0
N  N152  1  0.54586631  0.81806344  0.49899028  1  -1.003494  0  -0.34452  -0.160313  0  3.408413  0
N  N153  1  0.45413797  0.18194219  0.50101047  1  -1.003561  0  -0.344549  -0.160455  0  3.4084  0
O  O154  1  0.39831185  0.45678351  0.89900539  1  -1.184743  0  -0.306933  -0.614025  0  2.261572  0
O  O155  1  0.60168504  0.54320984  0.10099370  1  -1.184366  0  -0.306942  -0.614017  0  2.261618  0
O  O156  1  0.92199287  0.45403961  0.89771516  1  -1.214906  0  -0.306167  -0.64498  0  2.315911  0
O  O157  1  0.07800233  0.54594834  0.10228420  1  -1.215028  0  -0.306144  -0.644941  0  2.315814  0
O  O158  1  0.75114632  0.34134961  0.05457837  1  -1.186688  0  -0.305222  -0.598329  0  2.237804  0
O  O159  1  0.24885247  0.65864372  0.94542165  1  -1.186193  0  -0.305239  -0.598367  0  2.237795  0
O  O160  1  0.27467532  0.34988957  0.07976799  1  -1.212128  0  -0.309063  -0.617896  0  2.273428  0
O  O161  1  0.72532610  0.65010913  0.92023336  1  -1.212218  0  -0.309063  -0.617909  0  2.273492  0
O  O162  1  0.79210422  0.38596533  0.75051296  1  -1.168034  0  -0.301586  -0.546712  0  2.145851  0
O  O163  1  0.20789233  0.61403193  0.24948011  1  -1.167761  0  -0.3016  -0.546693  0  2.145766  0
O  O164  1  0.16405571  0.19781857  0.07645660  1  -1.168546  0  -0.310418  -0.558966  0  2.146646  0
O  O165  1  0.83594330  0.80217562  0.92353609  1  -1.168422  0  -0.310402  -0.558972  0  2.146626  0
O  O166  1  0.84262906  0.19958535  0.07856793  1  -1.174856  0  -0.308642  -0.556508  0  2.168169  0
O  O167  1  0.15736680  0.80040724  0.92142941  1  -1.174845  0  -0.308709  -0.55654  0  2.168048  0
O  O168  1  0.47829464  0.47689087  0.75328918  1  -1.161096  0  -0.309216  -0.550793  0  2.108821  0
O  O169  1  0.52170279  0.52312091  0.24671215  1  -1.161122  0  -0.309205  -0.550797  0  2.108884  0
O  O170  1  0.98703101  0.19792877  0.85775322  1  -1.162531  0  -0.291413  -0.467445  0  2.265106  0
O  O171  1  0.01294704  0.80206689  0.14224531  1  -1.162588  0  -0.291385  -0.467502  0  2.265191  0
