# generated using pymatgen
data_CaH12C8(NO4)2
_symmetry_space_group_name_H-M   'P 1'
_cell_length_a   5.22724603
_cell_length_b   5.87516956
_cell_length_c   19.34276850
_cell_angle_alpha   90.00070299
_cell_angle_beta   89.99960203
_cell_angle_gamma   98.12568704
_symmetry_Int_Tables_number   1
_chemical_formula_structural   CaH12C8(NO4)2
_chemical_formula_sum   'Ca2 H24 C16 N4 O16'
_cell_volume   588.07104680
_cell_formula_units_Z   2
loop_
 _symmetry_equiv_pos_site_id
 _symmetry_equiv_pos_as_xyz
  1  'x, y, z'
loop_
 _atom_site_type_symbol
 _atom_site_label
 _atom_site_symmetry_multiplicity
 _atom_site_fract_x
 _atom_site_fract_y
 _atom_site_fract_z
 _atom_site_occupancy
 _atom_site_hle17_bader_spin_density
 _atom_site_hle17_ddec_charge
 _atom_site_hle17_ddec_spin_density
 _atom_site_hle17_ddec_sum_bond_order
 _atom_site_hle17_magmom
 _atom_site_hse06_10hf_bader_spin_density
 _atom_site_hse06_10hf_ddec_charge
 _atom_site_hse06_10hf_ddec_spin_density
 _atom_site_hse06_10hf_ddec_sum_bond_order
 _atom_site_hse06_10hf_magmom
 _atom_site_hse06_bader_spin_density
 _atom_site_hse06_ddec_charge
 _atom_site_hse06_ddec_spin_density
 _atom_site_hse06_ddec_sum_bond_order
 _atom_site_hse06_magmom
 _atom_site_pbe_bader_spin_density
 _atom_site_pbe_cm5_charge
 _atom_site_pbe_ddec_charge
 _atom_site_pbe_ddec_spin_density
 _atom_site_pbe_ddec_sum_bond_order
 _atom_site_pbe_magmom
Ca  Ca0  1  0.99998980  0.99999635  0.99999954  1  0  1.569319  0  1.145082  0  0  1.433561  0  1.52003  0  0  1.477963  0  1.470407  0  0  0.904938  1.400335  0  1.555071  0
Ca  Ca1  1  0.50000124  0.49999568  0.49999977  1  0  1.569307  0  1.145003  0  0  1.433623  0  1.519854  0  0  1.478013  0  1.470246  0  0  0.904933  1.400438  0  1.55482  0
H  H2  1  0.89387492  0.56308878  0.89373015  1  0  0.305512  0  0.868922  0  0  0.283105  0  0.936726  0  0  0.292572  0  0.928543  0  0  0.321839  0.27635  0  0.942652  0
H  H3  1  0.39389345  0.06309044  0.60626821  1  0  0.305426  0  0.868946  0  0  0.283011  0  0.936768  0  0  0.292472  0  0.928587  0  0  0.321781  0.276255  0  0.942695  0
H  H4  1  0.10611252  0.43691783  0.10626836  1  0  0.305415  0  0.868946  0  0  0.282992  0  0.936769  0  0  0.292453  0  0.928587  0  0  0.321782  0.276238  0  0.942696  0
H  H5  1  0.60611503  0.93690272  0.39373340  1  0  0.305436  0  0.868884  0  0  0.283019  0  0.936721  0  0  0.292489  0  0.928531  0  0  0.321781  0.276263  0  0.942645  0
H  H6  1  0.79494807  0.73187425  0.83177975  1  0  0.293973  0  0.911606  0  0  0.273575  0  0.974465  0  0  0.282808  0  0.967986  0  0  0.30529  0.266697  0  0.979365  0
H  H7  1  0.29494248  0.23186590  0.66821993  1  0  0.294004  0  0.911548  0  0  0.273612  0  0.974409  0  0  0.28284  0  0.967933  0  0  0.305298  0.266732  0  0.979312  0
H  H8  1  0.20504537  0.26813415  0.16821875  1  0  0.294053  0  0.911517  0  0  0.273677  0  0.974332  0  0  0.282892  0  0.96788  0  0  0.30532  0.266827  0  0.979181  0
H  H9  1  0.70506482  0.76813239  0.33178219  1  0  0.293982  0  0.911643  0  0  0.273622  0  0.974452  0  0  0.28285  0  0.967995  0  0  0.305316  0.266744  0  0.979347  0
H  H10  1  0.36470513  0.52766608  0.83352200  1  0  0.103973  0  0.940451  0  0  0.113982  0  1.005403  0  0  0.116213  0  1.004256  0  0  0.115491  0.112264  0  1.006433  0
H  H11  1  0.86471376  0.02764289  0.66647420  1  0  0.103888  0  0.940386  0  0  0.113935  0  1.005264  0  0  0.116183  0  1.004129  0  0  0.115463  0.112218  0  1.006296  0
H  H12  1  0.63528610  0.47232685  0.16646978  1  0  0.103865  0  0.940396  0  0  0.113898  0  1.005327  0  0  0.11615  0  1.004187  0  0  0.115468  0.112177  0  1.006361  0
H  H13  1  0.13529399  0.97234511  0.33352792  1  0  0.103911  0  0.940431  0  0  0.113996  0  1.005265  0  0  0.116245  0  1.004126  0  0  0.115511  0.11228  0  1.006292  0
H  H14  1  0.45383821  0.34264970  0.89989987  1  0  0.122431  0  0.917669  0  0  0.134507  0  0.977339  0  0  0.13753  0  0.975496  0  0  0.132715  0.132345  0  0.978749  0
H  H15  1  0.95385799  0.84263418  0.60009634  1  0  0.122401  0  0.917618  0  0  0.134463  0  0.977289  0  0  0.137509  0  0.975445  0  0  0.132677  0.1323  0  0.978704  0
H  H16  1  0.54614992  0.65734835  0.10009554  1  0  0.122387  0  0.917756  0  0  0.13447  0  0.97738  0  0  0.137516  0  0.975539  0  0  0.132709  0.132307  0  0.978795  0
H  H17  1  0.04615074  0.15736070  0.39990423  1  0  0.122393  0  0.917722  0  0  0.134473  0  0.97737  0  0  0.137517  0  0.975525  0  0  0.132681  0.132311  0  0.978781  0
H  H18  1  0.98972998  0.45927575  0.77120759  1  0  0.117368  0  0.960226  0  0  0.126723  0  1.024737  0  0  0.130441  0  1.022102  0  0  0.116087  0.124027  0  1.026708  0
H  H19  1  0.48973812  0.95927638  0.72878848  1  0  0.117349  0  0.960164  0  0  0.126673  0  1.0247  0  0  0.130395  0  1.022058  0  0  0.116067  0.123978  0  1.02667  0
H  H20  1  0.01027830  0.54072942  0.22879350  1  0  0.117293  0  0.960286  0  0  0.126749  0  1.024695  0  0  0.130472  0  1.022052  0  0  0.116084  0.124052  0  1.026669  0
H  H21  1  0.51025861  0.04071490  0.27121313  1  0  0.117357  0  0.960263  0  0  0.126741  0  1.024718  0  0  0.130462  0  1.022078  0  0  0.11609  0.124047  0  1.026687  0
H  H22  1  0.65192687  0.36906294  0.76355990  1  0  0.11431  0  0.944917  0  0  0.124069  0  1.007939  0  0  0.127083  0  1.006092  0  0  0.115387  0.121921  0  1.009284  0
H  H23  1  0.15194065  0.86907767  0.73643953  1  0  0.114395  0  0.944836  0  0  0.124083  0  1.007897  0  0  0.127097  0  1.006049  0  0  0.115429  0.121939  0  1.009237  0
H  H24  1  0.34808328  0.63092852  0.23643705  1  0  0.114276  0  0.944926  0  0  0.124027  0  1.007963  0  0  0.127041  0  1.006114  0  0  0.115393  0.121882  0  1.009306  0
H  H25  1  0.84806641  0.13091890  0.26356001  1  0  0.114397  0  0.944837  0  0  0.124102  0  1.007904  0  0  0.127118  0  1.006053  0  0  0.115406  0.121956  0  1.009247  0
C  C26  1  0.49012266  0.51730455  0.87842082  1  0  -0.136014  0  3.530367  0  0  -0.196911  0  3.785891  0  0  -0.197756  0  3.790177  0  0  -0.058859  -0.196318  0  3.783147  0
C  C27  1  0.99012413  0.01728990  0.62157460  1  0  -0.135981  0  3.530234  0  0  -0.196823  0  3.785573  0  0  -0.197761  0  3.789975  0  0  -0.058799  -0.196237  0  3.78283  0
C  C28  1  0.50987313  0.48269359  0.12157355  1  0  -0.135878  0  3.530489  0  0  -0.19674  0  3.785797  0  0  -0.197684  0  3.79021  0  0  -0.058874  -0.196156  0  3.783064  0
C  C29  1  0.00988076  0.98270493  0.37842649  1  0  -0.136059  0  3.530265  0  0  -0.19695  0  3.785638  0  0  -0.197878  0  3.790041  0  0  -0.058869  -0.196362  0  3.782887  0
C  C30  1  0.43409876  0.68371848  0.93522640  1  0  0.730667  0  3.863186  0  0  0.681154  0  4.16974  0  0  0.71567  0  4.159822  0  0  0.236523  0.657516  0  4.17595  0
C  C31  1  0.93409307  0.18371020  0.56477234  1  0  0.730685  0  3.863406  0  0  0.681184  0  4.169874  0  0  0.715705  0  4.159988  0  0  0.236552  0.657564  0  4.17606  0
C  C32  1  0.56589561  0.31628307  0.06476694  1  0  0.730516  0  3.863856  0  0  0.681033  0  4.17029  0  0  0.71556  0  4.160408  0  0  0.236537  0.657411  0  4.176472  0
C  C33  1  0.06590607  0.81628455  0.43523237  1  0  0.73079  0  3.863367  0  0  0.681299  0  4.169833  0  0  0.715817  0  4.159948  0  0  0.236616  0.657679  0  4.176015  0
C  C34  1  0.81354473  0.39185985  0.80017038  1  0  -0.150509  0  3.544777  0  0  -0.209001  0  3.800341  0  0  -0.210616  0  3.804623  0  0  -0.070048  -0.207943  0  3.79767  0
C  C35  1  0.31354940  0.89185765  0.69982833  1  0  -0.150435  0  3.544775  0  0  -0.208787  0  3.800211  0  0  -0.210407  0  3.804492  0  0  -0.069983  -0.207732  0  3.797533  0
C  C36  1  0.18646473  0.60814018  0.19982864  1  0  -0.150309  0  3.544581  0  0  -0.208857  0  3.800127  0  0  -0.210471  0  3.804402  0  0  -0.070036  -0.207803  0  3.797462  0
C  C37  1  0.68645357  0.10813715  0.30017276  1  0  -0.15067  0  3.544924  0  0  -0.209106  0  3.800377  0  0  -0.210714  0  3.80465  0  0  -0.070075  -0.208053  0  3.797705  0
C  C38  1  0.85788711  0.16450780  0.83312227  1  0  0.698925  0  3.880543  0  0  0.648808  0  4.191  0  0  0.682108  0  4.183084  0  0  0.22229  0.62601  0  4.195924  0
C  C39  1  0.35788413  0.66451285  0.66687963  1  0  0.698943  0  3.880256  0  0  0.64881  0  4.190716  0  0  0.682111  0  4.182798  0  0  0.222189  0.626013  0  4.195648  0
C  C40  1  0.14211517  0.83549557  0.16687985  1  0  0.698818  0  3.880491  0  0  0.648705  0  4.190945  0  0  0.682012  0  4.18302  0  0  0.222234  0.625911  0  4.195874  0
C  C41  1  0.64211669  0.33548020  0.33312611  1  0  0.698929  0  3.880134  0  0  0.64891  0  4.190463  0  0  0.68221  0  4.182547  0  0  0.22235  0.626112  0  4.19539  0
N  N42  1  0.76150317  0.56263225  0.85320866  1  0  -0.247995  0  3.361835  0  0  -0.184509  0  3.578299  0  0  -0.197818  0  3.586024  0  0  -0.473481  -0.175206  0  3.573381  0
N  N43  1  0.26150595  0.06262492  0.64678889  1  0  -0.247962  0  3.361735  0  0  -0.184543  0  3.578169  0  0  -0.197813  0  3.585913  0  0  -0.473409  -0.175239  0  3.573254  0
N  N44  1  0.23848953  0.43737100  0.14678674  1  0  -0.248017  0  3.361762  0  0  -0.184556  0  3.578201  0  0  -0.197826  0  3.585951  0  0  -0.473411  -0.175268  0  3.573276  0
N  N45  1  0.73849869  0.93736819  0.35321220  1  0  -0.247827  0  3.361706  0  0  -0.184373  0  3.578104  0  0  -0.19767  0  3.585856  0  0  -0.473386  -0.175064  0  3.573184  0
O  O46  1  0.61971066  0.76701181  0.97339207  1  0  -0.706206  0  1.965907  0  0  -0.649328  0  2.218539  0  0  -0.676036  0  2.20608  0  0  -0.369664  -0.630388  0  2.226622  0
O  O47  1  0.11971672  0.26700520  0.52660702  1  0  -0.706247  0  1.965755  0  0  -0.649382  0  2.218332  0  0  -0.676082  0  2.205877  0  0  -0.369669  -0.630453  0  2.226401  0
O  O48  1  0.38025693  0.23300312  0.02660023  1  0  -0.706346  0  1.966099  0  0  -0.649352  0  2.218534  0  0  -0.676056  0  2.206079  0  0  -0.369634  -0.630414  0  2.226605  0
O  O49  1  0.88028606  0.73300161  0.47339406  1  0  -0.706332  0  1.965968  0  0  -0.649442  0  2.218527  0  0  -0.676139  0  2.206069  0  0  -0.36968  -0.630516  0  2.226599  0
O  O50  1  0.20107428  0.71979964  0.94017219  1  0  -0.702229  0  1.959259  0  0  -0.647892  0  2.207566  0  0  -0.674201  0  2.194083  0  0  -0.356607  -0.629247  0  2.216359  0
O  O51  1  0.70108663  0.21978283  0.55982917  1  0  -0.702183  0  1.959747  0  0  -0.647842  0  2.207987  0  0  -0.674137  0  2.194503  0  0  -0.356611  -0.62921  0  2.216768  0
O  O52  1  0.79889302  0.28019985  0.05981959  1  0  -0.702028  0  1.959774  0  0  -0.647772  0  2.208123  0  0  -0.674068  0  2.194636  0  0  -0.35662  -0.629136  0  2.216911  0
O  O53  1  0.29891492  0.78021539  0.44017916  1  0  -0.702197  0  1.959611  0  0  -0.647917  0  2.207953  0  0  -0.674213  0  2.194469  0  0  -0.35664  -0.629284  0  2.216733  0
O  O54  1  0.81694790  0.98735303  0.79458544  1  0  -0.63529  0  1.962088  0  0  -0.577514  0  2.177202  0  0  -0.602972  0  2.168244  0  0  -0.319202  -0.559361  0  2.182974  0
O  O55  1  0.31692448  0.48733381  0.70541621  1  0  -0.635313  0  1.961567  0  0  -0.577628  0  2.176763  0  0  -0.603083  0  2.167799  0  0  -0.319278  -0.559465  0  2.182525  0
O  O56  1  0.18306328  0.01265904  0.20541875  1  0  -0.635307  0  1.961749  0  0  -0.577611  0  2.176918  0  0  -0.603081  0  2.167966  0  0  -0.319288  -0.559468  0  2.182682  0
O  O57  1  0.68307324  0.51266436  0.29458229  1  0  -0.635285  0  1.961138  0  0  -0.57772  0  2.17635  0  0  -0.603178  0  2.167384  0  0  -0.31936  -0.559554  0  2.182112  0
O  O58  1  0.93910227  0.17281407  0.89455965  1  0  -0.693573  0  1.97393  0  0  -0.63755  0  2.226279  0  0  -0.664009  0  2.21545  0  0  -0.370257  -0.618852  0  2.233252  0
O  O59  1  0.43910457  0.67279117  0.60544679  1  0  -0.693586  0  1.974053  0  0  -0.637558  0  2.226404  0  0  -0.664014  0  2.215578  0  0  -0.370144  -0.61885  0  2.23333  0
O  O60  1  0.06091230  0.82720833  0.10544816  1  0  -0.693486  0  1.974243  0  0  -0.637459  0  2.226592  0  0  -0.663914  0  2.215758  0  0  -0.370146  -0.61874  0  2.233517  0
O  O61  1  0.56090057  0.32720537  0.39455533  1  0  -0.693427  0  1.97419  0  0  -0.637468  0  2.226526  0  0  -0.663919  0  2.215697  0  0  -0.370198  -0.618781  0  2.233497  0
