# generated using pymatgen
data_Al2H9C12N2O10F
_symmetry_space_group_name_H-M   'P 1'
_cell_length_a   6.71058059
_cell_length_b   8.81027419
_cell_length_c   11.15444046
_cell_angle_alpha   105.84038065
_cell_angle_beta   72.06887675
_cell_angle_gamma   75.15004277
_symmetry_Int_Tables_number   1
_chemical_formula_structural   Al2H9C12N2O10F
_chemical_formula_sum   'Al2 H9 C12 N2 O10 F1'
_cell_volume   560.33845477
_cell_formula_units_Z   1
loop_
 _symmetry_equiv_pos_site_id
 _symmetry_equiv_pos_as_xyz
  1  'x, y, z'
loop_
 _atom_site_type_symbol
 _atom_site_label
 _atom_site_symmetry_multiplicity
 _atom_site_fract_x
 _atom_site_fract_y
 _atom_site_fract_z
 _atom_site_occupancy
 _atom_site_pbe_bader_charge
 _atom_site_pbe_bader_spin_density
 _atom_site_pbe_cm5_charge
 _atom_site_pbe_ddec_charge
 _atom_site_pbe_ddec_spin_density
 _atom_site_pbe_ddec_sum_bond_order
 _atom_site_pbe_magmom
Al  Al0  1  0.99947733  0.49979167  0.50054503  1  2.504312  0  0.399973  1.644474  0  2.577385  0
Al  Al1  1  0.49740464  0.50154675  0.50373068  1  2.499492  0  0.397  1.642308  0  2.591485  0
H  H2  1  0.87801045  0.36259689  0.33175905  1  0.61134  0  0.354146  0.434727  0  0.848747  0
H  H3  1  0.10456030  0.68252822  0.65827414  1  0.610942  0  0.357246  0.436085  0  0.842215  0
H  H4  1  0.21456481  0.55227966  0.90573473  1  0.092915  0  0.109449  0.116212  0  1.001211  0
H  H5  1  0.89872899  0.45934773  0.86431213  1  0.142535  0  0.118777  0.146165  0  0.989188  0
H  H6  1  0.11541319  0.53043976  0.13462132  1  0.146013  0  0.108333  0.116687  0  1.018432  0
H  H7  1  0.27847553  0.85176745  0.47342367  1  0.485464  0  0.301415  0.302649  0  0.992393  0
H  H8  1  0.14785203  0.02103534  0.43670305  1  0.453772  0  0.299715  0.293911  0  0.979318  0
H  H9  1  0.72334985  0.14814993  0.52484931  1  0.491705  0  0.303835  0.307411  0  0.989284  0
H  H10  1  0.85460725  0.98034775  0.56380408  1  0.470563  0  0.297947  0.291026  0  0.989191  0
C  C11  1  0.36061813  0.20753137  0.48022591  1  1.522043  0  0.255327  0.601788  0  4.088627  0
C  C12  1  0.37697512  0.47432408  0.26682052  1  1.575917  0  0.270766  0.6648  0  4.085144  0
C  C13  1  0.63525486  0.79569539  0.52633973  1  1.520008  0  0.254505  0.602908  0  4.086698  0
C  C14  1  0.62551509  0.52217567  0.73541190  1  1.58866  0  0.271353  0.64211  0  4.090149  0
C  C15  1  0.44818452  0.48190496  0.12854096  1  0.024866  0  -0.017936  -0.156287  0  3.951566  0
C  C16  1  0.56121673  0.51019387  0.87218448  1  0.010397  0  -0.005102  -0.004682  0  3.976533  0
C  C17  1  0.66857732  0.46164892  0.04916266  1  0.408035  0  0.112056  0.286  0  4.029008  0
C  C18  1  0.34067681  0.52817652  0.94762427  1  0.008074  0  -0.084217  -0.109508  0  3.974416  0
C  C19  1  0.72622825  0.47625574  0.92350088  1  0.012578  0  -0.089081  -0.224184  0  3.96497  0
C  C20  1  0.28616621  0.51517665  0.07403575  1  -0.050354  0  -0.073603  -0.061452  0  3.967328  0
C  C21  1  0.40405992  0.04064534  0.49201733  1  0.456403  0  0.07466  0.0424  0  4.01925  0
C  C22  1  0.59208354  0.96225287  0.51361540  1  0.450027  0  0.078623  0.050485  0  4.0238  0
N  N23  1  0.23912533  0.97581330  0.48556255  1  -1.230775  0  -0.60175  -0.592711  0  3.407311  0
N  N24  1  0.75752317  0.02627671  0.51826390  1  -1.249431  0  -0.599847  -0.5897  0  3.415772  0
O  O25  1  0.18000675  0.27158626  0.46514636  1  -1.2621  0  -0.245132  -0.593033  0  2.342421  0
O  O26  1  0.51784652  0.46531876  0.32159760  1  -1.25117  0  -0.236718  -0.601766  0  2.373362  0
O  O27  1  0.48882513  0.72620237  0.52547772  1  -1.267497  0  -0.239889  -0.602728  0  2.404448  0
O  O28  1  0.82491669  0.51615920  0.67853395  1  -1.25991  0  -0.231846  -0.587237  0  2.356483  0
O  O29  1  0.81839959  0.73064546  0.53869305  1  -1.266165  0  -0.248736  -0.603702  0  2.345006  0
O  O30  1  0.47790274  0.53575508  0.68547093  1  -1.266276  0  -0.234028  -0.591407  0  2.342814  0
O  O31  1  0.50438284  0.27886575  0.48435295  1  -1.269707  0  -0.237063  -0.594389  0  2.405706  0
O  O32  1  0.17625624  0.48036652  0.32095728  1  -1.263301  0  -0.234409  -0.592876  0  2.336518  0
O  O33  1  0.81308950  0.41526365  0.43060183  1  -1.408521  0  -0.448036  -0.988149  0  2.168915  0
O  O34  1  0.18323030  0.58731014  0.57137200  1  -1.407191  0  -0.448265  -0.992328  0  2.196506  0
F  F35  1  0.83729257  0.42434464  0.09228695  1  -0.633665  0  -0.08947  -0.136006  0  1.374411  0
