# generated using pymatgen
data_KSmH9C9NO12
_symmetry_space_group_name_H-M   'P 1'
_cell_length_a   6.76260348
_cell_length_b   13.98954931
_cell_length_c   14.26510000
_cell_angle_alpha   90.00000000
_cell_angle_beta   92.49496580
_cell_angle_gamma   90.00000000
_symmetry_Int_Tables_number   1
_chemical_formula_structural   KSmH9C9NO12
_chemical_formula_sum   'K4 Sm4 H36 C36 N4 O48'
_cell_volume   1348.28152367
_cell_formula_units_Z   4
loop_
 _symmetry_equiv_pos_site_id
 _symmetry_equiv_pos_as_xyz
  1  'x, y, z'
loop_
 _atom_site_type_symbol
 _atom_site_label
 _atom_site_symmetry_multiplicity
 _atom_site_fract_x
 _atom_site_fract_y
 _atom_site_fract_z
 _atom_site_occupancy
 _atom_site_hle17_bader_spin_density
 _atom_site_hle17_ddec_charge
 _atom_site_hle17_ddec_spin_density
 _atom_site_hle17_ddec_sum_bond_order
 _atom_site_hle17_magmom
 _atom_site_hse06_10hf_bader_spin_density
 _atom_site_hse06_10hf_ddec_charge
 _atom_site_hse06_10hf_ddec_spin_density
 _atom_site_hse06_10hf_ddec_sum_bond_order
 _atom_site_hse06_10hf_magmom
 _atom_site_hse06_bader_spin_density
 _atom_site_hse06_ddec_charge
 _atom_site_hse06_ddec_spin_density
 _atom_site_hse06_ddec_sum_bond_order
 _atom_site_hse06_magmom
 _atom_site_pbe_bader_charge
 _atom_site_pbe_bader_spin_density
 _atom_site_pbe_cm5_charge
 _atom_site_pbe_ddec_charge
 _atom_site_pbe_ddec_spin_density
 _atom_site_pbe_ddec_sum_bond_order
 _atom_site_pbe_magmom
K  K0  1  0.72854788  0.28704427  0.25626074  1  0  0.943232  0  0.435897  0  0  0.896464  0  0.608372  0  0  0.913211  0  0.586816  0  0.884366  0  0.769262  0.884445  0  0.624539  0
K  K1  1  0.77141078  0.78702178  0.24374826  1  0  0.943248  0  0.435857  0  0  0.896433  0  0.608374  0  0  0.913177  0  0.586814  0  0.884404  0  0.769241  0.884412  0  0.624535  0
K  K2  1  0.27142209  0.71297508  0.74375035  1  0  0.943256  0  0.435831  0  0  0.896464  0  0.608316  0  0  0.913208  0  0.586758  0  0.88437  0  0.769228  0.88445  0  0.624479  0
K  K3  1  0.22857696  0.21297898  0.75624637  1  0  0.943258  0  0.435843  0  0  0.896456  0  0.608348  0  0  0.913202  0  0.586784  0  0.884339  0  0.769247  0.88444  0  0.624511  0
Sm  Sm4  1  0.77661933  0.25342418  0.93261292  1  0  2.268422  0  1.657782  0  0  2.10747  0  2.13187  0  0  2.220451  0  1.960876  0  2.207056  0  1.507445  2.073738  0  2.162854  0
Sm  Sm5  1  0.72338077  0.75342384  0.56738501  1  0  2.268447  0  1.657748  0  0  2.107492  0  2.131833  0  0  2.22048  0  1.960835  0  2.207043  0  1.507455  2.073855  0  2.162673  0
Sm  Sm6  1  0.22338024  0.74657444  0.06738756  1  0  2.268415  0  1.657766  0  0  2.107453  0  2.131869  0  0  2.22045  0  1.960859  0  2.207091  0  1.507452  2.073786  0  2.162752  0
Sm  Sm7  1  0.27662177  0.24657692  0.43261413  1  0  2.268402  0  1.657778  0  0  2.107414  0  2.131925  0  0  2.220438  0  1.960872  0  2.20705  0  1.507452  2.07375  0  2.162807  0
H  H8  1  0.71232425  0.70086175  0.86524308  1  0  0.105323  0  0.953134  0  0  0.115395  0  1.017766  0  0  0.120976  0  1.01167  0  0.086114  0  0.119889  0.111293  0  1.022246  0
H  H9  1  0.78768030  0.20085851  0.63475495  1  0  0.105291  0  0.953121  0  0  0.11534  0  1.017798  0  0  0.120925  0  1.011691  0  0.086204  0  0.119839  0.111236  0  1.022277  0
H  H10  1  0.28767385  0.29913687  0.13475948  1  0  0.10525  0  0.953198  0  0  0.115355  0  1.017807  0  0  0.120934  0  1.01171  0  0.086068  0  0.119854  0.111252  0  1.022287  0
H  H11  1  0.21231928  0.79914297  0.36524273  1  0  0.105307  0  0.953136  0  0  0.115376  0  1.017785  0  0  0.120947  0  1.011697  0  0.086214  0  0.119854  0.11127  0  1.022262  0
H  H12  1  0.11174341  0.19015623  0.07178469  1  0  0.421175  0  0.837252  0  0  0.397701  0  0.903276  0  0  0.405962  0  0.894496  0  0.608739  0  0.322012  0.391843  0  0.910252  0
H  H13  1  0.38825564  0.69015662  0.42821694  1  0  0.421163  0  0.837213  0  0  0.397692  0  0.903242  0  0  0.405954  0  0.894461  0  0.60874  0  0.322016  0.391836  0  0.910217  0
H  H14  1  0.88825321  0.80984239  0.92821573  1  0  0.42121  0  0.837181  0  0  0.397732  0  0.903214  0  0  0.405995  0  0.89443  0  0.608713  0  0.322003  0.391875  0  0.910189  0
H  H15  1  0.61173949  0.30984200  0.57178275  1  0  0.421181  0  0.837191  0  0  0.397699  0  0.903246  0  0  0.405964  0  0.89446  0  0.608758  0  0.322011  0.391842  0  0.910222  0
H  H16  1  0.07964841  0.10371528  0.00501205  1  0  0.449174  0  0.844915  0  0  0.414927  0  0.913008  0  0  0.426355  0  0.896555  0  0.664331  0  0.303321  0.406852  0  0.924772  0
H  H17  1  0.42034916  0.60371352  0.49498744  1  0  0.449203  0  0.844868  0  0  0.414946  0  0.912978  0  0  0.426378  0  0.896522  0  0.664267  0  0.3033  0.406872  0  0.924741  0
H  H18  1  0.92034969  0.89628477  0.99498770  1  0  0.449172  0  0.844927  0  0  0.41492  0  0.913026  0  0  0.426351  0  0.89657  0  0.664333  0  0.303308  0.406845  0  0.92479  0
H  H19  1  0.57965485  0.39628653  0.50501383  1  0  0.44916  0  0.844938  0  0  0.41492  0  0.913019  0  0  0.42635  0  0.896564  0  0.66432  0  0.30331  0.406845  0  0.924782  0
H  H20  1  0.51860716  0.12704412  0.08020001  1  0  0.445441  0  0.841881  0  0  0.41393  0  0.907729  0  0  0.425277  0  0.891075  0  0.675616  0  0.307897  0.406076  0  0.919335  0
H  H21  1  0.98140182  0.62704307  0.41979670  1  0  0.445523  0  0.841866  0  0  0.413926  0  0.907765  0  0  0.425272  0  0.891113  0  0.675747  0  0.307872  0.406071  0  0.919371  0
H  H22  1  0.48139241  0.87295593  0.91980047  1  0  0.445442  0  0.841903  0  0  0.413921  0  0.907749  0  0  0.42527  0  0.891092  0  0.675625  0  0.307883  0.406068  0  0.919352  0
H  H23  1  0.01859923  0.37295555  0.58020241  1  0  0.44555  0  0.841825  0  0  0.413954  0  0.90772  0  0  0.4253  0  0.891067  0  0.675752  0  0.307907  0.4061  0  0.919324  0
H  H24  1  0.45080418  0.11028447  0.97586564  1  0  0.437137  0  0.86009  0  0  0.406477  0  0.923092  0  0  0.417662  0  0.906809  0  0.649121  0  0.30454  0.398555  0  0.934757  0
H  H25  1  0.04919931  0.61028628  0.52413118  1  0  0.437178  0  0.860037  0  0  0.406512  0  0.923051  0  0  0.4177  0  0.906764  0  0.648793  0  0.304552  0.398591  0  0.934715  0
H  H26  1  0.54919391  0.88971487  0.02413481  1  0  0.437169  0  0.860046  0  0  0.406506  0  0.923053  0  0  0.417693  0  0.906766  0  0.649126  0  0.304551  0.398585  0  0.934716  0
H  H27  1  0.95080175  0.38971234  0.47586864  1  0  0.437194  0  0.860022  0  0  0.406535  0  0.923025  0  0  0.417723  0  0.906738  0  0.648784  0  0.304556  0.398614  0  0.934689  0
H  H28  1  0.72018666  0.48835669  0.38752295  1  0  0.426895  0  0.851951  0  0  0.396926  0  0.927457  0  0  0.407756  0  0.911379  0  0.643653  0  0.306828  0.389251  0  0.936715  0
H  H29  1  0.77981196  0.98835421  0.11247986  1  0  0.427058  0  0.851635  0  0  0.396988  0  0.927349  0  0  0.407816  0  0.911272  0  0.643362  0  0.306885  0.389311  0  0.936557  0
H  H30  1  0.27981291  0.51164479  0.61247824  1  0  0.426902  0  0.851875  0  0  0.396908  0  0.927462  0  0  0.407738  0  0.911383  0  0.643716  0  0.306824  0.389233  0  0.936676  0
H  H31  1  0.22018762  0.01164655  0.88752202  1  0  0.42694  0  0.851866  0  0  0.396943  0  0.927408  0  0  0.40777  0  0.911334  0  0.643453  0  0.30686  0.389271  0  0.93664  0
H  H32  1  0.79518304  0.52021833  0.48488910  1  0  0.425347  0  0.848841  0  0  0.398962  0  0.915323  0  0  0.408556  0  0.904987  0  0.629746  0  0.311049  0.392094  0  0.922805  0
H  H33  1  0.70481558  0.02021938  0.01511511  1  0  0.425365  0  0.848848  0  0  0.398973  0  0.915331  0  0  0.408568  0  0.904996  0  0.629771  0  0.311063  0.392107  0  0.922809  0
H  H34  1  0.20481505  0.47977886  0.51511415  1  0  0.425361  0  0.848833  0  0  0.398972  0  0.915314  0  0  0.408566  0  0.904983  0  0.62988  0  0.311055  0.392103  0  0.922799  0
H  H35  1  0.29518251  0.97977996  0.98488674  1  0  0.425349  0  0.848852  0  0  0.398958  0  0.915343  0  0  0.408551  0  0.90501  0  0.629751  0  0.311035  0.392089  0  0.92283  0
H  H36  1  0.93093997  0.10072876  0.16539713  1  0  0.410882  0  0.877776  0  0  0.384547  0  0.944245  0  0  0.393821  0  0.930436  0  0.61724  0  0.299563  0.37806  0  0.953868  0
H  H37  1  0.56906457  0.60072843  0.33460790  1  0  0.410785  0  0.87785  0  0  0.384487  0  0.944296  0  0  0.393761  0  0.930488  0  0.617269  0  0.299539  0.378004  0  0.953913  0
H  H38  1  0.06905812  0.89927272  0.83460332  1  0  0.411041  0  0.877564  0  0  0.384645  0  0.944154  0  0  0.393919  0  0.930342  0  0.617236  0  0.299583  0.378153  0  0.953788  0
H  H39  1  0.43093796  0.39927090  0.66539544  1  0  0.41095  0  0.877698  0  0  0.384622  0  0.944144  0  0  0.393894  0  0.930335  0  0.617217  0  0.299588  0.378134  0  0.953768  0
H  H40  1  0.83050175  0.05542066  0.25582147  1  0  0.438652  0  0.857111  0  0  0.407892  0  0.920841  0  0  0.417855  0  0.906078  0  0.654154  0  0.300058  0.400875  0  0.931202  0
H  H41  1  0.66950575  0.55541889  0.24418292  1  0  0.438638  0  0.85713  0  0  0.407868  0  0.920876  0  0  0.417832  0  0.906111  0  0.654207  0  0.300035  0.400851  0  0.931237  0
H  H42  1  0.16949635  0.94458011  0.74417898  1  0  0.438689  0  0.857065  0  0  0.407951  0  0.920755  0  0  0.417915  0  0.905992  0  0.654158  0  0.30008  0.400936  0  0.931113  0
H  H43  1  0.33049974  0.44457687  0.75582049  1  0  0.438655  0  0.857118  0  0  0.407898  0  0.920838  0  0  0.417861  0  0.906075  0  0.65418  0  0.30005  0.400883  0  0.931194  0
C  C44  1  0.75275974  0.43794191  0.07535052  1  0  0.644635  0  3.932259  0  0  0.592751  0  4.243022  0  0  0.62456  0  4.238202  0  1.593068  0  0.208078  0.571281  0  4.247258  0
C  C45  1  0.74723888  0.93794230  0.42464668  1  0  0.644685  0  3.932474  0  0  0.592785  0  4.24326  0  0  0.624592  0  4.238441  0  1.592993  0  0.208121  0.571312  0  4.247498  0
C  C46  1  0.24723983  0.56205742  0.92465347  1  0  0.64457  0  3.932349  0  0  0.592699  0  4.243127  0  0  0.6245  0  4.238307  0  1.593048  0  0.208066  0.57123  0  4.247365  0
C  C47  1  0.25276957  0.06206562  0.57534697  1  0  0.644569  0  3.932646  0  0  0.592684  0  4.243364  0  0  0.624478  0  4.23855  0  1.593196  0  0.208046  0.571214  0  4.247599  0
C  C48  1  0.75757458  0.48931955  0.98199382  1  0  0.093074  0  3.703021  0  0  0.085497  0  3.955052  0  0  0.086568  0  3.974583  0  0.52434  0  0.122232  0.084381  0  3.944038  0
C  C49  1  0.74242108  0.98931779  0.51800332  1  0  0.093144  0  3.702897  0  0  0.085583  0  3.954937  0  0  0.086654  0  3.974467  0  0.523943  0  0.122259  0.084483  0  3.94391  0
C  C50  1  0.24242351  0.51067621  0.01800733  1  0  0.093125  0  3.702913  0  0  0.085472  0  3.955054  0  0  0.086575  0  3.974539  0  0.524712  0  0.122255  0.084353  0  3.944048  0
C  C51  1  0.25758146  0.01068369  0.48199512  1  0  0.093041  0  3.703061  0  0  0.085568  0  3.954963  0  0  0.086691  0  3.974423  0  0.523857  0  0.122246  0.084448  0  3.943958  0
C  C52  1  0.73477328  0.58862654  0.97064288  1  0  -0.062134  0  3.639167  0  0  -0.048733  0  3.880657  0  0  -0.052738  0  3.895815  0  -0.033703  0  0.018997  -0.04636  0  3.870416  0
C  C53  1  0.76522386  0.08862330  0.52935149  1  0  -0.062109  0  3.638856  0  0  -0.048728  0  3.880468  0  0  -0.052729  0  3.895604  0  -0.034691  0  0.018977  -0.046359  0  3.870222  0
C  C54  1  0.26522333  0.41137065  0.02935754  1  0  -0.062185  0  3.63916  0  0  -0.048776  0  3.880657  0  0  -0.052786  0  3.8958  0  -0.03369  0  0.01894  -0.046403  0  3.87042  0
C  C55  1  0.23477719  0.91137747  0.47064622  1  0  -0.062078  0  3.639005  0  0  -0.048748  0  3.88054  0  0  -0.052766  0  3.89567  0  -0.033862  0  0.018996  -0.046373  0  3.870299  0
C  C56  1  0.73503378  0.62470561  0.87923985  1  0  -0.044962  0  3.630134  0  0  -0.085108  0  3.885288  0  0  -0.0819  0  3.8965  0  0.017102  0  -0.05086  -0.086959  0  3.877315  0
C  C57  1  0.76496780  0.12470237  0.62075671  1  0  -0.04492  0  3.629876  0  0  -0.085014  0  3.884999  0  0  -0.08181  0  3.896216  0  0.017131  0  -0.050776  -0.086858  0  3.877018  0
C  C58  1  0.26496579  0.37529158  0.12076063  1  0  -0.044843  0  3.630106  0  0  -0.085016  0  3.885256  0  0  -0.081809  0  3.896474  0  0.017057  0  -0.050828  -0.086869  0  3.877285  0
C  C59  1  0.23503473  0.87529839  0.37924243  1  0  -0.044877  0  3.629961  0  0  -0.085006  0  3.885107  0  0  -0.081786  0  3.896329  0  0.01738  0  -0.05077  -0.086847  0  3.877121  0
C  C60  1  0.76215557  0.56415613  0.80302197  1  0  -0.040599  0  3.646256  0  0  -0.024424  0  3.884483  0  0  -0.026775  0  3.897163  0  -0.013464  0  0.022716  -0.022747  0  3.875439  0
C  C61  1  0.73784306  0.06415217  0.69697523  1  0  -0.040608  0  3.646438  0  0  -0.024463  0  3.884666  0  0  -0.02682  0  3.897351  0  -0.013487  0  0.022668  -0.022787  0  3.875618  0
C  C62  1  0.23784105  0.43584320  0.19697775  1  0  -0.040557  0  3.646243  0  0  -0.024411  0  3.884471  0  0  -0.026754  0  3.897153  0  -0.013433  0  0.022698  -0.022733  0  3.875426  0
C  C63  1  0.26215948  0.93584859  0.30302391  1  0  -0.040603  0  3.646332  0  0  -0.024454  0  3.884551  0  0  -0.026815  0  3.897235  0  -0.013557  0  0.022662  -0.022781  0  3.875501  0
C  C64  1  0.78797632  0.46651110  0.82078709  1  0  0.112646  0  3.695004  0  0  0.103665  0  3.942757  0  0  0.106444  0  3.959039  0  0.543858  0  0.131372  0.101304  0  3.934068  0
C  C65  1  0.71201638  0.96650791  0.67921069  1  0  0.112692  0  3.695152  0  0  0.103725  0  3.942851  0  0  0.106504  0  3.959141  0  0.543993  0  0.131447  0.101368  0  3.934158  0
C  C66  1  0.21202029  0.53348752  0.17921403  1  0  0.11245  0  3.695327  0  0  0.103495  0  3.942995  0  0  0.106263  0  3.959296  0  0.544236  0  0.131333  0.101135  0  3.934309  0
C  C67  1  0.28798467  0.03349357  0.32078772  1  0  0.112549  0  3.695261  0  0  0.103605  0  3.94296  0  0  0.106382  0  3.959259  0  0.543796  0  0.131409  0.101254  0  3.934256  0
C  C68  1  0.82275182  0.39316992  0.74531952  1  0  0.6414  0  3.922782  0  0  0.591166  0  4.227568  0  0  0.625111  0  4.218631  0  1.602438  0  0.218465  0.568255  0  4.23447  0
C  C69  1  0.67724236  0.89316316  0.75467269  1  0  0.641141  0  3.92294  0  0  0.590947  0  4.227696  0  0  0.624893  0  4.218758  0  1.602313  0  0.218389  0.568042  0  4.234591  0
C  C70  1  0.17724775  0.60683013  0.25467886  1  0  0.641442  0  3.922839  0  0  0.591274  0  4.227506  0  0  0.625221  0  4.218564  0  1.602438  0  0.218475  0.568361  0  4.234418  0
C  C71  1  0.32276018  0.10683618  0.24532435  1  0  0.641274  0  3.92297  0  0  0.591025  0  4.2278  0  0  0.624973  0  4.218861  0  1.602534  0  0.21838  0.568115  0  4.2347  0
C  C72  1  0.71977667  0.65934647  0.05001948  1  0  0.741848  0  3.874672  0  0  0.69247  0  4.171293  0  0  0.730067  0  4.15818  0  1.658526  0  0.231685  0.667322  0  4.180722  0
C  C73  1  0.78022787  0.15934681  0.44998065  1  0  0.741938  0  3.874586  0  0  0.692443  0  4.171408  0  0  0.730053  0  4.15827  0  1.659508  0  0.231655  0.667293  0  4.180838  0
C  C74  1  0.28021847  0.34065215  0.94998091  1  0  0.74173  0  3.874861  0  0  0.692404  0  4.171393  0  0  0.729996  0  4.15829  0  1.65845  0  0.231682  0.667254  0  4.180823  0
C  C75  1  0.21978058  0.84065467  0.55001721  1  0  0.741927  0  3.874585  0  0  0.692573  0  4.171147  0  0  0.730176  0  4.158019  0  1.658503  0  0.231717  0.667423  0  4.180578  0
C  C76  1  0.76040310  0.60757997  0.70688974  1  0  0.687606  0  3.939418  0  0  0.635014  0  4.24223  0  0  0.669232  0  4.236611  0  1.627817  0  0.200085  0.611002  0  4.249973  0
C  C77  1  0.73960144  0.10757888  0.79310689  1  0  0.687493  0  3.939545  0  0  0.634921  0  4.242321  0  0  0.669143  0  4.236693  0  1.627729  0  0.199973  0.610908  0  4.250049  0
C  C78  1  0.23960388  0.39242008  0.29311160  1  0  0.68739  0  3.939654  0  0  0.634833  0  4.242406  0  0  0.669048  0  4.236795  0  1.627786  0  0.199951  0.610821  0  4.250144  0
C  C79  1  0.26040109  0.89242117  0.20689085  1  0  0.687571  0  3.939518  0  0  0.635017  0  4.242258  0  0  0.669243  0  4.236629  0  1.627711  0  0.200036  0.611007  0  4.249996  0
N  N80  1  0.78257683  0.43226124  0.90808340  1  0  -0.40209  0  3.356131  0  0  -0.355913  0  3.616427  0  0  -0.372929  0  3.635981  0  -1.242577  0  -0.386812  -0.348889  0  3.604898  0
N  N81  1  0.71741143  0.93225877  0.59191359  1  0  -0.402221  0  3.356221  0  0  -0.356047  0  3.616501  0  0  -0.373067  0  3.63606  0  -1.24224  0  -0.386916  -0.349037  0  3.604969  0
N  N82  1  0.21741830  0.56773666  0.09191699  1  0  -0.401976  0  3.356211  0  0  -0.355783  0  3.616515  0  0  -0.372808  0  3.636063  0  -1.243335  0  -0.386796  -0.348766  0  3.604989  0
N  N83  1  0.28258814  0.06774200  0.40808479  1  0  -0.402112  0  3.356349  0  0  -0.35596  0  3.616586  0  0  -0.373001  0  3.636132  0  -1.242292  0  -0.386902  -0.348942  0  3.605057  0
O  O84  1  0.77432366  0.34624561  0.07278539  1  0  -0.793456  0  2.037011  0  0  -0.742541  0  2.297743  0  0  -0.776707  0  2.285723  0  -1.18457  0  -0.471715  -0.725113  0  2.303768  0
O  O85  1  0.72567052  0.84624385  0.42721243  1  0  -0.793512  0  2.036934  0  0  -0.74256  0  2.297638  0  0  -0.776729  0  2.285616  0  -1.184611  0  -0.471778  -0.725149  0  2.303664  0
O  O86  1  0.22567147  0.65375015  0.92721851  1  0  -0.793411  0  2.037218  0  0  -0.742472  0  2.297925  0  0  -0.776634  0  2.285901  0  -1.18451  0  -0.471713  -0.72506  0  2.303951  0
O  O87  1  0.27434682  0.15375763  0.57278492  1  0  -0.793382  0  2.037162  0  0  -0.742461  0  2.297907  0  0  -0.776634  0  2.28589  0  -1.184759  0  -0.471752  -0.725049  0  2.303936  0
O  O88  1  0.72786406  0.48554817  0.14795015  1  0  -0.597945  0  1.96644  0  0  -0.551836  0  2.196937  0  0  -0.574051  0  2.189426  0  -1.188911  0  -0.308412  -0.536051  0  2.20125  0
O  O89  1  0.77213752  0.98554426  0.35205132  1  0  -0.597942  0  1.966676  0  0  -0.551827  0  2.197166  0  0  -0.574041  0  2.189653  0  -1.188882  0  -0.30839  -0.536038  0  2.201481  0
O  O90  1  0.27213699  0.51444902  0.85204896  1  0  -0.597926  0  1.966351  0  0  -0.55181  0  2.196828  0  0  -0.57403  0  2.189324  0  -1.188886  0  -0.308378  -0.536018  0  2.201136  0
O  O91  1  0.22786058  0.01445937  0.64795194  1  0  -0.597935  0  1.966383  0  0  -0.551868  0  2.196887  0  0  -0.574086  0  2.189385  0  -1.18885  0  -0.308382  -0.536075  0  2.201194  0
O  O92  1  0.55262040  0.68073959  0.07996329  1  0  -0.737331  0  2.077809  0  0  -0.691163  0  2.33843  0  0  -0.726305  0  2.32464  0  -1.202099  0  -0.402817  -0.672312  0  2.34452  0
O  O93  1  0.94738562  0.18073491  0.42003687  1  0  -0.737305  0  2.077964  0  0  -0.691045  0  2.338555  0  0  -0.726183  0  2.324726  0  -1.202126  0  -0.402743  -0.672192  0  2.344645  0
O  O94  1  0.44738066  0.31926189  0.92003512  1  0  -0.737324  0  2.077779  0  0  -0.691153  0  2.338317  0  0  -0.726284  0  2.324511  0  -1.202067  0  -0.40285  -0.672291  0  2.344409  0
O  O95  1  0.05261395  0.81926799  0.57996361  1  0  -0.737376  0  2.077599  0  0  -0.691196  0  2.33817  0  0  -0.726334  0  2.324355  0  -1.202011  0  -0.402834  -0.672346  0  2.344258  0
O  O96  1  0.88023686  0.69910186  0.07794199  1  0  -0.761265  0  2.089838  0  0  -0.709114  0  2.348395  0  0  -0.745012  0  2.335064  0  -1.198372  0  -0.432519  -0.689554  0  2.354268  0
O  O97  1  0.61977064  0.19910792  0.42206030  1  0  -0.761374  0  2.089671  0  0  -0.709217  0  2.348353  0  0  -0.745128  0  2.335012  0  -1.198381  0  -0.432566  -0.689671  0  2.354265  0
O  O98  1  0.11976419  0.30089890  0.92205712  1  0  -0.761188  0  2.090041  0  0  -0.709069  0  2.348576  0  0  -0.744962  0  2.335245  0  -1.198337  0  -0.432469  -0.689496  0  2.354442  0
O  O99  1  0.38022597  0.80089356  0.57793872  1  0  -0.761269  0  2.089908  0  0  -0.70917  0  2.348525  0  0  -0.745069  0  2.335184  0  -1.198396  0  -0.432498  -0.689629  0  2.354434  0
O  O100  1  0.91836188  0.64596291  0.67999059  1  0  -0.722922  0  2.004169  0  0  -0.674835  0  2.251752  0  0  -0.705833  0  2.241036  0  -1.187716  0  -0.436488  -0.657408  0  2.258625  0
O  O101  1  0.58164710  0.14596253  0.82000542  1  0  -0.722892  0  2.004391  0  0  -0.674808  0  2.251961  0  0  -0.705806  0  2.241242  0  -1.187544  0  -0.43643  -0.657368  0  2.258832  0
O  O102  1  0.08164657  0.35403928  0.32001428  1  0  -0.722863  0  2.004252  0  0  -0.674822  0  2.251885  0  0  -0.705828  0  2.241173  0  -1.187654  0  -0.436428  -0.657391  0  2.258758  0
O  O103  1  0.41835247  0.85403823  0.17999085  1  0  -0.722971  0  2.004462  0  0  -0.674874  0  2.252001  0  0  -0.705874  0  2.24128  0  -1.187588  0  -0.436495  -0.657445  0  2.258875  0
O  O104  1  0.59535749  0.61430857  0.66077388  1  0  -0.720137  0  1.960498  0  0  -0.673595  0  2.207302  0  0  -0.704729  0  2.196371  0  -1.187785  0  -0.407132  -0.656327  0  2.214039  0
O  O105  1  0.90465742  0.11431176  0.83921805  1  0  -0.72002  0  1.960269  0  0  -0.673505  0  2.207082  0  0  -0.704627  0  2.196129  0  -1.187738  0  -0.407041  -0.656245  0  2.213859  0
O  O106  1  0.40465689  0.38569148  0.33922130  1  0  -0.719959  0  1.960526  0  0  -0.673436  0  2.207338  0  0  -0.704565  0  2.196396  0  -1.187884  0  -0.407053  -0.656168  0  2.214079  0
O  O107  1  0.09534068  0.88568829  0.16078170  1  0  -0.720074  0  1.960283  0  0  -0.67356  0  2.207076  0  0  -0.704686  0  2.196124  0  -1.187733  0  -0.407062  -0.65629  0  2.213811  0
O  O108  1  0.84735888  0.42139814  0.66310025  1  0  -0.594568  0  1.951512  0  0  -0.539712  0  2.170877  0  0  -0.562362  0  2.160042  0  -1.16462  0  -0.299712  -0.523397  0  2.177209  0
O  O109  1  0.65263531  0.92139351  0.83689896  1  0  -0.594372  0  1.951244  0  0  -0.539536  0  2.170568  0  0  -0.562204  0  2.159766  0  -1.16442  0  -0.299676  -0.523229  0  2.176905  0
O  O110  1  0.15265106  0.57860263  0.33690044  1  0  -0.594586  0  1.951503  0  0  -0.539749  0  2.170818  0  0  -0.562411  0  2.160006  0  -1.164618  0  -0.2997  -0.523435  0  2.177154  0
O  O111  1  0.34735983  0.07860654  0.16310143  1  0  -0.594388  0  1.951405  0  0  -0.539587  0  2.170819  0  0  -0.562241  0  2.15999  0  -1.164484  0  -0.299653  -0.523276  0  2.177154  0
O  O112  1  0.82297088  0.30559169  0.77218189  1  0  -0.759995  0  2.071959  0  0  -0.709908  0  2.328655  0  0  -0.743023  0  2.316705  0  -1.196763  0  -0.414117  -0.692192  0  2.334861  0
O  O113  1  0.67702626  0.80558993  0.72781318  1  0  -0.759913  0  2.072337  0  0  -0.709838  0  2.32901  0  0  -0.742946  0  2.317057  0  -1.196948  0  -0.414102  -0.692138  0  2.335211  0
O  O114  1  0.17702573  0.69440693  0.22781432  1  0  -0.759961  0  2.071954  0  0  -0.709928  0  2.32868  0  0  -0.74304  0  2.316721  0  -1.196757  0  -0.414132  -0.692223  0  2.334887  0
O  O115  1  0.32297775  0.19441155  0.27218530  1  0  -0.759928  0  2.072148  0  0  -0.709827  0  2.328857  0  0  -0.742946  0  2.316904  0  -1.196946  0  -0.414092  -0.692121  0  2.33506  0
O  O116  1  0.00527072  0.15347385  0.04085998  1  0  -0.879622  0  1.875195  0  0  -0.827549  0  2.076507  0  0  -0.854255  0  2.046577  0  -1.256357  0  -0.605445  -0.814212  0  2.095404  0
O  O117  1  0.49472833  0.65347209  0.45913885  1  0  -0.879607  0  1.875085  0  0  -0.827556  0  2.076418  0  0  -0.85425  0  2.046451  0  -1.256303  0  -0.60541  -0.814236  0  2.095313  0
O  O118  1  0.99472737  0.84652477  0.95913978  1  0  -0.879673  0  1.875131  0  0  -0.827583  0  2.076452  0  0  -0.854295  0  2.046518  0  -1.256342  0  -0.605419  -0.814252  0  2.095348  0
O  O119  1  0.50527273  0.34652868  0.54085956  1  0  -0.879591  0  1.875111  0  0  -0.827528  0  2.076425  0  0  -0.854229  0  2.046454  0  -1.256355  0  -0.605401  -0.814197  0  2.095321  0
O  O120  1  0.56364436  0.13674851  0.01535703  1  0  -0.922195  0  1.900982  0  0  -0.868396  0  2.094689  0  0  -0.8968  0  2.057794  0  -1.314892  0  -0.623738  -0.854354  0  2.117634  0
O  O121  1  0.93636314  0.63675103  0.48463895  1  0  -0.922321  0  1.900882  0  0  -0.868452  0  2.094671  0  0  -0.896853  0  2.057759  0  -1.314689  0  -0.623733  -0.854427  0  2.117616  0
O  O122  1  0.43635374  0.86325154  0.98464272  1  0  -0.922226  0  1.900955  0  0  -0.868433  0  2.094685  0  0  -0.896834  0  2.057779  0  -1.314916  0  -0.623744  -0.8544  0  2.117628  0
O  O123  1  0.06363791  0.36324758  0.51536086  1  0  -0.922355  0  1.900854  0  0  -0.868479  0  2.094646  0  0  -0.896884  0  2.057725  0  -1.314682  0  -0.62376  -0.854446  0  2.117593  0
O  O124  1  0.74631084  0.46229366  0.45157021  1  0  -0.802398  0  1.888312  0  0  -0.737097  0  2.063508  0  0  -0.756498  0  2.034334  0  -1.250905  0  -0.551473  -0.722935  0  2.081533  0
O  O125  1  0.75368926  0.96229262  0.04843193  1  0  -0.802542  0  1.888021  0  0  -0.737143  0  2.063408  0  0  -0.756537  0  2.034235  0  -1.250598  0  -0.55152  -0.722979  0  2.081382  0
O  O126  1  0.25369021  0.53770496  0.54843030  1  0  -0.802438  0  1.888304  0  0  -0.737087  0  2.063557  0  0  -0.75649  0  2.034389  0  -1.251043  0  -0.551466  -0.722921  0  2.081541  0
O  O127  1  0.24630884  0.03770600  0.95156922  1  0  -0.802405  0  1.888252  0  0  -0.737055  0  2.063506  0  0  -0.756445  0  2.034337  0  -1.250671  0  -0.551462  -0.72289  0  2.081508  0
O  O128  1  0.80673541  0.09106083  0.19678813  1  0  -0.851384  0  1.799952  0  0  -0.801353  0  1.964658  0  0  -0.819998  0  1.935811  0  -1.264625  0  -0.61423  -0.787874  0  1.984434  0
O  O129  1  0.69327358  0.59105264  0.30321840  1  0  -0.851248  0  1.800143  0  0  -0.801259  0  1.964893  0  0  -0.819903  0  1.936043  0  -1.26467  0  -0.614188  -0.787757  0  1.984616  0
O  O130  1  0.19326269  0.90894065  0.80321162  1  0  -0.851577  0  1.799772  0  0  -0.801556  0  1.96448  0  0  -0.820197  0  1.935631  0  -1.264617  0  -0.61431  -0.788075  0  1.98426  0
O  O131  1  0.30673192  0.40894169  0.69678712  1  0  -0.851427  0  1.799963  0  0  -0.801432  0  1.964678  0  0  -0.820078  0  1.935826  0  -1.26459  0  -0.614275  -0.787955  0  1.984455  0
