# generated using pymatgen
data_Zn2H7C9N11O4
_symmetry_space_group_name_H-M   'P 1'
_cell_length_a   9.76488985
_cell_length_b   9.76043185
_cell_length_c   20.20600000
_cell_angle_alpha   90.00000000
_cell_angle_beta   90.00000000
_cell_angle_gamma   95.14325683
_symmetry_Int_Tables_number   1
_chemical_formula_structural   Zn2H7C9N11O4
_chemical_formula_sum   'Zn8 H28 C36 N44 O16'
_cell_volume   1918.07059587
_cell_formula_units_Z   4
loop_
 _symmetry_equiv_pos_site_id
 _symmetry_equiv_pos_as_xyz
  1  'x, y, z'
loop_
 _atom_site_type_symbol
 _atom_site_label
 _atom_site_symmetry_multiplicity
 _atom_site_fract_x
 _atom_site_fract_y
 _atom_site_fract_z
 _atom_site_occupancy
 _atom_site_pbe_bader_charge
 _atom_site_pbe_bader_spin_density
 _atom_site_pbe_cm5_charge
 _atom_site_pbe_ddec_charge
 _atom_site_pbe_ddec_spin_density
 _atom_site_pbe_ddec_sum_bond_order
 _atom_site_pbe_magmom
Zn  Zn0  1  0.75000023  0.75000002  0.06784223  1  1.263174  0  0.727099  0.725377  0  2.448738  0
Zn  Zn1  1  0.25000039  0.24999966  0.43213748  1  1.263449  0  0.727149  0.725213  0  2.449155  0
Zn  Zn2  1  0.25000039  0.24999966  0.93215777  1  1.263178  0  0.727085  0.725344  0  2.448764  0
Zn  Zn3  1  0.74999921  0.75000002  0.56786301  1  1.263447  0  0.727151  0.725223  0  2.449153  0
Zn  Zn4  1  0.75000100  0.25000069  0.10949718  1  1.263021  0  0.722966  0.790711  0  2.39467  0
Zn  Zn5  1  0.75000100  0.25000069  0.39038850  1  1.264533  0  0.723159  0.790642  0  2.394924  0
Zn  Zn6  1  0.24999971  0.75000002  0.89050233  1  1.263022  0  0.722958  0.790699  0  2.394709  0
Zn  Zn7  1  0.24999971  0.75000002  0.60961150  1  1.264465  0  0.723182  0.790695  0  2.394878  0
H  H8  1  0.77401264  0.97387618  0.29494952  1  0.146757  0  0.118266  0.133664  0  1.002272  0
H  H9  1  0.72598382  0.52612488  0.29494952  1  0.14681  0  0.118263  0.133653  0  1.002311  0
H  H10  1  0.47377336  0.27396395  0.20504504  1  0.147471  0  0.118265  0.133426  0  1.002139  0
H  H11  1  0.02622760  0.22603744  0.20504553  1  0.147462  0  0.118282  0.133475  0  1.002092  0
H  H12  1  0.22598602  0.02612453  0.70505097  1  0.146801  0  0.118264  0.133664  0  1.00231  0
H  H13  1  0.27401680  0.47387480  0.70505048  1  0.146822  0  0.118244  0.133622  0  1.002321  0
H  H14  1  0.52622726  0.72603573  0.79495496  1  0.147478  0  0.118264  0.133443  0  1.00213  0
H  H15  1  0.97377209  0.77396327  0.79495447  1  0.147491  0  0.118278  0.133464  0  1.002102  0
H  H16  1  0.74999818  0.75000002  0.35853657  1  0.142807  0  0.112626  0.111464  0  1.000557  0
H  H17  1  0.24999946  0.25000069  0.14146293  1  0.14285  0  0.112512  0.111238  0  1.000474  0
H  H18  1  0.25000346  0.24999966  0.64146343  1  0.142821  0  0.112594  0.111394  0  1.000483  0
H  H19  1  0.75000014  0.74999899  0.85853756  1  0.142834  0  0.112516  0.111245  0  1.00046  0
H  H20  1  0.31987269  0.57467375  0.01584925  1  0.494025  0  0.30407  0.311351  0  0.982441  0
H  H21  1  0.18012571  0.92532629  0.01584826  1  0.49403  0  0.30407  0.311353  0  0.982388  0
H  H22  1  0.07467705  0.81981081  0.48420321  1  0.49352  0  0.30417  0.311639  0  0.982305  0
H  H23  1  0.42532238  0.68018923  0.48420321  1  0.493523  0  0.304177  0.311653  0  0.982284  0
H  H24  1  0.68012793  0.42532593  0.98414976  1  0.494024  0  0.304048  0.311303  0  0.982522  0
H  H25  1  0.81987491  0.07467339  0.98415174  1  0.494035  0  0.304076  0.311359  0  0.98238  0
H  H26  1  0.92532255  0.18018887  0.51579630  1  0.493518  0  0.304178  0.311647  0  0.982274  0
H  H27  1  0.57467731  0.31981148  0.51579630  1  0.493525  0  0.304172  0.311653  0  0.982284  0
H  H28  1  0.46512469  0.57822786  0.06415471  1  0.467999  0  0.308265  0.320629  0  0.944062  0
H  H29  1  0.03487287  0.92177423  0.06415322  1  0.467983  0  0.308243  0.320582  0  0.944144  0
H  H30  1  0.07831363  0.96511691  0.43588291  1  0.468525  0  0.308188  0.320506  0  0.944107  0
H  H31  1  0.42168579  0.53488312  0.43588291  1  0.468519  0  0.308193  0.320514  0  0.944101  0
H  H32  1  0.53487602  0.42177285  0.93584529  1  0.468002  0  0.308267  0.320655  0  0.944039  0
H  H33  1  0.96512673  0.07822545  0.93584678  1  0.467984  0  0.308217  0.32053  0  0.944169  0
H  H34  1  0.92168606  0.03488379  0.56411709  1  0.468533  0  0.308184  0.320515  0  0.944132  0
H  H35  1  0.57831389  0.46511759  0.56411709  1  0.468519  0  0.308184  0.320496  0  0.944118  0
C  C36  1  0.78779115  0.99109434  0.15496288  1  1.604484  0  0.214726  0.53188  0  4.224919  0
C  C37  1  0.71221033  0.50890569  0.15496288  1  1.60441  0  0.214754  0.531894  0  4.224879  0
C  C38  1  0.49101408  0.28776275  0.34503464  1  1.604361  0  0.214938  0.532126  0  4.224897  0
C  C39  1  0.00898883  0.21223760  0.34503563  1  1.604332  0  0.214975  0.532128  0  4.224781  0
C  C40  1  0.21220844  0.00890534  0.84503712  1  1.604491  0  0.214744  0.53192  0  4.224948  0
C  C41  1  0.28778824  0.49109399  0.84503712  1  1.604483  0  0.214771  0.531958  0  4.224813  0
C  C42  1  0.50898654  0.71223693  0.65496536  1  1.604356  0  0.214946  0.53211  0  4.224811  0
C  C43  1  0.99101272  0.78776105  0.65496486  1  1.604335  0  0.214971  0.532122  0  4.224842  0
C  C44  1  0.76760008  0.86968257  0.20088687  1  0.440787  0  0.123433  0.122904  0  3.952507  0
C  C45  1  0.73239638  0.63031850  0.20088687  1  0.440798  0  0.123387  0.122867  0  3.952589  0
C  C46  1  0.36963780  0.26757272  0.29911066  1  0.441556  0  0.123318  0.122688  0  3.95266  0
C  C47  1  0.13036400  0.23242661  0.29911116  1  0.441556  0  0.123333  0.122721  0  3.952633  0
C  C48  1  0.23239756  0.13031814  0.79911264  1  0.440785  0  0.123399  0.122857  0  3.9525  0
C  C49  1  0.26760126  0.36968221  0.79911313  1  0.440769  0  0.123422  0.122836  0  3.952621  0
C  C50  1  0.63036272  0.73242593  0.70088934  1  0.441562  0  0.12333  0.122692  0  3.952683  0
C  C51  1  0.86963755  0.76757204  0.70088884  1  0.441548  0  0.123309  0.122668  0  3.952694  0
C  C52  1  0.76459782  0.87460072  0.26992774  1  0.034465  0  -0.056103  -0.105058  0  3.862407  0
C  C53  1  0.73539752  0.62539932  0.26992824  1  0.034423  0  -0.056114  -0.105067  0  3.862372  0
C  C54  1  0.37454889  0.26457410  0.23006879  1  0.033318  0  -0.056048  -0.104559  0  3.861843  0
C  C55  1  0.12545318  0.23542832  0.23006929  1  0.033387  0  -0.056044  -0.104607  0  3.861885  0
C  C56  1  0.23540075  0.12539896  0.73007226  1  0.034408  0  -0.056118  -0.105114  0  3.86244  0
C  C57  1  0.26460105  0.37460036  0.73007275  1  0.034417  0  -0.05609  -0.105052  0  3.862465  0
C  C58  1  0.62545173  0.73542558  0.76993121  1  0.033313  0  -0.056063  -0.104621  0  3.861908  0
C  C59  1  0.87454744  0.76457136  0.76993071  1  0.033357  0  -0.05602  -0.104565  0  3.861885  0
C  C60  1  0.74999725  0.75000105  0.30459072  1  0.01646  0  -0.049573  -0.004276  0  3.893894  0
C  C61  1  0.25000057  0.25000172  0.19541275  1  0.016521  0  -0.049562  -0.004319  0  3.893471  0
C  C62  1  0.25000141  0.24999966  0.69540978  1  0.016472  0  -0.049541  -0.004146  0  3.893841  0
C  C63  1  0.74999902  0.74999796  0.80458775  1  0.016529  0  -0.049561  -0.004293  0  3.893433  0
C  C64  1  0.46941909  0.73144662  0.99722310  1  1.518152  0  0.330363  0.517238  0  4.119007  0
C  C65  1  0.03057931  0.76855341  0.99722261  1  1.517894  0  0.330349  0.517177  0  4.119006  0
C  C66  1  0.23145579  0.96937568  0.50280461  1  1.518426  0  0.330102  0.517235  0  4.119235  0
C  C67  1  0.26854363  0.53062436  0.50280461  1  1.5186  0  0.330127  0.517249  0  4.119369  0
C  C68  1  0.53058153  0.26855306  0.00277591  1  1.518151  0  0.330325  0.517185  0  4.119027  0
C  C69  1  0.96942131  0.23144627  0.00277739  1  1.517867  0  0.330342  0.517197  0  4.118986  0
C  C70  1  0.76854389  0.03062503  0.49719588  1  1.518599  0  0.330111  0.517236  0  4.119222  0
C  C71  1  0.73145606  0.46937635  0.49719539  1  1.518605  0  0.330139  0.517306  0  4.119311  0
N  N72  1  0.74999912  0.74999899  0.16843363  1  -1.294796  0  -0.325994  -0.25682  0  3.625576  0
N  N73  1  0.25000039  0.24999966  0.33155944  1  -1.296562  0  -0.325865  -0.256758  0  3.62631  0
N  N74  1  0.24999936  0.24999966  0.83156637  1  -1.294788  0  -0.325987  -0.256759  0  3.625546  0
N  N75  1  0.75000005  0.74999796  0.66844056  1  -1.296552  0  -0.325867  -0.25674  0  3.626297  0
N  N76  1  0.59656645  0.79199615  0.00935217  1  -0.818215  0  -0.274079  -0.340309  0  3.493392  0
N  N77  1  0.90343103  0.70800491  0.00935118  1  -0.818291  0  -0.274048  -0.340274  0  3.493407  0
N  N78  1  0.29204691  0.09653401  0.49062160  1  -0.819504  0  -0.27408  -0.340398  0  3.49362  0
N  N79  1  0.20795396  0.40346634  0.49062160  1  -0.819512  0  -0.274072  -0.340321  0  3.493716  0
N  N80  1  0.40343324  0.20800456  0.99064783  1  -0.818233  0  -0.274084  -0.340308  0  3.493403  0
N  N81  1  0.09656856  0.29199477  0.99064882  1  -0.818243  0  -0.274076  -0.340339  0  3.493419  0
N  N82  1  0.70795278  0.90346669  0.50937890  1  -0.819505  0  -0.27406  -0.340313  0  3.493603  0
N  N83  1  0.79204573  0.59653437  0.50937791  1  -0.819507  0  -0.274113  -0.340437  0  3.493715  0
N  N84  1  0.62252595  0.89182813  0.96224537  1  -0.093779  0  -0.09921  -0.074153  0  3.279683  0
N  N85  1  0.87747256  0.60817293  0.96224438  1  -0.093759  0  -0.099227  -0.074189  0  3.279727  0
N  N86  1  0.39184421  0.12254538  0.53771652  1  -0.092628  0  -0.099455  -0.074679  0  3.279826  0
N  N87  1  0.10815657  0.37745394  0.53771652  1  -0.092627  0  -0.099481  -0.074753  0  3.279947  0
N  N88  1  0.37747486  0.10817360  0.03775463  1  -0.093725  0  -0.099204  -0.074131  0  3.279671  0
N  N89  1  0.12252806  0.39182675  0.03775562  1  -0.0938  0  -0.099187  -0.074093  0  3.27968  0
N  N90  1  0.60815650  0.87745532  0.46228348  1  -0.092607  0  -0.099479  -0.074766  0  3.279924  0
N  N91  1  0.89184405  0.62254574  0.46228348  1  -0.092637  0  -0.099447  -0.074679  0  3.279827  0
N  N92  1  0.51746053  0.89260273  0.92349352  1  -0.122026  0  -0.105262  -0.076766  0  3.254478  0
N  N93  1  0.98253891  0.60739730  0.92349253  1  -0.122058  0  -0.105248  -0.076731  0  3.254443  0
N  N94  1  0.39256985  0.01749899  0.57651391  1  -0.12245  0  -0.104878  -0.075965  0  3.254102  0
N  N95  1  0.10742990  0.48250034  0.57651391  1  -0.122448  0  -0.10489  -0.075981  0  3.254115  0
N  N96  1  0.48254121  0.10739797  0.07650648  1  -0.122318  0  -0.105241  -0.076738  0  3.254492  0
N  N97  1  0.01746171  0.39260238  0.07650747  1  -0.122006  0  -0.105265  -0.076783  0  3.254517  0
N  N98  1  0.60742983  0.98250172  0.42348609  1  -0.122453  0  -0.104895  -0.075986  0  3.25414  0
N  N99  1  0.89257072  0.51749934  0.42348609  1  -0.122468  0  -0.10491  -0.076006  0  3.254143  0
N  N100  1  0.41849731  0.79293843  0.94375186  1  -0.798274  0  -0.273096  -0.354937  0  3.496069  0
N  N101  1  0.08150118  0.70706264  0.94375087  1  -0.798258  0  -0.27313  -0.35496  0  3.496064  0
N  N102  1  0.29289761  0.91849786  0.55629961  1  -0.798136  0  -0.273187  -0.35526  0  3.496308  0
N  N103  1  0.20710274  0.58150114  0.55629961  1  -0.798311  0  -0.27319  -0.355257  0  3.496268  0
N  N104  1  0.58150433  0.20706125  0.05624715  1  -0.797985  0  -0.273123  -0.354983  0  3.496129  0
N  N105  1  0.91849851  0.29293807  0.05624913  1  -0.798298  0  -0.27311  -0.354939  0  3.496093  0
N  N106  1  0.70710301  0.08150182  0.44370088  1  -0.798315  0  -0.273172  -0.355225  0  3.4963  0
N  N107  1  0.79289797  0.41849957  0.44370039  1  -0.798297  0  -0.273167  -0.355233  0  3.496289  0
N  N108  1  0.40393786  0.63087707  0.03461051  1  -1.238171  0  -0.580914  -0.647299  0  3.287429  0
N  N109  1  0.09606063  0.86912399  0.03460952  1  -1.237815  0  -0.580879  -0.647222  0  3.287438  0
N  N110  1  0.13090182  0.90387920  0.46543452  1  -1.238528  0  -0.580839  -0.647252  0  3.287428  0
N  N111  1  0.36909761  0.59612084  0.46543452  1  -1.238562  0  -0.580839  -0.64726  0  3.287424  0
N  N112  1  0.59606369  0.36912158  0.96538850  1  -1.238183  0  -0.580849  -0.647208  0  3.287497  0
N  N113  1  0.90393906  0.13087672  0.96538998  1  -1.237796  0  -0.580858  -0.647178  0  3.287445  0
N  N114  1  0.86909787  0.09612151  0.53456548  1  -1.238589  0  -0.580826  -0.647246  0  3.287385  0
N  N115  1  0.63090105  0.40387987  0.53456548  1  -1.238523  0  -0.580836  -0.647259  0  3.287414  0
O  O116  1  0.81541331  0.96710228  0.09476789  1  -1.183557  0  -0.309347  -0.550041  0  2.291815  0
O  O117  1  0.68459209  0.53289570  0.09476740  1  -1.183468  0  -0.309355  -0.550046  0  2.291782  0
O  O118  1  0.46703582  0.31544882  0.40522073  1  -1.183088  0  -0.30942  -0.550088  0  2.291947  0
O  O119  1  0.03296821  0.18455256  0.40522122  1  -1.183125  0  -0.309478  -0.550104  0  2.291926  0
O  O120  1  0.18459020  0.03289534  0.90523211  1  -1.183548  0  -0.309345  -0.550034  0  2.291823  0
O  O121  1  0.31540853  0.46710398  0.90523260  1  -1.183539  0  -0.309363  -0.550068  0  2.291733  0
O  O122  1  0.53296582  0.68455086  0.59477927  1  -1.183092  0  -0.309407  -0.550063  0  2.291904  0
O  O123  1  0.96703241  0.81544712  0.59477878  1  -1.183099  0  -0.309492  -0.550131  0  2.291912  0
O  O124  1  0.77301826  0.10863960  0.17928190  1  -1.148051  0  -0.294665  -0.472307  0  2.32554  0
O  O125  1  0.72698160  0.39136076  0.17928289  1  -1.148069  0  -0.294662  -0.472282  0  2.325483  0
O  O126  1  0.60849961  0.27295481  0.32070722  1  -1.148231  0  -0.294787  -0.472487  0  2.325628  0
O  O127  1  0.89150304  0.22704246  0.32070771  1  -1.148092  0  -0.294769  -0.472469  0  2.325597  0
O  O128  1  0.22697929  0.89136008  0.82071711  1  -1.148075  0  -0.294635  -0.472279  0  2.325551  0
O  O129  1  0.27301809  0.60863995  0.82071761  1  -1.14807  0  -0.294676  -0.472315  0  2.325545  0
O  O130  1  0.39150092  0.72704385  0.67929328  1  -1.148157  0  -0.294815  -0.472502  0  2.32562  0
O  O131  1  0.10849860  0.77295722  0.67929179  1  -1.148128  0  -0.294767  -0.472453  0  2.325626  0
