# generated using pymatgen
data_CdH22C33N2O5
_symmetry_space_group_name_H-M   'P 1'
_cell_length_a   10.13997714
_cell_length_b   11.10754454
_cell_length_c   12.63489781
_cell_angle_alpha   104.03472204
_cell_angle_beta   105.49305849
_cell_angle_gamma   95.18612166
_symmetry_Int_Tables_number   1
_chemical_formula_structural   CdH22C33N2O5
_chemical_formula_sum   'Cd2 H44 C66 N4 O10'
_cell_volume   1311.97126339
_cell_formula_units_Z   2
loop_
 _symmetry_equiv_pos_site_id
 _symmetry_equiv_pos_as_xyz
  1  'x, y, z'
loop_
 _atom_site_type_symbol
 _atom_site_label
 _atom_site_symmetry_multiplicity
 _atom_site_fract_x
 _atom_site_fract_y
 _atom_site_fract_z
 _atom_site_occupancy
 _atom_site_hle17_bader_spin_density
 _atom_site_hle17_ddec_charge
 _atom_site_hle17_ddec_spin_density
 _atom_site_hle17_ddec_sum_bond_order
 _atom_site_hle17_magmom
 _atom_site_hse06_10hf_bader_spin_density
 _atom_site_hse06_10hf_ddec_charge
 _atom_site_hse06_10hf_ddec_spin_density
 _atom_site_hse06_10hf_ddec_sum_bond_order
 _atom_site_hse06_10hf_magmom
 _atom_site_hse06_bader_spin_density
 _atom_site_hse06_ddec_charge
 _atom_site_hse06_ddec_spin_density
 _atom_site_hse06_ddec_sum_bond_order
 _atom_site_hse06_magmom
 _atom_site_pbe_bader_spin_density
 _atom_site_pbe_cm5_charge
 _atom_site_pbe_ddec_charge
 _atom_site_pbe_ddec_spin_density
 _atom_site_pbe_ddec_sum_bond_order
 _atom_site_pbe_magmom
Cd  Cd0  1  0.57694750  0.86574527  0.51186996  1  0  1.160377  0  1.707001  0  0  0.967406  0  2.173953  0  0  1.029326  0  2.111719  0  0  0.770651  0.924109  0  2.215548  0
Cd  Cd1  1  0.42305388  0.13424732  0.48812489  1  0  1.160374  0  1.706949  0  0  0.967398  0  2.173927  0  0  1.029319  0  2.111699  0  0  0.770821  0.924304  0  2.215515  0
H  H2  1  0.36559132  0.67065511  0.15281648  1  0  0.098438  0  0.950419  0  0  0.109311  0  1.009965  0  0  0.113152  0  1.007664  0  0  0.100289  0.106646  0  1.011505  0
H  H3  1  0.63440392  0.32934314  0.84717983  1  0  0.098427  0  0.95035  0  0  0.109259  0  1.009946  0  0  0.113099  0  1.007647  0  0  0.100293  0.106632  0  1.011478  0
H  H4  1  0.20435957  0.52860768  0.96901398  1  0  0.082922  0  0.955057  0  0  0.095091  0  1.013732  0  0  0.097872  0  1.012305  0  0  0.097338  0.093127  0  1.014784  0
H  H5  1  0.79563532  0.47138869  0.03098660  1  0  0.082927  0  0.955121  0  0  0.095095  0  1.013792  0  0  0.097877  0  1.012363  0  0  0.097367  0.093161  0  1.014829  0
H  H6  1  0.96429892  0.57275826  0.89473302  1  0  0.108222  0  0.943532  0  0  0.120028  0  1.002111  0  0  0.123302  0  1.001012  0  0  0.104431  0.117716  0  1.003026  0
H  H7  1  0.03569460  0.42723623  0.10526608  1  0  0.108245  0  0.94341  0  0  0.120037  0  1.001996  0  0  0.123309  0  1.000898  0  0  0.104401  0.117732  0  1.002866  0
H  H8  1  0.05537698  0.90386343  0.18249978  1  0  0.116184  0  0.978095  0  0  0.122477  0  1.047785  0  0  0.126082  0  1.046166  0  0  0.104029  0.120052  0  1.0487  0
H  H9  1  0.94462168  0.09613670  0.81749688  1  0  0.1162  0  0.978028  0  0  0.122462  0  1.047745  0  0  0.126069  0  1.046126  0  0  0.10404  0.120058  0  1.048656  0
H  H10  1  0.88375455  0.94862805  0.03798823  1  0  0.060496  0  0.932044  0  0  0.074452  0  0.99621  0  0  0.074859  0  0.995707  0  0  0.101596  0.074259  0  0.996398  0
H  H11  1  0.11624717  0.05137208  0.96201541  1  0  0.060401  0  0.932036  0  0  0.074374  0  0.996215  0  0  0.074773  0  0.995706  0  0  0.1016  0.074183  0  0.99642  0
H  H12  1  0.82341671  0.87224519  0.12869572  1  0  0.056024  0  0.929552  0  0  0.069954  0  0.995555  0  0  0.069587  0  0.996246  0  0  0.100214  0.070369  0  0.995206  0
H  H13  1  0.17658501  0.12775495  0.87130792  1  0  0.056004  0  0.929532  0  0  0.069917  0  0.995588  0  0  0.06954  0  0.996279  0  0  0.100223  0.070324  0  0.995257  0
H  H14  1  0.71854496  0.03160876  0.92201321  1  0  0.087566  0  0.976825  0  0  0.096843  0  1.043973  0  0  0.098672  0  1.044429  0  0  0.096656  0.095523  0  1.043728  0
H  H15  1  0.28145847  0.96839514  0.07799081  1  0  0.087555  0  0.976698  0  0  0.096779  0  1.043913  0  0  0.098606  0  1.044374  0  0  0.096645  0.09547  0  1.043695  0
H  H16  1  0.47907150  0.03087005  0.81037089  1  0  0.092504  0  0.946149  0  0  0.105524  0  1.004728  0  0  0.107373  0  1.004584  0  0  0.102658  0.104262  0  1.004891  0
H  H17  1  0.52093382  0.96913290  0.18962859  1  0  0.092507  0  0.946185  0  0  0.105521  0  1.004769  0  0  0.10737  0  1.004625  0  0  0.102606  0.104198  0  1.004936  0
H  H18  1  0.34496360  0.68987638  0.88507838  1  0  0.080935  0  0.977083  0  0  0.09131  0  1.042465  0  0  0.093251  0  1.042839  0  0  0.093199  0.090066  0  1.042054  0
H  H19  1  0.65503763  0.31012657  0.11492101  1  0  0.080988  0  0.977064  0  0  0.091358  0  1.042444  0  0  0.0933  0  1.042815  0  0  0.093192  0.09008  0  1.042061  0
H  H20  1  0.58423308  0.69574507  0.00339981  1  0  0.083329  0  0.948905  0  0  0.097535  0  1.004858  0  0  0.100369  0  1.003555  0  0  0.096949  0.095545  0  1.005702  0
H  H21  1  0.41576542  0.30425977  0.99660414  1  0  0.083363  0  0.948948  0  0  0.097621  0  1.004844  0  0  0.100481  0  1.003512  0  0  0.097  0.095596  0  1.005743  0
H  H22  1  0.16920909  0.80068465  0.89666067  1  0  0.082575  0  0.997244  0  0  0.091156  0  1.066628  0  0  0.092802  0  1.067853  0  0  0.093535  0.089914  0  1.065943  0
H  H23  1  0.83079538  0.19931924  0.10333962  1  0  0.082567  0  0.997322  0  0  0.091144  0  1.066707  0  0  0.092791  0  1.067932  0  0  0.093525  0.089883  0  1.06604  0
H  H24  1  0.92282873  0.80093830  0.79810907  1  0  0.097628  0  0.945345  0  0  0.108461  0  1.003299  0  0  0.111691  0  1.00188  0  0  0.099466  0.106088  0  1.004422  0
H  H25  1  0.07717641  0.19906371  0.20189176  1  0  0.097618  0  0.945345  0  0  0.108478  0  1.003266  0  0  0.111707  0  1.001847  0  0  0.099422  0.106075  0  1.004389  0
H  H26  1  0.86209249  0.86829516  0.61851799  1  0  0.095552  0  0.978832  0  0  0.10372  0  1.046855  0  0  0.106849  0  1.044413  0  0  0.098496  0.101848  0  1.048183  0
H  H27  1  0.13790907  0.13170403  0.38148067  1  0  0.095489  0  0.97887  0  0  0.103665  0  1.046887  0  0  0.106795  0  1.044439  0  0  0.098479  0.101802  0  1.048212  0
H  H28  1  0.04786576  0.92204678  0.53504430  1  0  0.101789  0  0.948449  0  0  0.11289  0  1.00654  0  0  0.116242  0  1.004547  0  0  0.102907  0.110464  0  1.008123  0
H  H29  1  0.95213563  0.07795147  0.46495412  1  0  0.101806  0  0.948461  0  0  0.112946  0  1.0065  0  0  0.116297  0  1.004506  0  0  0.102891  0.110486  0  1.008096  0
H  H30  1  0.69646826  0.82267528  0.28111093  1  0  0.081777  0  0.943773  0  0  0.087606  0  1.011835  0  0  0.090164  0  1.009529  0  0  0.114708  0.085453  0  1.014107  0
H  H31  1  0.30352953  0.17732015  0.71888849  1  0  0.081813  0  0.943847  0  0  0.087625  0  1.011914  0  0  0.090184  0  1.009612  0  0  0.11474  0.085492  0  1.014174  0
H  H32  1  0.82590576  0.67904545  0.17496331  1  0  0.100687  0  0.973206  0  0  0.109004  0  1.037305  0  0  0.111777  0  1.037121  0  0  0.102839  0.106962  0  1.037653  0
H  H33  1  0.17409101  0.32094998  0.82503590  1  0  0.100799  0  0.973093  0  0  0.109061  0  1.03724  0  0  0.111834  0  1.037057  0  0  0.102865  0.107018  0  1.03758  0
H  H34  1  0.89611645  0.49297436  0.24326555  1  0  0.097666  0  0.940637  0  0  0.110858  0  0.999426  0  0  0.113179  0  0.998167  0  0  0.109148  0.109372  0  0.999931  0
H  H35  1  0.10388373  0.50702295  0.75673558  1  0  0.097651  0  0.940565  0  0  0.110846  0  0.999356  0  0  0.113168  0  0.998092  0  0  0.10911  0.109334  0  0.999861  0
H  H36  1  0.89685114  0.36654366  0.38220670  1  0  0.096234  0  0.976298  0  0  0.105008  0  1.041932  0  0  0.106324  0  1.044146  0  0  0.100847  0.104  0  1.040892  0
H  H37  1  0.10314734  0.63345554  0.61779525  1  0  0.096318  0  0.976245  0  0  0.105066  0  1.041906  0  0  0.106383  0  1.04412  0  0  0.100886  0.104063  0  1.040856  0
H  H38  1  0.82447939  0.33026436  0.54599798  1  0  0.104418  0  0.933321  0  0  0.118256  0  0.986962  0  0  0.120411  0  0.986844  0  0  0.108666  0.116898  0  0.986822  0
H  H39  1  0.17552199  0.66973389  0.45400282  1  0  0.104379  0  0.933344  0  0  0.118249  0  0.986959  0  0  0.120403  0  0.986842  0  0  0.108647  0.116895  0  0.986793  0
H  H40  1  0.70287581  0.39480901  0.69333026  1  0  0.107125  0  0.965359  0  0  0.115307  0  1.030301  0  0  0.118106  0  1.028586  0  0  0.10673  0.113261  0  1.031644  0
H  H41  1  0.29712454  0.60518924  0.30667190  1  0  0.10716  0  0.965332  0  0  0.115312  0  1.0303  0  0  0.118113  0  1.028584  0  0  0.106723  0.113266  0  1.031624  0
H  H42  1  0.58549124  0.55812994  0.79126037  1  0  0.099973  0  0.950636  0  0  0.111206  0  1.008788  0  0  0.113812  0  1.008767  0  0  0.104703  0.10925  0  1.009023  0
H  H43  1  0.41450946  0.44187019  0.20874147  1  0  0.100019  0  0.950633  0  0  0.111255  0  1.008777  0  0  0.11386  0  1.008759  0  0  0.104733  0.109317  0  1.008981  0
H  H44  1  0.54103661  0.74434276  0.71605500  1  0  0.086505  0  0.983305  0  0  0.091639  0  1.051583  0  0  0.093645  0  1.050642  0  0  0.114923  0.08987  0  1.053009  0
H  H45  1  0.45896716  0.25565737  0.28394750  1  0  0.086456  0  0.983315  0  0  0.091652  0  1.051545  0  0  0.09366  0  1.050605  0  0  0.114966  0.089917  0  1.052932  0
C  C46  1  0.31490455  0.87756109  0.28862582  1  0  0.662547  0  3.902799  0  0  0.610195  0  4.194887  0  0  0.645882  0  4.186494  0  0  0.207241  0.585967  0  4.199946  0
C  C47  1  0.68508460  0.12244845  0.71136603  1  0  0.66263  0  3.902847  0  0  0.61026  0  4.194951  0  0  0.64595  0  4.186558  0  0  0.207355  0.586073  0  4.2001  0
C  C48  1  0.21780201  0.79366208  0.17719264  1  0  -0.032638  0  3.768286  0  0  -0.005332  0  3.995715  0  0  -0.010091  0  4.016558  0  0  -0.01885  -0.00236  0  3.981863  0
C  C49  1  0.78219478  0.20633899  0.82280223  1  0  -0.032768  0  3.768439  0  0  -0.005488  0  3.995923  0  0  -0.010247  0  4.016765  0  0  -0.018871  -0.002509  0  3.982182  0
C  C50  1  0.26123317  0.68883577  0.11787267  1  0  -0.111583  0  3.768846  0  0  -0.138517  0  4.020594  0  0  -0.140159  0  4.040269  0  0  -0.102178  -0.137324  0  4.007162  0
C  C51  1  0.73876157  0.31116530  0.88212334  1  0  -0.111555  0  3.76882  0  0  -0.13845  0  4.020564  0  0  -0.140091  0  4.04024  0  0  -0.102125  -0.137212  0  4.007149  0
C  C52  1  0.17081459  0.61034455  0.01552620  1  0  -0.0605  0  3.822165  0  0  -0.072046  0  4.078579  0  0  -0.072196  0  4.09835  0  0  -0.096327  -0.071925  0  4.065005  0
C  C53  1  0.82917980  0.38965465  0.98447329  1  0  -0.060492  0  3.822315  0  0  -0.072033  0  4.078693  0  0  -0.072181  0  4.098462  0  0  -0.096308  -0.071901  0  4.065098  0
C  C54  1  0.03729024  0.63423532  0.97334070  1  0  -0.178322  0  3.756741  0  0  -0.202451  0  4.013812  0  0  -0.20648  0  4.032398  0  0  -0.103324  -0.199658  0  4.001373  0
C  C55  1  0.96270123  0.36575917  0.02665875  1  0  -0.178409  0  3.756844  0  0  -0.202532  0  4.013916  0  0  -0.206567  0  4.032511  0  0  -0.10329  -0.19968  0  4.001364  0
C  C56  1  0.99330756  0.73878834  0.03354702  1  0  0.259569  0  3.830492  0  0  0.253821  0  4.091111  0  0  0.263912  0  4.107296  0  0  0.076979  0.246595  0  4.080385  0
C  C57  1  0.00668632  0.26120803  0.96645097  1  0  0.259502  0  3.830869  0  0  0.253793  0  4.091399  0  0  0.263876  0  4.107588  0  0  0.076972  0.246573  0  4.080629  0
C  C58  1  0.08443412  0.82037736  0.13454537  1  0  -0.223033  0  3.734779  0  0  -0.251449  0  3.981132  0  0  -0.254918  0  3.9991  0  0  -0.108266  -0.249127  0  3.969073  0
C  C59  1  0.91556267  0.17962371  0.86545108  1  0  -0.222919  0  3.734729  0  0  -0.251303  0  3.981059  0  0  -0.254774  0  3.999031  0  0  -0.108155  -0.248924  0  3.969  0
C  C60  1  0.81478853  0.86652141  0.03851250  1  0  0.058027  0  3.647133  0  0  -0.00728  0  3.912337  0  0  0.001503  0  3.916413  0  0  -0.061647  -0.013475  0  3.909628  0
C  C61  1  0.18521166  0.13348155  0.96149142  1  0  0.058212  0  3.646963  0  0  -0.007169  0  3.912269  0  0  0.001644  0  3.916292  0  0  -0.06166  -0.013358  0  3.909591  0
C  C62  1  0.66834353  0.86417180  0.97056796  1  0  0.048961  0  3.7715  0  0  0.067878  0  4.011693  0  0  0.066834  0  4.03542  0  0  -0.01928  0.068749  0  3.995895  0
C  C63  1  0.33165905  0.13583304  0.02943529  1  0  0.048988  0  3.771445  0  0  0.067991  0  4.011552  0  0  0.066939  0  4.035278  0  0  -0.019213  0.068859  0  3.995769  0
C  C64  1  0.63637196  0.95715770  0.91509101  1  0  -0.0942  0  3.731569  0  0  -0.114876  0  3.980005  0  0  -0.117237  0  4.001983  0  0  -0.086  -0.113083  0  3.965114  0
C  C65  1  0.36363268  0.04284714  0.08491347  1  0  -0.094186  0  3.731488  0  0  -0.114843  0  3.979913  0  0  -0.117203  0  4.001891  0  0  -0.086008  -0.113111  0  3.965059  0
C  C66  1  0.50115189  0.95576179  0.85084364  1  0  -0.079435  0  3.715425  0  0  -0.101727  0  3.966645  0  0  -0.103346  0  3.987587  0  0  -0.082854  -0.10053  0  3.952391  0
C  C67  1  0.49885275  0.04424305  0.14915767  1  0  -0.079465  0  3.715501  0  0  -0.101751  0  3.966689  0  0  -0.103368  0  3.987627  0  0  -0.083047  -0.100648  0  3.95244  0
C  C68  1  0.39391189  0.85919864  0.83774000  1  0  0.055633  0  3.775304  0  0  0.069782  0  4.007304  0  0  0.069924  0  4.02987  0  0  -0.005394  0.069931  0  3.991959  0
C  C69  1  0.60609207  0.14080808  0.16226236  1  0  0.05566  0  3.775336  0  0  0.06984  0  4.007289  0  0  0.069983  0  4.029857  0  0  -0.005373  0.069977  0  3.991897  0
C  C70  1  0.42649571  0.76601206  0.89412480  1  0  -0.116686  0  3.752253  0  0  -0.133176  0  3.998047  0  0  -0.136002  0  4.020072  0  0  -0.093596  -0.131051  0  3.98294  0
C  C71  1  0.57350671  0.23399184  0.10587584  1  0  -0.116756  0  3.752329  0  0  -0.133251  0  3.998132  0  0  -0.13608  0  4.020165  0  0  -0.093713  -0.13122  0  3.983064  0
C  C72  1  0.56133513  0.76906133  0.96044437  1  0  -0.114514  0  3.775025  0  0  -0.13559  0  4.024662  0  0  -0.137723  0  4.045609  0  0  -0.096046  -0.13416  0  4.010231  0
C  C73  1  0.43866541  0.23094351  0.03955843  1  0  -0.114557  0  3.775156  0  0  -0.135699  0  4.024763  0  0  -0.137856  0  4.045708  0  0  -0.096192  -0.134355  0  4.010401  0
C  C74  1  0.24916968  0.85735261  0.77123604  1  0  0.036259  0  3.749324  0  0  0.04432  0  3.978267  0  0  0.045854  0  4.001265  0  0  -0.004324  0.043028  0  3.963147  0
C  C75  1  0.75083291  0.14265223  0.22876484  1  0  0.036219  0  3.749154  0  0  0.044272  0  3.978136  0  0  0.045786  0  4.001127  0  0  -0.004355  0.042984  0  3.963006  0
C  C76  1  0.14205790  0.82479911  0.81580897  1  0  -0.135981  0  3.77137  0  0  -0.154064  0  4.022819  0  0  -0.157498  0  4.044235  0  0  -0.098755  -0.151277  0  4.008014  0
C  C77  1  0.85794656  0.17520479  0.18419210  1  0  -0.13594  0  3.771515  0  0  -0.15401  0  4.022961  0  0  -0.157448  0  4.044386  0  0  -0.098747  -0.151241  0  4.008188  0
C  C78  1  0.00338931  0.82589598  0.76101492  1  0  -0.071605  0  3.766834  0  0  -0.086065  0  4.02057  0  0  -0.08638  0  4.039049  0  0  -0.096341  -0.085808  0  4.007589  0
C  C79  1  0.99661481  0.17410603  0.23898647  1  0  -0.071609  0  3.766897  0  0  -0.086083  0  4.020638  0  0  -0.086398  0  4.03912  0  0  -0.09628  -0.085775  0  4.007649  0
C  C80  1  0.96893107  0.86233555  0.66006242  1  0  -0.066868  0  3.767024  0  0  -0.083257  0  4.022225  0  0  -0.084618  0  4.041862  0  0  -0.096335  -0.082437  0  4.008481  0
C  C81  1  0.03107288  0.13766552  0.33993874  1  0  -0.06679  0  3.766969  0  0  -0.0832  0  4.022201  0  0  -0.084556  0  4.041831  0  0  -0.096296  -0.082388  0  4.008476  0
C  C82  1  0.07324127  0.89446183  0.61432292  1  0  -0.083193  0  3.744654  0  0  -0.104163  0  3.989261  0  0  -0.104499  0  4.00857  0  0  -0.090081  -0.103479  0  3.976163  0
C  C83  1  0.92676353  0.10553830  0.38567664  1  0  -0.083229  0  3.744529  0  0  -0.104193  0  3.989147  0  0  -0.104546  0  4.008438  0  0  -0.090069  -0.103484  0  3.976088  0
C  C84  1  0.21278554  0.89072721  0.66720558  1  0  -0.099429  0  3.701814  0  0  -0.079376  0  3.935002  0  0  -0.086101  0  3.955246  0  0  -0.014537  -0.075369  0  3.921935  0
C  C85  1  0.78721806  0.10927197  0.33279352  1  0  -0.099352  0  3.70174  0  0  -0.079379  0  3.935037  0  0  -0.086039  0  3.955199  0  0  -0.014513  -0.075384  0  3.922  0
C  C86  1  0.31394547  0.91739416  0.60342333  1  0  0.659516  0  3.931076  0  0  0.604603  0  4.232484  0  0  0.640763  0  4.223243  0  0  0.20566  0.580167  0  4.237787  0
C  C87  1  0.68605474  0.08260879  0.39657030  1  0  0.659461  0  3.931178  0  0  0.604609  0  4.232527  0  0  0.64075  0  4.223283  0  0  0.2057  0.5802  0  4.237846  0
C  C88  1  0.72693465  0.73975141  0.30653645  1  0  0.152972  0  3.698237  0  0  0.122523  0  3.952421  0  0  0.130539  0  3.969114  0  0  0.056342  0.117066  0  3.941719  0
C  C89  1  0.27306434  0.26024496  0.69346264  1  0  0.152903  0  3.698321  0  0  0.12248  0  3.952509  0  0  0.130494  0  3.969202  0  0  0.056267  0.116987  0  3.941803  0
C  C90  1  0.79986962  0.65935126  0.24801568  1  0  -0.142552  0  3.762781  0  0  -0.15407  0  4.013844  0  0  -0.161563  0  4.03589  0  0  -0.091981  -0.149163  0  3.999024  0
C  C91  1  0.20012835  0.34064511  0.75198398  1  0  -0.14261  0  3.762571  0  0  -0.154079  0  4.013637  0  0  -0.161571  0  4.035681  0  0  -0.091984  -0.149198  0  3.998812  0
C  C92  1  0.83887705  0.55727433  0.28579931  1  0  -0.051476  0  3.708027  0  0  -0.074297  0  3.952542  0  0  -0.071983  0  3.9712  0  0  -0.066621  -0.075387  0  3.939192  0
C  C93  1  0.16112313  0.44272298  0.71420182  1  0  -0.051465  0  3.707873  0  0  -0.074262  0  3.952388  0  0  -0.071946  0  3.971045  0  0  -0.066646  -0.075357  0  3.939036  0
C  C94  1  0.80389929  0.53515399  0.38110964  1  0  0.028556  0  3.791299  0  0  0.045945  0  4.019789  0  0  0.043545  0  4.044104  0  0  -0.000421  0.04717  0  4.003947  0
C  C95  1  0.19610072  0.46484238  0.61889205  1  0  0.028666  0  3.791254  0  0  0.045987  0  4.019813  0  0  0.043585  0  4.044129  0  0  -0.000339  0.0472  0  4.003996  0
C  C96  1  0.83948881  0.43089293  0.42423133  1  0  -0.099684  0  3.749279  0  0  -0.122364  0  4.004267  0  0  -0.125882  0  4.02832  0  0  -0.085232  -0.120194  0  3.990099  0
C  C97  1  0.16051034  0.56910439  0.57577117  1  0  -0.099938  0  3.749338  0  0  -0.122597  0  4.004405  0  0  -0.126117  0  4.028464  0  0  -0.085414  -0.120475  0  3.990265  0
C  C98  1  0.80048611  0.41141754  0.51485926  1  0  -0.075154  0  3.724006  0  0  -0.099863  0  3.979283  0  0  -0.101755  0  4.000516  0  0  -0.078208  -0.098522  0  3.965825  0
C  C99  1  0.19951407  0.58857978  0.48514346  1  0  -0.074978  0  3.723926  0  0  -0.099711  0  3.979187  0  0  -0.101605  0  4.000427  0  0  -0.078131  -0.098375  0  3.965723  0
C  C100  1  0.72687580  0.49656889  0.57133077  1  0  0.02913  0  3.782337  0  0  0.045619  0  4.013363  0  0  0.043003  0  4.037697  0  0  9.4e-05  0.047056  0  3.997312  0
C  C101  1  0.27312541  0.50342842  0.42867137  1  0  0.029046  0  3.782319  0  0  0.045517  0  4.01335  0  0  0.042898  0  4.037689  0  0  0.000154  0.046976  0  3.997347  0
C  C102  1  0.68474104  0.47895871  0.66518885  1  0  -0.047986  0  3.67508  0  0  -0.071328  0  3.923303  0  0  -0.069254  0  3.941061  0  0  -0.063731  -0.07286  0  3.911464  0
C  C103  1  0.31525948  0.52104049  0.33481355  1  0  -0.047917  0  3.675124  0  0  -0.071219  0  3.923327  0  0  -0.069141  0  3.941074  0  0  -0.063683  -0.072731  0  3.911486  0
C  C104  1  0.61845637  0.56753507  0.71805813  1  0  -0.109882  0  3.733294  0  0  -0.127343  0  3.993919  0  0  -0.13387  0  4.014538  0  0  -0.083381  -0.123012  0  3.980608  0
C  C105  1  0.38154536  0.43246507  0.28194472  1  0  -0.110042  0  3.733431  0  0  -0.127514  0  3.994082  0  0  -0.134042  0  4.014704  0  0  -0.083416  -0.123144  0  3.98072  0
C  C106  1  0.59333701  0.67273148  0.67690123  1  0  0.157606  0  3.664357  0  0  0.124812  0  3.919186  0  0  0.134189  0  3.935203  0  0  0.058022  0.118022  0  3.90985  0
C  C107  1  0.40666574  0.32726865  0.32310105  1  0  0.157686  0  3.664367  0  0  0.124818  0  3.919197  0  0  0.134198  0  3.935204  0  0  0.05799  0.118023  0  3.909807  0
C  C108  1  0.69382928  0.60374577  0.53346362  1  0  0.12663  0  3.76624  0  0  0.119451  0  4.004453  0  0  0.123361  0  4.028273  0  0  0.117139  0.117403  0  3.988084  0
C  C109  1  0.30617209  0.39625249  0.46653876  1  0  0.126722  0  3.766141  0  0  0.119541  0  4.00432  0  0  0.123452  0  4.028138  0  0  0.117167  0.117476  0  3.987993  0
C  C110  1  0.73039413  0.62193772  0.43475640  1  0  0.127199  0  3.767188  0  0  0.121262  0  4.005307  0  0  0.125082  0  4.02842  0  0  0.118862  0.118625  0  3.989404  0
C  C111  1  0.26960725  0.37806053  0.56524519  1  0  0.127193  0  3.767197  0  0  0.121299  0  4.00529  0  0  0.12512  0  4.028402  0  0  0.11888  0.118689  0  3.989408  0
N  N112  1  0.62881177  0.68956850  0.58670616  1  0  -0.352352  0  3.223507  0  0  -0.283079  0  3.485738  0  0  -0.303184  0  3.50384  0  0  -0.316626  -0.269813  0  3.473465  0
N  N113  1  0.37119081  0.31043069  0.41329589  1  0  -0.352418  0  3.223484  0  0  -0.283114  0  3.485719  0  0  -0.303219  0  3.503819  0  0  -0.316686  -0.269887  0  3.473461  0
N  N114  1  0.69378088  0.72172359  0.39710305  1  0  -0.338467  0  3.214854  0  0  -0.275637  0  3.475262  0  0  -0.293621  0  3.493346  0  0  -0.311594  -0.263129  0  3.462621  0
N  N115  1  0.30621948  0.27827466  0.60289832  1  0  -0.338518  0  3.214959  0  0  -0.275711  0  3.475375  0  0  -0.293692  0  3.493455  0  0  -0.311636  -0.263217  0  3.462767  0
O  O116  1  0.40813248  0.82525056  0.34093911  1  0  -0.664123  0  2.055438  0  0  -0.600123  0  2.321095  0  0  -0.629334  0  2.307557  0  0  -0.333895  -0.579866  0  2.329593  0
O  O117  1  0.59185783  0.17475429  0.65905991  1  0  -0.664034  0  2.05574  0  0  -0.600046  0  2.321437  0  0  -0.629254  0  2.3079  0  0  -0.333847  -0.579758  0  2.329947  0
O  O118  1  0.29526627  0.99039886  0.31851399  1  0  -0.627932  0  2.025088  0  0  -0.561292  0  2.277506  0  0  -0.590854  0  2.267148  0  0  -0.321831  -0.540709  0  2.28366  0
O  O119  1  0.70473243  0.00960690  0.68147278  1  0  -0.628011  0  2.024968  0  0  -0.561333  0  2.277348  0  0  -0.590899  0  2.26699  0  0  -0.321866  -0.540738  0  2.283525  0
O  O120  1  0.85890613  0.75222843  0.98696761  1  0  -0.302591  0  2.309475  0  0  -0.234535  0  2.548221  0  0  -0.252302  0  2.55078  0  0  -0.188021  -0.221911  0  2.546411  0
O  O121  1  0.14108621  0.24777076  0.01303144  1  0  -0.302618  0  2.309767  0  0  -0.234548  0  2.548515  0  0  -0.252309  0  2.551052  0  0  -0.18809  -0.221973  0  2.546702  0
O  O122  1  0.40449840  0.84643383  0.59713134  1  0  -0.642503  0  2.081137  0  0  -0.577397  0  2.343821  0  0  -0.607689  0  2.33499  0  0  -0.319265  -0.556139  0  2.349066  0
O  O123  1  0.59550810  0.15356441  0.40286582  1  0  -0.642477  0  2.08129  0  0  -0.577429  0  2.344009  0  0  -0.607751  0  2.335251  0  0  -0.319318  -0.556211  0  2.349285  0
O  O124  1  0.29416554  0.00664916  0.55779392  1  0  -0.658855  0  2.077265  0  0  -0.594542  0  2.33662  0  0  -0.624684  0  2.325772  0  0  -0.330352  -0.573049  0  2.343214  0
O  O125  1  0.70583208  0.99334532  0.44220448  1  0  -0.658885  0  2.076957  0  0  -0.594596  0  2.33632  0  0  -0.62473  0  2.325463  0  0  -0.330411  -0.573062  0  2.342901  0
