# generated using pymatgen
data_CuH6C4N3O2
_symmetry_space_group_name_H-M   'P 1'
_cell_length_a   6.69180919
_cell_length_b   7.26530166
_cell_length_c   15.74716036
_cell_angle_alpha   81.08189825
_cell_angle_beta   77.75905298
_cell_angle_gamma   62.59923617
_symmetry_Int_Tables_number   1
_chemical_formula_structural   CuH6C4N3O2
_chemical_formula_sum   'Cu4 H24 C16 N12 O8'
_cell_volume   662.79195257
_cell_formula_units_Z   4
loop_
 _symmetry_equiv_pos_site_id
 _symmetry_equiv_pos_as_xyz
  1  'x, y, z'
loop_
 _atom_site_type_symbol
 _atom_site_label
 _atom_site_symmetry_multiplicity
 _atom_site_fract_x
 _atom_site_fract_y
 _atom_site_fract_z
 _atom_site_occupancy
 _atom_site_hle17_ddec_charge
 _atom_site_hle17_ddec_spin_density
 _atom_site_hle17_ddec_sum_bond_order
 _atom_site_hle17_magmom
 _atom_site_hse06_10hf_ddec_charge
 _atom_site_hse06_10hf_ddec_spin_density
 _atom_site_hse06_10hf_ddec_sum_bond_order
 _atom_site_hse06_10hf_magmom
 _atom_site_hse06_ddec_charge
 _atom_site_hse06_ddec_spin_density
 _atom_site_hse06_ddec_sum_bond_order
 _atom_site_hse06_magmom
 _atom_site_pbe_cm5_charge
 _atom_site_pbe_ddec_charge
 _atom_site_pbe_ddec_spin_density
 _atom_site_pbe_ddec_sum_bond_order
 _atom_site_pbe_magmom
Cu  Cu0  1  0.82554289  0.41132332  0.49373551  1  0.811486  -0.579693  1.937363  -0.408  0.777855  -0.727444  2.373363  -0.557  0.868702  -0.829151  2.296135  -0.654  0.747646  0.718756  -0.551869  2.426837  -0.418
Cu  Cu1  1  0.26956699  0.91135435  0.99366129  1  0.812479  -0.579973  1.936302  -0.408  0.778426  -0.727738  2.372622  -0.557  0.86943  -0.829455  2.295066  -0.654  0.747782  0.719283  -0.552082  2.426173  -0.418
Cu  Cu2  1  0.17445797  0.58866564  0.50625618  1  0.811525  0.579743  1.937333  0.408  0.777881  0.727459  2.373303  0.557  0.868707  0.829163  2.296047  0.654  0.747635  0.718734  0.551931  2.426807  0.418
Cu  Cu3  1  0.73045207  0.08863644  0.00633718  1  0.812346  0.579965  1.936492  0.408  0.778287  0.727731  2.37285  0.557  0.869314  0.82946  2.295308  0.654  0.747775  0.719147  0.552075  2.42639  0.418
H  H4  1  0.98195039  0.78496499  0.71097649  1  0.064683  0.000329  0.917541  0.001  0.08429  0.000216  0.973409  0.0  0.083502  0.000226  0.974111  0.0  0.104755  0.084901  0.000172  0.972939  0.0
H  H5  1  0.52216773  0.28519155  0.21109226  1  0.064334  0.000329  0.917098  0.001  0.08381  0.000218  0.973279  0.0  0.083046  0.000227  0.973888  0.0  0.10461  0.084431  0.000173  0.972806  0.0
H  H6  1  0.01802657  0.21506307  0.28902032  1  0.064565  -0.00033  0.917563  -0.001  0.0843  -0.000216  0.973378  0.0  0.083506  -0.000226  0.974081  0.0  0.104766  0.084912  -0.000172  0.972885  0.0
H  H7  1  0.47781599  0.71479052  0.78892138  1  0.064411  -0.000333  0.91707  -0.001  0.083893  -0.000217  0.973276  0.0  0.083129  -0.000228  0.973884  0.0  0.104633  0.084519  -0.000173  0.972811  0.0
H  H8  1  0.23121663  0.82309957  0.69100330  1  0.071847  0.002171  0.923733  0.003  0.086827  0.001303  0.984562  0.002  0.08619  0.001067  0.984481  0.001  0.106477  0.087503  0.001115  0.984382  0.001
H  H9  1  0.25496614  0.32316988  0.19099777  1  0.071888  0.002166  0.923433  0.003  0.087149  0.001302  0.984074  0.002  0.086499  0.001066  0.98398  0.001  0.106702  0.087794  0.001114  0.983944  0.001
H  H10  1  0.76875632  0.17690670  0.30899348  1  0.07188  -0.002172  0.923755  -0.003  0.086887  -0.001304  0.984613  -0.002  0.086254  -0.001067  0.984529  -0.001  0.106495  0.087557  -0.001116  0.984418  -0.001
H  H11  1  0.74506151  0.67679021  0.80901094  1  0.071922  -0.002171  0.923588  -0.003  0.087243  -0.001302  0.984142  -0.002  0.086594  -0.001066  0.984046  -0.001  0.106727  0.087896  -0.001114  0.984012  -0.001
H  H12  1  0.47618608  0.47146947  0.65114739  1  0.074528  0.000356  0.947514  0.001  0.088104  0.000248  1.01493  0.0  0.087553  0.000185  1.014796  0.0  0.103482  0.087807  0.000237  1.015867  0.0
H  H13  1  0.40148083  0.97134237  0.15125921  1  0.074843  0.000355  0.947939  0.001  0.088223  0.000247  1.015445  0.0  0.087669  0.000184  1.015333  0.0  0.103745  0.087978  0.000236  1.016285  0.0
H  H14  1  0.52379849  0.52854634  0.34885422  1  0.074584  -0.000355  0.947739  -0.001  0.088171  -0.000248  1.015119  0.0  0.087613  -0.000185  1.014979  0.0  0.103531  0.087873  -0.000236  1.016052  0.0
H  H15  1  0.59854204  0.02863162  0.84874711  1  0.074849  -0.000354  0.948085  -0.001  0.088244  -0.000247  1.015574  0.0  0.08769  -0.000184  1.015465  0.0  0.103747  0.088006  -0.000236  1.016413  0.0
H  H16  1  0.28397693  0.44508311  0.74386863  1  0.069887  0.003497  0.947537  0.005  0.084789  0.002559  1.008225  0.004  0.085194  0.00189  1.007871  0.003  0.101303  0.084051  0.002465  1.008898  0.004
H  H17  1  0.52732469  0.94524279  0.24400296  1  0.069234  0.003495  0.947824  0.005  0.084427  0.002558  1.008389  0.004  0.084795  0.001889  1.008034  0.003  0.101137  0.083762  0.002463  1.008978  0.004
H  H18  1  0.71601735  0.55493542  0.25612351  1  0.069799  -0.0035  0.947489  -0.005  0.084705  -0.00256  1.008224  -0.004  0.08507  -0.001891  1.00792  -0.003  0.101219  0.083962  -0.002467  1.008898  -0.004
H  H19  1  0.47268687  0.05473257  0.75599873  1  0.069224  -0.003495  0.947916  -0.005  0.084427  -0.002558  1.008479  -0.004  0.084796  -0.00189  1.008125  -0.003  0.101165  0.083768  -0.002464  1.009074  -0.004
H  H20  1  0.07169265  0.41080703  0.64280175  1  0.306959  -0.000518  0.879547  -0.002  0.302637  0.000792  0.926874  0.0  0.30892  0.000413  0.924357  -0.001  0.300187  0.297792  0.000896  0.929674  0.0
H  H21  1  0.87466791  0.91128805  0.14297201  1  0.306093  -0.000507  0.879896  -0.002  0.302622  0.000795  0.926217  0.0  0.308885  0.000415  0.923718  -0.001  0.299736  0.297783  0.000899  0.928996  0.0
H  H22  1  0.92829233  0.58920376  0.35719142  1  0.306988  0.00052  0.879396  0.002  0.302685  -0.000791  0.926721  0.0  0.308965  -0.000412  0.924207  0.001  0.3002  0.297838  -0.000895  0.929511  0.0
H  H23  1  0.12534746  0.08868600  0.85703565  1  0.306092  0.000508  0.87991  0.002  0.302579  -0.000795  0.926267  0.0  0.308862  -0.000415  0.923738  0.001  0.299769  0.297728  -0.000899  0.929068  0.0
H  H24  1  0.34414410  0.25588394  0.61007683  1  0.316175  -0.000633  0.925028  -0.002  0.302981  0.000439  0.987217  -0.001  0.309514  0.000197  0.984307  -0.001  0.297136  0.298372  0.000495  0.989715  0.0
H  H25  1  0.79009082  0.75592672  0.11028789  1  0.316438  -0.000631  0.924283  -0.002  0.303135  0.000443  0.986618  -0.001  0.309637  0.000201  0.983755  -0.001  0.297326  0.298535  0.000498  0.989095  0.0
H  H26  1  0.65585068  0.74413018  0.38992160  1  0.316152  0.000634  0.925094  0.002  0.302962  -0.00044  0.987284  0.001  0.309493  -0.000197  0.984379  0.001  0.297152  0.298347  -0.000495  0.989782  0.0
H  H27  1  0.20992108  0.24406119  0.88971611  1  0.316178  0.00063  0.924306  0.002  0.302933  -0.000444  0.986583  0.001  0.309431  -0.000201  0.983734  0.001  0.297248  0.298336  -0.000498  0.989059  0.0
C  C28  1  0.98247316  0.00611797  0.45351742  1  0.404957  0.001895  3.948831  0.001  0.369509  -0.000206  4.241452  0.0  0.399014  0.000786  4.24918  0.001  0.209433  0.347278  -0.000678  4.238014  -0.001
C  C29  1  0.55773770  0.50607932  0.95350814  1  0.406673  0.001904  3.944526  0.001  0.371061  -0.000202  4.236994  0.0  0.40057  0.000789  4.244699  0.001  0.209709  0.348823  -0.000678  4.2336  -0.001
C  C30  1  0.01752965  0.99386822  0.54648282  1  0.405186  -0.001901  3.948479  -0.001  0.36972  0.000206  4.241045  0.0  0.399222  -0.000782  4.248769  -0.001  0.209512  0.347492  0.000684  4.237614  0.001
C  C31  1  0.44227214  0.49390592  0.04650681  1  0.406498  -0.00189  3.944969  -0.001  0.370811  0.000203  4.237531  0.0  0.400316  -0.000787  4.245244  -0.001  0.209672  0.348571  0.000682  4.234129  0.001
C  C32  1  0.14967440  0.74145197  0.66905689  1  0.035911  0.000665  3.663669  -0.001  -0.013797  0.001336  3.929941  0.0  -0.006076  0.000775  3.943361  -0.001  -0.064451  -0.019138  0.001375  3.920479  0.0
C  C33  1  0.44003319  0.24147993  0.16914067  1  0.037259  0.000679  3.660974  -0.001  -0.013026  0.001338  3.927575  0.0  -0.005226  0.000776  3.940804  -0.001  -0.064574  -0.0184  0.001377  3.918179  0.0
C  C34  1  0.85030234  0.25856952  0.33093140  1  0.035861  -0.000667  3.662908  0.001  -0.014033  -0.001338  3.929561  0.0  -0.006318  -0.000777  3.943003  0.001  -0.064553  -0.019344  -0.001377  3.920028  0.0
C  C35  1  0.55998400  0.75850941  0.83086039  1  0.03698  -0.000664  3.661059  0.001  -0.013389  -0.00134  3.927716  0.0  -0.005594  -0.000777  3.940947  0.001  -0.064662  -0.018766  -0.001378  3.918346  0.0
C  C36  1  0.29712381  0.50631866  0.67571971  1  0.040084  -0.000492  3.621708  -0.003  -0.017089  0.002167  3.894447  0.0  -0.01135  0.001205  3.907264  -0.001  -0.078551  -0.020455  0.002386  3.886616  0.0
C  C37  1  0.52107594  0.00630149  0.17579690  1  0.040513  -0.000494  3.619773  -0.003  -0.016743  0.002166  3.8929  0.0  -0.010984  0.001205  3.905693  -0.001  -0.078559  -0.02018  0.002386  3.885087  0.0
C  C38  1  0.70283739  0.49371106  0.32427971  1  0.040217  0.000497  3.62188  0.003  -0.016976  -0.002166  3.894827  0.0  -0.011201  -0.001204  3.90764  0.001  -0.078507  -0.020363  -0.002386  3.886978  0.0
C  C39  1  0.47893205  0.99370046  0.82420831  1  0.04061  0.000489  3.620031  0.003  -0.016701  -0.002167  3.893198  0.0  -0.010945  -0.001205  3.905995  0.001  -0.078558  -0.020147  -0.002385  3.885412  0.0
C  C40  1  0.35686576  0.20435044  0.41142620  1  0.643485  0.005556  4.055499  0.005  0.606864  0.006848  4.351068  0.008  0.646632  0.005971  4.350619  0.007  0.278668  0.579596  0.006293  4.351665  0.007
C  C41  1  0.02668856  0.70433358  0.91142759  1  0.644151  0.005503  4.055481  0.005  0.608199  0.006832  4.350513  0.008  0.647947  0.005954  4.350042  0.007  0.279279  0.580936  0.006278  4.351127  0.007
C  C42  1  0.64314309  0.79565270  0.58857001  1  0.643205  -0.005539  4.055707  -0.005  0.606606  -0.006846  4.351266  -0.008  0.646366  -0.005969  4.350826  -0.007  0.278572  0.579351  -0.006292  4.351848  -0.007
C  C43  1  0.97333588  0.29567418  0.08856748  1  0.64442  -0.005529  4.05616  -0.005  0.608474  -0.006817  4.351104  -0.008  0.648213  -0.005945  4.350631  -0.007  0.279369  0.581212  -0.006268  4.35172  -0.007
N  N44  1  0.88263923  0.19776700  0.42115777  1  -0.452143  -0.089729  3.307292  -0.11  -0.414983  -0.063244  3.630774  -0.081  -0.46241  -0.056947  3.654467  -0.076  -0.412577  -0.38146  -0.052064  3.614949  -0.065
N  N45  1  0.49826678  0.69770448  0.92109152  1  -0.454592  -0.08975  3.308254  -0.11  -0.416604  -0.063227  3.631383  -0.081  -0.464122  -0.056926  3.654991  -0.076  -0.412931  -0.383045  -0.052039  3.615617  -0.065
N  N46  1  0.11735142  0.80223912  0.57883522  1  -0.452333  0.089692  3.308114  0.11  -0.415103  0.063225  3.631403  0.081  -0.462504  0.056925  3.655055  0.076  -0.41262  -0.381576  0.052035  3.615587  0.065
N  N47  1  0.50174158  0.30228655  0.07891286  1  -0.454509  0.089702  3.308474  0.11  -0.416523  0.06321  3.631554  0.081  -0.464039  0.056907  3.655185  0.076  -0.412917  -0.382962  0.052021  3.615773  0.065
N  N48  1  0.22833030  0.40766315  0.61930927  1  -0.590805  0.107452  3.133985  0.13  -0.568836  0.083245  3.410596  0.105  -0.60516  0.07208  3.415941  0.096  -0.630496  -0.547876  0.072296  3.409857  0.088
N  N49  1  0.74483911  0.90780820  0.11942417  1  -0.590869  0.107141  3.13155  0.129  -0.569356  0.083088  3.407827  0.105  -0.605672  0.071949  3.413201  0.096  -0.630296  -0.548408  0.072151  3.407101  0.088
N  N50  1  0.77164769  0.59234756  0.38068179  1  -0.590823  -0.10745  3.134083  -0.13  -0.568913  -0.08324  3.410808  -0.105  -0.605244  -0.072075  3.416158  -0.096  -0.630519  -0.547928  -0.072306  3.410042  -0.088
N  N51  1  0.25517636  0.09217340  0.88057801  1  -0.590582  -0.107127  3.131524  -0.129  -0.569015  -0.083081  3.407731  -0.105  -0.605342  -0.071946  3.413076  -0.096  -0.630229  -0.548054  -0.072144  3.407034  -0.088
N  N52  1  0.73533816  0.61547849  0.57404443  1  -0.784901  -0.031922  3.05916  -0.036  -0.76218  -0.024681  3.408423  -0.027  -0.801202  -0.021869  3.396078  -0.025  -0.504243  -0.737231  -0.021771  3.418645  -0.024
N  N53  1  0.07559446  0.11559509  0.07392784  1  -0.785656  -0.031883  3.059749  -0.036  -0.762977  -0.024702  3.408706  -0.027  -0.802061  -0.021896  3.396359  -0.025  -0.504441  -0.738031  -0.021777  3.418948  -0.024
N  N54  1  0.26466414  0.38451851  0.42595382  1  -0.78504  0.031918  3.059415  0.036  -0.762328  0.024688  3.408712  0.027  -0.801342  0.021876  3.39634  0.025  -0.504324  -0.737369  0.021777  3.418931  0.024
N  N55  1  0.92439211  0.88443935  0.92607285  1  -0.785374  0.031925  3.059176  0.036  -0.762647  0.024698  3.408112  0.027  -0.801768  0.021897  3.395849  0.025  -0.504376  -0.737694  0.021776  3.418342  0.024
O  O56  1  0.04789796  0.83824387  0.41652678  1  -0.514648  0.052301  1.994792  0.068  -0.48869  0.049391  2.254593  0.069  -0.530141  0.043041  2.248142  0.064  -0.307919  -0.455665  0.041947  2.257678  0.057
O  O57  1  0.69683488  0.33810301  0.91655529  1  -0.515441  0.052392  1.992469  0.068  -0.48945  0.04944  2.252415  0.069  -0.530964  0.04308  2.245936  0.064  -0.308098  -0.456408  0.041984  2.255535  0.057
O  O58  1  0.95207843  0.16177787  0.58346778  1  -0.514793  -0.052316  1.994293  -0.068  -0.488807  -0.0494  2.254053  -0.069  -0.530271  -0.043054  2.247606  -0.064  -0.307968  -0.455784  -0.041969  2.257154  -0.057
O  O59  1  0.30317590  0.66188828  0.08345564  1  -0.515413  -0.052396  1.992617  -0.068  -0.489382  -0.049436  2.252553  -0.069  -0.530894  -0.043075  2.246066  -0.064  -0.308013  -0.456335  -0.041993  2.255668  -0.057
O  O60  1  0.44407915  0.02622527  0.39200639  1  -0.497394  0.009326  2.048096  0.012  -0.438054  0.00592  2.244079  0.008  -0.458674  0.004283  2.234545  0.006  -0.25068  -0.423988  0.006084  2.250542  0.008
O  O61  1  0.13703798  0.52623713  0.89193444  1  -0.497351  0.009288  2.047391  0.012  -0.439029  0.005886  2.243907  0.008  -0.459531  0.004255  2.234248  0.006  -0.251258  -0.425021  0.006052  2.250475  0.008
O  O62  1  0.55592392  0.97376859  0.60799120  1  -0.497224  -0.009319  2.048362  -0.012  -0.437929  -0.005916  2.244376  -0.008  -0.458544  -0.004281  2.234843  -0.006  -0.250638  -0.423851  -0.006081  2.250818  -0.008
O  O63  1  0.86295777  0.47376494  0.10807371  1  -0.497507  -0.009286  2.047348  -0.012  -0.43916  -0.005883  2.243854  -0.008  -0.45966  -0.004253  2.234192  -0.006  -0.251338  -0.425147  -0.00605  2.250411  -0.008
