# generated using pymatgen
data_ZnH22C26S2(NO2)2
_symmetry_space_group_name_H-M   'P 1'
_cell_length_a   5.88294873
_cell_length_b   13.79629441
_cell_length_c   18.73834946
_cell_angle_alpha   106.52602295
_cell_angle_beta   90.00189031
_cell_angle_gamma   89.99997687
_symmetry_Int_Tables_number   1
_chemical_formula_structural   ZnH22C26S2(NO2)2
_chemical_formula_sum   'Zn2 H44 C52 S4 N4 O8'
_cell_volume   1458.03294634
_cell_formula_units_Z   2
loop_
 _symmetry_equiv_pos_site_id
 _symmetry_equiv_pos_as_xyz
  1  'x, y, z'
loop_
 _atom_site_type_symbol
 _atom_site_label
 _atom_site_symmetry_multiplicity
 _atom_site_fract_x
 _atom_site_fract_y
 _atom_site_fract_z
 _atom_site_occupancy
 _atom_site_pbe_bader_charge
 _atom_site_pbe_bader_spin_density
 _atom_site_pbe_cm5_charge
 _atom_site_pbe_ddec_charge
 _atom_site_pbe_ddec_spin_density
 _atom_site_pbe_ddec_sum_bond_order
 _atom_site_pbe_magmom
Zn  Zn0  1  0.64851664  0.24997620  0.24999109  1  1.249683  0  0.693779  0.768158  0  2.355488  0
Zn  Zn1  1  0.35146327  0.75000798  0.74999535  1  1.249289  0  0.693659  0.767881  0  2.355967  0
H  H2  1  0.92840138  0.06334026  0.29223796  1  0.136461  0  0.105449  0.123766  0  1.026515  0
H  H3  1  0.92848720  0.43668101  0.20777497  1  0.136638  0  0.105452  0.123796  0  1.026642  0
H  H4  1  0.07150204  0.93672409  0.70779458  1  0.136947  0  0.105466  0.123785  0  1.026699  0
H  H5  1  0.07152841  0.56333418  0.79222969  1  0.136401  0  0.105483  0.123789  0  1.02656  0
H  H6  1  0.30002819  0.22271517  0.49162207  1  0.053184  0  0.108498  0.11631  0  1.000774  0
H  H7  1  0.29995838  0.27727404  0.00837267  1  0.052969  0  0.108557  0.116363  0  1.000768  0
H  H8  1  0.70014550  0.77721460  0.50838554  1  0.053336  0  0.10844  0.11624  0  1.000823  0
H  H9  1  0.69996203  0.72271393  0.99161723  1  0.05332  0  0.108491  0.11633  0  1.00082  0
H  H10  1  0.74837623  0.94354522  0.04890636  1  0.02443  0  0.091852  0.072197  0  0.982787  0
H  H11  1  0.74842707  0.55640811  0.45105175  1  0.024826  0  0.091883  0.072248  0  0.98287  0
H  H12  1  0.25156968  0.05647904  0.95109699  1  0.024075  0  0.091886  0.072231  0  0.982791  0
H  H13  1  0.25155793  0.44355037  0.54892450  1  0.024577  0  0.091867  0.072322  0  0.982836  0
H  H14  1  0.58181486  0.26983107  0.40866551  1  0.145134  0  0.114337  0.08248  0  1.057919  0
H  H15  1  0.58175133  0.23012795  0.09131575  1  0.144289  0  0.114398  0.08251  0  1.057868  0
H  H16  1  0.41831123  0.73009492  0.59132850  1  0.144031  0  0.114326  0.082531  0  1.057761  0
H  H17  1  0.41816398  0.76983657  0.90866231  1  0.144904  0  0.114262  0.082451  0  1.057959  0
H  H18  1  0.63296346  0.09205344  0.00665684  1  0.024561  0  0.086513  0.080608  0  1.002306  0
H  H19  1  0.63299356  0.40791252  0.49331836  1  0.024079  0  0.086584  0.080591  0  1.002327  0
H  H20  1  0.36700285  0.90793678  0.99332338  1  0.024304  0  0.086541  0.080556  0  1.00235  0
H  H21  1  0.36699994  0.59206335  0.50667380  1  0.024253  0  0.086546  0.080522  0  1.002363  0
H  H22  1  0.90637381  0.14609334  0.02959525  1  0.017012  0  0.084082  0.080462  0  1.01986  0
H  H23  1  0.90642463  0.35388779  0.47041030  1  0.016485  0  0.084133  0.080491  0  1.020012  0
H  H24  1  0.09358059  0.85391199  0.97037532  1  0.017182  0  0.084132  0.080426  0  1.020101  0
H  H25  1  0.09356377  0.64608506  0.52958711  1  0.017021  0  0.084073  0.080439  0  1.020047  0
H  H26  1  0.87382494  0.06151719  0.89309046  1  0.01068  0  0.089512  0.088205  0  0.97797  0
H  H27  1  0.87381802  0.43848450  0.60690378  1  0.010862  0  0.089497  0.08816  0  0.977976  0
H  H28  1  0.12609037  0.93844430  0.10688216  1  0.010163  0  0.089446  0.088064  0  0.978046  0
H  H29  1  0.12617038  0.56148911  0.39308952  1  0.011107  0  0.08956  0.08824  0  0.978042  0
H  H30  1  0.79611904  0.94666550  0.91075509  1  -0.000642  0  0.087035  0.084416  0  0.99469  0
H  H31  1  0.79605373  0.55332376  0.58922680  1  -3.5e-05  0  0.087036  0.084371  0  0.994592  0
H  H32  1  0.20389486  0.05330358  0.08925006  1  -0.000391  0  0.087134  0.084487  0  0.994487  0
H  H33  1  0.20395508  0.44665363  0.41076781  1  0.000165  0  0.087009  0.084437  0  0.994353  0
H  H34  1  0.99012165  0.21134306  0.55677384  1  0.083775  0  0.113581  0.129209  0  0.98499  0
H  H35  1  0.99016145  0.28872624  0.94322667  1  0.084696  0  0.113648  0.129034  0  0.985056  0
H  H36  1  0.00988036  0.78869784  0.44324633  1  0.084544  0  0.113634  0.129259  0  0.985056  0
H  H37  1  0.00989664  0.71135470  0.05676343  1  0.084073  0  0.113618  0.129228  0  0.985021  0
H  H38  1  0.65437020  0.12695993  0.60903133  1  0.073677  0  0.109472  0.129817  0  0.983768  0
H  H39  1  0.65436871  0.37310767  0.89098303  1  0.072407  0  0.109501  0.129969  0  0.983679  0
H  H40  1  0.34566240  0.87307797  0.39100155  1  0.07286  0  0.109442  0.129861  0  0.983824  0
H  H41  1  0.34569279  0.62698689  0.10901793  1  0.074048  0  0.109564  0.129925  0  0.983687  0
H  H42  1  0.23106883  0.11491833  0.21931284  1  0.078212  0  0.120094  0.090993  0  1.004835  0
H  H43  1  0.23116030  0.38507144  0.28068510  1  0.078204  0  0.120088  0.091077  0  1.004907  0
H  H44  1  0.76879889  0.88513164  0.78070229  1  0.077982  0  0.120165  0.090931  0  1.005119  0
H  H45  1  0.76883831  0.61490670  0.71930594  1  0.077939  0  0.120022  0.090951  0  1.004966  0
C  C46  1  0.07219278  0.10739451  0.32137353  1  -0.014391  0  -0.083816  -0.173811  0  3.89643  0
C  C47  1  0.07224333  0.39261371  0.17863277  1  -0.014375  0  -0.083818  -0.173754  0  3.896661  0
C  C48  1  0.92776333  0.89263733  0.67865221  1  -0.015474  0  -0.083902  -0.173855  0  3.896777  0
C  C49  1  0.92774847  0.60739014  0.82136471  1  -0.0141  0  -0.083798  -0.17373  0  3.896408  0
C  C50  1  0.27427048  0.19811840  0.43162707  1  0.027024  0  -0.087193  -0.178505  0  3.965171  0
C  C51  1  0.27423851  0.30187603  0.06836932  1  0.027358  0  -0.08715  -0.178144  0  3.964931  0
C  C52  1  0.72582842  0.80184615  0.56838408  1  0.026007  0  -0.0869  -0.177856  0  3.964441  0
C  C53  1  0.72570060  0.69811496  0.93162174  1  0.026911  0  -0.086967  -0.178234  0  3.965025  0
C  C54  1  0.59532411  0.03052657  0.49602207  1  -0.176447  0  -0.016019  -0.007339  0  4.077609  0
C  C55  1  0.59528125  0.46949149  0.00400165  1  -0.23042  0  -0.016114  -0.006967  0  4.077529  0
C  C56  1  0.40476119  0.96946749  0.50401712  1  -0.230486  0  -0.016321  -0.007065  0  4.077675  0
C  C57  1  0.40470376  0.53054790  0.99600966  1  -0.176893  0  -0.016233  -0.00733  0  4.077652  0
C  C58  1  0.91722947  0.11013760  0.44638514  1  -0.200158  0  -0.013574  -0.025202  0  4.002304  0
C  C59  1  0.91723498  0.38989120  0.05362693  1  -0.202122  0  -0.013537  -0.025289  0  4.002251  0
C  C60  1  0.08281334  0.88986930  0.55364553  1  -0.200339  0  -0.013685  -0.025262  0  4.002369  0
C  C61  1  0.08275512  0.61014138  0.94637549  1  -0.201064  0  -0.013636  -0.025136  0  4.00221  0
C  C62  1  0.84992940  0.01353062  0.06610693  1  0.021245  0  -0.09462  -0.106565  0  3.870787  0
C  C63  1  0.84998687  0.48642538  0.43387004  1  0.020529  0  -0.094635  -0.106746  0  3.871067  0
C  C64  1  0.15004881  0.98648607  0.93388523  1  0.021568  0  -0.094725  -0.106749  0  3.870741  0
C  C65  1  0.15002193  0.51353990  0.56611885  1  0.020766  0  -0.094655  -0.106899  0  3.870916  0
C  C66  1  0.43326007  0.22447195  0.38609475  1  0.406695  0  0.038829  0.078487  0  3.985994  0
C  C67  1  0.43322891  0.27550252  0.11389402  1  0.406979  0  0.038537  0.078129  0  3.986116  0
C  C68  1  0.56681843  0.77548730  0.61390515  1  0.408688  0  0.038692  0.078045  0  3.985655  0
C  C69  1  0.56670680  0.72447486  0.88609152  1  0.406747  0  0.038797  0.078526  0  3.985786  0
C  C70  1  0.81432780  0.07385448  0.00966592  1  -0.030656  0  -0.167045  -0.159042  0  3.925324  0
C  C71  1  0.81435718  0.42612410  0.49032188  1  -0.029088  0  -0.167083  -0.159131  0  3.92578  0
C  C72  1  0.18564360  0.92614632  0.99031492  1  -0.03005  0  -0.167132  -0.159035  0  3.925429  0
C  C73  1  0.18563632  0.57385101  0.50967013  1  -0.029806  0  -0.167028  -0.158969  0  3.925496  0
C  C74  1  0.89825277  0.01593496  0.93211164  1  0.018224  0  -0.163143  -0.15528  0  3.915022  0
C  C75  1  0.89822965  0.48406604  0.56788032  1  0.017353  0  -0.163155  -0.154965  0  3.914545  0
C  C76  1  0.10171524  0.98405224  0.06787542  1  0.018352  0  -0.163139  -0.155091  0  3.914705  0
C  C77  1  0.10176386  0.51590681  0.43211122  1  0.016728  0  -0.163185  -0.155142  0  3.91464  0
C  C78  1  0.88577567  0.15054757  0.52263329  1  0.013579  0  -0.095986  -0.13478  0  4.024573  0
C  C79  1  0.88578387  0.34949877  0.97737535  1  0.014338  0  -0.096057  -0.13443  0  4.02426  0
C  C80  1  0.11426373  0.84946915  0.47739517  1  0.012516  0  -0.09617  -0.13509  0  4.024864  0
C  C81  1  0.11424193  0.65056026  0.02262032  1  0.013939  0  -0.09606  -0.134909  0  4.024749  0
C  C82  1  0.08656879  0.13803679  0.39964266  1  -0.025107  0  0.009713  0.120931  0  4.038073  0
C  C83  1  0.08657062  0.36196921  0.10036180  1  -0.024349  0  0.009552  0.120552  0  4.038178  0
C  C84  1  0.91346892  0.86196104  0.60038131  1  -0.024821  0  0.009735  0.120712  0  4.038247  0
C  C85  1  0.91339909  0.63804068  0.89963481  1  -0.024241  0  0.009533  0.120551  0  4.038239  0
C  C86  1  0.76960551  0.06986290  0.14444824  1  1.549565  0  0.195429  0.582533  0  4.170004  0
C  C87  1  0.76968893  0.43007170  0.35552759  1  1.549569  0  0.195356  0.582589  0  4.169781  0
C  C88  1  0.23038629  0.93018251  0.85553818  1  1.54825  0  0.195419  0.58293  0  4.169614  0
C  C89  1  0.23034877  0.56987620  0.64446193  1  1.549575  0  0.195426  0.582629  0  4.170077  0
C  C90  1  0.70466983  0.10590851  0.55069487  1  0.0462  0  -0.106304  -0.15716  0  4.02315  0
C  C91  1  0.70466489  0.39413958  0.94932019  1  0.048738  0  -0.106441  -0.157628  0  4.023442  0
C  C92  1  0.29537127  0.89411049  0.44933779  1  0.049288  0  -0.106248  -0.157169  0  4.02355  0
C  C93  1  0.29536771  0.60592852  0.05068165  1  0.045931  0  -0.106302  -0.157225  0  4.023447  0
C  C94  1  0.23939330  0.13696731  0.27980342  1  0.534621  0  0.05623  0.12549  0  3.917182  0
C  C95  1  0.23944485  0.36302174  0.22019473  1  0.534652  0  0.056376  0.125548  0  3.917307  0
C  C96  1  0.76054072  0.86305772  0.72021130  1  0.53539  0  0.056313  0.125665  0  3.917351  0
C  C97  1  0.76054016  0.63696396  0.77979789  1  0.534532  0  0.056344  0.125619  0  3.917319  0
S  S98  1  0.71977428  0.01596214  0.40999045  1  0.224966  0  0.103828  0.127964  0  2.826653  0
S  S99  1  0.71972667  0.48403511  0.09003424  1  0.22474  0  0.103948  0.12801  0  2.82651  0
S  S100  1  0.28032293  0.98401755  0.59004894  1  0.225015  0  0.104038  0.128049  0  2.82656  0
S  S101  1  0.28021414  0.51597178  0.90997935  1  0.225107  0  0.103859  0.127935  0  2.826498  0
N  N102  1  0.41745521  0.19496207  0.31123974  1  -1.249415  0  -0.335097  -0.24581  0  3.58429  0
N  N103  1  0.41746457  0.30500934  0.18874980  1  -1.249187  0  -0.334925  -0.245773  0  3.584439  0
N  N104  1  0.58254340  0.80502818  0.68876184  1  -1.250097  0  -0.335143  -0.245734  0  3.584552  0
N  N105  1  0.58249324  0.69496199  0.81123554  1  -1.249605  0  -0.334988  -0.245819  0  3.584233  0
O  O106  1  0.66403381  0.02482520  0.18312728  1  -1.197174  0  -0.351369  -0.581323  0  2.087106  0
O  O107  1  0.66418620  0.47511287  0.31683555  1  -1.198032  0  -0.351292  -0.581365  0  2.087182  0
O  O108  1  0.33588490  0.97525045  0.81686546  1  -1.196771  0  -0.3512  -0.581346  0  2.086734  0
O  O109  1  0.33590929  0.52483577  0.68314079  1  -1.1979  0  -0.351178  -0.581193  0  2.087538  0
O  O110  1  0.82436040  0.16584863  0.16644295  1  -1.193744  0  -0.347089  -0.573231  0  2.330457  0
O  O111  1  0.82438596  0.33408010  0.33354755  1  -1.192936  0  -0.34723  -0.573267  0  2.330361  0
O  O112  1  0.17570960  0.83418695  0.83354249  1  -1.193013  0  -0.34719  -0.573377  0  2.330765  0
O  O113  1  0.17561945  0.66586705  0.66644822  1  -1.193137  0  -0.347223  -0.573283  0  2.330209  0
