# generated using pymatgen
data_NaH2(C2O)2
_symmetry_space_group_name_H-M   'P 1'
_cell_length_a   3.50951902
_cell_length_b   10.74169827
_cell_length_c   19.02433725
_cell_angle_alpha   90.00107024
_cell_angle_beta   90.00073866
_cell_angle_gamma   89.99968346
_symmetry_Int_Tables_number   1
_chemical_formula_structural   NaH2(C2O)2
_chemical_formula_sum   'Na8 H16 C32 O16'
_cell_volume   717.18316343
_cell_formula_units_Z   8
loop_
 _symmetry_equiv_pos_site_id
 _symmetry_equiv_pos_as_xyz
  1  'x, y, z'
loop_
 _atom_site_type_symbol
 _atom_site_label
 _atom_site_symmetry_multiplicity
 _atom_site_fract_x
 _atom_site_fract_y
 _atom_site_fract_z
 _atom_site_occupancy
 _atom_site_hle17_bader_spin_density
 _atom_site_hle17_ddec_charge
 _atom_site_hle17_ddec_spin_density
 _atom_site_hle17_ddec_sum_bond_order
 _atom_site_hle17_magmom
 _atom_site_hse06_10hf_bader_spin_density
 _atom_site_hse06_10hf_ddec_charge
 _atom_site_hse06_10hf_ddec_spin_density
 _atom_site_hse06_10hf_ddec_sum_bond_order
 _atom_site_hse06_10hf_magmom
 _atom_site_hse06_bader_spin_density
 _atom_site_hse06_ddec_charge
 _atom_site_hse06_ddec_spin_density
 _atom_site_hse06_ddec_sum_bond_order
 _atom_site_hse06_magmom
 _atom_site_pbe_bader_spin_density
 _atom_site_pbe_cm5_charge
 _atom_site_pbe_ddec_charge
 _atom_site_pbe_ddec_spin_density
 _atom_site_pbe_ddec_sum_bond_order
 _atom_site_pbe_magmom
Na  Na0  1  0.04090725  0.93125683  0.67557592  1  0  0.919929  0  0.360647  0  0  0.881871  0  0.506678  0  0  0.892228  0  0.484996  0  0  0.677716  0.873693  0  0.52299  0
Na  Na1  1  0.95909147  0.43125966  0.67557806  1  0  0.919938  0  0.360663  0  0  0.88186  0  0.506703  0  0  0.892222  0  0.485019  0  0  0.677709  0.873668  0  0.523017  0
Na  Na2  1  0.04088721  0.56875093  0.17557184  1  0  0.919931  0  0.360682  0  0  0.881859  0  0.50674  0  0  0.892218  0  0.485066  0  0  0.677706  0.873691  0  0.523057  0
Na  Na3  1  0.95910847  0.06874817  0.17557819  1  0  0.919925  0  0.360665  0  0  0.881868  0  0.506663  0  0  0.892229  0  0.484989  0  0  0.677711  0.873701  0  0.522983  0
Na  Na4  1  0.52783986  0.68161125  0.77181244  1  0  0.920483  0  0.359758  0  0  0.882821  0  0.505321  0  0  0.893189  0  0.483656  0  0  0.677342  0.874674  0  0.521582  0
Na  Na5  1  0.47216698  0.18161401  0.77181448  1  0  0.920485  0  0.359775  0  0  0.882829  0  0.505325  0  0  0.893194  0  0.483665  0  0  0.67734  0.874676  0  0.52158  0
Na  Na6  1  0.52782126  0.81838859  0.27180783  1  0  0.92049  0  0.359736  0  0  0.8828  0  0.505326  0  0  0.893176  0  0.483664  0  0  0.677312  0.874664  0  0.521594  0
Na  Na7  1  0.47218827  0.31839042  0.27181302  1  0  0.920494  0  0.359739  0  0  0.882854  0  0.505266  0  0  0.893229  0  0.48361  0  0  0.677354  0.874718  0  0.52153  0
H  H8  1  0.60276082  0.08220569  0.92382203  1  0  0.086122  0  0.981804  0  0  0.097975  0  1.044293  0  0  0.10071  0  1.043146  0  0  0.105104  0.095824  0  1.045669  0
H  H9  1  0.39724122  0.58220502  0.92382757  1  0  0.086141  0  0.98185  0  0  0.097996  0  1.044325  0  0  0.100732  0  1.043176  0  0  0.105106  0.095839  0  1.045715  0
H  H10  1  0.60274053  0.41779052  0.42382267  1  0  0.086109  0  0.981849  0  0  0.098  0  1.044289  0  0  0.100734  0  1.043143  0  0  0.105118  0.095847  0  1.045675  0
H  H11  1  0.39722947  0.91779264  0.42382979  1  0  0.086106  0  0.981866  0  0  0.09796  0  1.044352  0  0  0.100697  0  1.0432  0  0  0.105051  0.095803  0  1.045737  0
H  H12  1  0.47380992  0.03806235  0.04962772  1  0  0.083698  0  1.005425  0  0  0.088  0  1.080923  0  0  0.092468  0  1.076785  0  0  0.104279  0.084482  0  1.084567  0
H  H13  1  0.52620600  0.53805866  0.04963147  1  0  0.083706  0  1.005405  0  0  0.088052  0  1.08086  0  0  0.092501  0  1.076738  0  0  0.104283  0.084523  0  1.084524  0
H  H14  1  0.47378954  0.46194496  0.54962635  1  0  0.083716  0  1.005502  0  0  0.088056  0  1.080947  0  0  0.092513  0  1.076819  0  0  0.104305  0.084537  0  1.084593  0
H  H15  1  0.52619987  0.96194499  0.54963272  1  0  0.083734  0  1.005397  0  0  0.08808  0  1.080857  0  0  0.09253  0  1.076735  0  0  0.104283  0.084558  0  1.084514  0
H  H16  1  0.90067979  0.66679637  0.02305348  1  0  0.085931  0  0.982104  0  0  0.097247  0  1.045425  0  0  0.099987  0  1.044246  0  0  0.104773  0.095101  0  1.046792  0
H  H17  1  0.09930359  0.16679608  0.02305673  1  0  0.085983  0  0.982022  0  0  0.097344  0  1.045282  0  0  0.100098  0  1.044114  0  0  0.104777  0.095185  0  1.046683  0
H  H18  1  0.90069865  0.83320200  0.52305495  1  0  0.085916  0  0.982192  0  0  0.097257  0  1.045467  0  0  0.100004  0  1.044293  0  0  0.104724  0.095104  0  1.046841  0
H  H19  1  0.09928826  0.33320543  0.52306293  1  0  0.085918  0  0.982017  0  0  0.097284  0  1.045283  0  0  0.100032  0  1.044109  0  0  0.104749  0.095128  0  1.046685  0
H  H20  1  0.02845361  0.71084751  0.89717511  1  0  0.082786  0  1.006326  0  0  0.087238  0  1.08215  0  0  0.091752  0  1.077944  0  0  0.103765  0.083669  0  1.085888  0
H  H21  1  0.97156147  0.21084473  0.89717675  1  0  0.082674  0  1.006163  0  0  0.087123  0  1.082012  0  0  0.091646  0  1.077796  0  0  0.103718  0.083556  0  1.085739  0
H  H22  1  0.02844406  0.78914528  0.39717440  1  0  0.082716  0  1.006176  0  0  0.08718  0  1.081987  0  0  0.091693  0  1.077782  0  0  0.103756  0.08361  0  1.085723  0
H  H23  1  0.97153197  0.28914994  0.39718288  1  0  0.082705  0  1.006236  0  0  0.087145  0  1.082081  0  0  0.091669  0  1.077866  0  0  0.103712  0.083575  0  1.085818  0
C  C24  1  0.83268204  0.90004974  0.90233309  1  0  -0.065224  0  3.735021  0  0  -0.039094  0  3.957725  0  0  -0.045797  0  3.981158  0  0  -0.011266  -0.034774  0  3.941706  0
C  C25  1  0.16732447  0.40004932  0.90233650  1  0  -0.0653  0  3.735155  0  0  -0.039033  0  3.95764  0  0  -0.045738  0  3.981086  0  0  -0.011298  -0.03471  0  3.941607  0
C  C26  1  0.83268711  0.59993806  0.40233406  1  0  -0.06532  0  3.735491  0  0  -0.039154  0  3.958135  0  0  -0.045853  0  3.981564  0  0  -0.011318  -0.034843  0  3.942115  0
C  C27  1  0.16730106  0.09994509  0.40234168  1  0  -0.065308  0  3.735346  0  0  -0.039044  0  3.957852  0  0  -0.045747  0  3.981294  0  0  -0.011296  -0.034724  0  3.941825  0
C  C28  1  0.67170060  0.99138904  0.94559586  1  0  -0.058457  0  3.721372  0  0  -0.080146  0  3.96409  0  0  -0.081769  0  3.986221  0  0  -0.078019  -0.078867  0  3.949332  0
C  C29  1  0.32830738  0.49138927  0.94560123  1  0  -0.058542  0  3.721415  0  0  -0.080271  0  3.964098  0  0  -0.081891  0  3.986216  0  0  -0.078083  -0.078995  0  3.949351  0
C  C30  1  0.67170153  0.50860700  0.44559482  1  0  -0.058315  0  3.721486  0  0  -0.080077  0  3.964239  0  0  -0.081698  0  3.986361  0  0  -0.077979  -0.078794  0  3.949483  0
C  C31  1  0.32828552  0.00860909  0.44560177  1  0  -0.058414  0  3.721365  0  0  -0.080162  0  3.964096  0  0  -0.081781  0  3.986211  0  0  -0.077975  -0.078873  0  3.949341  0
C  C32  1  0.59537874  0.96644561  0.01588545  1  0  -0.086612  0  3.745785  0  0  -0.107925  0  3.993776  0  0  -0.109542  0  4.014573  0  0  -0.082404  -0.106424  0  3.979616  0
C  C33  1  0.40463607  0.46644104  0.01589048  1  0  -0.086528  0  3.745823  0  0  -0.10791  0  3.99377  0  0  -0.109505  0  4.014575  0  0  -0.082346  -0.106406  0  3.97961  0
C  C34  1  0.59536852  0.53355494  0.51588798  1  0  -0.086641  0  3.745844  0  0  -0.108044  0  3.993822  0  0  -0.109646  0  4.014618  0  0  -0.082435  -0.106541  0  3.979655  0
C  C35  1  0.40462585  0.03356061  0.51589301  1  0  -0.086453  0  3.745809  0  0  -0.107938  0  3.993645  0  0  -0.109535  0  4.014446  0  0  -0.082329  -0.106438  0  3.979494  0
C  C36  1  0.67105208  0.84894039  0.04452035  1  0  -0.064799  0  3.737856  0  0  -0.038902  0  3.960168  0  0  -0.045591  0  3.983562  0  0  -0.012167  -0.034603  0  3.944174  0
C  C37  1  0.32895818  0.34893689  0.04452415  1  0  -0.064824  0  3.737898  0  0  -0.038818  0  3.960092  0  0  -0.04551  0  3.98349  0  0  -0.012086  -0.03451  0  3.944081  0
C  C38  1  0.67104270  0.65105539  0.54452464  1  0  -0.06457  0  3.73769  0  0  -0.038525  0  3.959717  0  0  -0.045211  0  3.983102  0  0  -0.011948  -0.03422  0  3.943724  0
C  C39  1  0.32895736  0.15106213  0.54452843  1  0  -0.065034  0  3.738021  0  0  -0.038678  0  3.959696  0  0  -0.045365  0  3.983085  0  0  -0.012044  -0.034374  0  3.94371  0
C  C40  1  0.83132117  0.75754336  0.00123603  1  0  -0.058678  0  3.723034  0  0  -0.080234  0  3.966095  0  0  -0.081823  0  3.988193  0  0  -0.077762  -0.078941  0  3.951332  0
C  C41  1  0.16868193  0.25754201  0.00123892  1  0  -0.058878  0  3.722948  0  0  -0.080509  0  3.965964  0  0  -0.082105  0  3.988043  0  0  -0.077896  -0.079235  0  3.951211  0
C  C42  1  0.83133588  0.74245814  0.50123550  1  0  -0.058967  0  3.722845  0  0  -0.080603  0  3.965857  0  0  -0.082219  0  3.987992  0  0  -0.077853  -0.079304  0  3.951081  0
C  C43  1  0.16866245  0.24245865  0.50124259  1  0  -0.058819  0  3.722687  0  0  -0.080572  0  3.965645  0  0  -0.082166  0  3.987734  0  0  -0.077923  -0.079288  0  3.95088  0
C  C44  1  0.90726406  0.78247842  0.93094013  1  0  -0.085424  0  3.744057  0  0  -0.107254  0  3.992249  0  0  -0.108876  0  4.012982  0  0  -0.082654  -0.105747  0  3.978115  0
C  C45  1  0.09274645  0.28248000  0.93094283  1  0  -0.085091  0  3.743755  0  0  -0.106953  0  3.991916  0  0  -0.108582  0  4.012654  0  0  -0.082469  -0.105445  0  3.977773  0
C  C46  1  0.90725858  0.71750926  0.43094181  1  0  -0.0852  0  3.744218  0  0  -0.107052  0  3.992416  0  0  -0.10867  0  4.013146  0  0  -0.082624  -0.105548  0  3.978289  0
C  C47  1  0.09272103  0.21752015  0.43094978  1  0  -0.085191  0  3.743988  0  0  -0.107067  0  3.992204  0  0  -0.1087  0  4.012937  0  0  -0.082509  -0.105561  0  3.978076  0
C  C48  1  0.94222697  0.92691938  0.82729421  1  0  0.680789  0  3.932248  0  0  0.636709  0  4.227952  0  0  0.669214  0  4.218545  0  0  0.203855  0.614725  0  4.233241  0
C  C49  1  0.05777670  0.42692195  0.82729421  1  0  0.680907  0  3.932492  0  0  0.636805  0  4.228146  0  0  0.66931  0  4.218737  0  0  0.203959  0.614815  0  4.233441  0
C  C50  1  0.94222680  0.57306946  0.32729491  1  0  0.680916  0  3.932171  0  0  0.636875  0  4.22778  0  0  0.669382  0  4.218367  0  0  0.203983  0.614891  0  4.233077  0
C  C51  1  0.05776514  0.07307855  0.32729595  1  0  0.680899  0  3.932671  0  0  0.636783  0  4.228369  0  0  0.66929  0  4.218955  0  0  0.203918  0.614803  0  4.233654  0
C  C52  1  0.56800093  0.82215174  0.11984676  1  0  0.680154  0  3.931639  0  0  0.636449  0  4.226775  0  0  0.668896  0  4.217425  0  0  0.20386  0.614509  0  4.232017  0
C  C53  1  0.43199225  0.32214992  0.11984922  1  0  0.680066  0  3.931359  0  0  0.636362  0  4.22645  0  0  0.668811  0  4.217101  0  0  0.203879  0.614422  0  4.231687  0
C  C54  1  0.56802244  0.67785975  0.61984450  1  0  0.680035  0  3.931936  0  0  0.636438  0  4.226814  0  0  0.668884  0  4.217462  0  0  0.203853  0.614471  0  4.232091  0
C  C55  1  0.43198812  0.17785235  0.61985222  1  0  0.680202  0  3.931395  0  0  0.636459  0  4.226384  0  0  0.668903  0  4.217041  0  0  0.203935  0.614504  0  4.231638  0
O  O56  1  0.95047711  0.03954631  0.80652510  1  0  -0.761039  0  1.932971  0  0  -0.719938  0  2.185104  0  0  -0.740086  0  2.169959  0  0  -0.436255  -0.705575  0  2.195466  0
O  O57  1  0.04954027  0.53954533  0.80652771  1  0  -0.760999  0  1.933126  0  0  -0.71992  0  2.185264  0  0  -0.740069  0  2.170116  0  0  -0.436287  -0.705563  0  2.195636  0
O  O58  1  0.95054727  0.46044539  0.30652619  1  0  -0.761094  0  1.933069  0  0  -0.720011  0  2.185166  0  0  -0.740165  0  2.170031  0  0  -0.436338  -0.705656  0  2.195543  0
O  O59  1  0.04952210  0.96045652  0.30652722  1  0  -0.761004  0  1.933187  0  0  -0.719909  0  2.185321  0  0  -0.740062  0  2.170178  0  0  -0.436284  -0.705556  0  2.195695  0
O  O60  1  0.02765092  0.83418281  0.78803923  1  0  -0.799801  0  1.951692  0  0  -0.75801  0  2.205922  0  0  -0.778027  0  2.189718  0  0  -0.480901  -0.743624  0  2.216907  0
O  O61  1  0.97236014  0.33418561  0.78804193  1  0  -0.799901  0  1.951918  0  0  -0.758096  0  2.206095  0  0  -0.778113  0  2.189889  0  0  -0.480972  -0.743706  0  2.217076  0
O  O62  1  0.02760359  0.66581381  0.28803775  1  0  -0.799932  0  1.951739  0  0  -0.758127  0  2.205895  0  0  -0.778152  0  2.189695  0  0  -0.480965  -0.743743  0  2.216894  0
O  O63  1  0.97237264  0.16581754  0.28804728  1  0  -0.799881  0  1.951969  0  0  -0.758076  0  2.206141  0  0  -0.778097  0  2.189941  0  0  -0.480896  -0.743693  0  2.217133  0
O  O64  1  0.56767494  0.70962705  0.14087555  1  0  -0.763288  0  1.934534  0  0  -0.72176  0  2.186045  0  0  -0.741979  0  2.171032  0  0  -0.441337  -0.707361  0  2.196339  0
O  O65  1  0.43230168  0.20962988  0.14088590  1  0  -0.763256  0  1.934496  0  0  -0.721743  0  2.185992  0  0  -0.741966  0  2.170987  0  0  -0.441405  -0.707347  0  2.196288  0
O  O66  1  0.56771733  0.79037304  0.64087867  1  0  -0.763177  0  1.934819  0  0  -0.721716  0  2.186276  0  0  -0.741931  0  2.171257  0  0  -0.441261  -0.707305  0  2.196573  0
O  O67  1  0.43228138  0.29037680  0.64088902  1  0  -0.763273  0  1.934269  0  0  -0.721793  0  2.185793  0  0  -0.742016  0  2.170789  0  0  -0.441416  -0.707374  0  2.196069  0
O  O68  1  0.48228321  0.91462667  0.15922460  1  0  -0.796592  0  1.945264  0  0  -0.755072  0  2.198996  0  0  -0.774983  0  2.182814  0  0  -0.477919  -0.740778  0  2.21  0
O  O69  1  0.51771968  0.41463494  0.15922990  1  0  -0.796562  0  1.944794  0  0  -0.755123  0  2.198687  0  0  -0.775038  0  2.182507  0  0  -0.477958  -0.740827  0  2.209684  0
O  O70  1  0.48228350  0.58538069  0.65922609  1  0  -0.796636  0  1.94491  0  0  -0.755166  0  2.198562  0  0  -0.775075  0  2.182371  0  0  -0.478046  -0.740845  0  2.209557  0
O  O71  1  0.51772282  0.08537499  0.65923034  1  0  -0.796582  0  1.944905  0  0  -0.755155  0  2.198763  0  0  -0.775061  0  2.182573  0  0  -0.478014  -0.740846  0  2.209757  0
