# generated using pymatgen
data_CoCu2H30C15S6Br2N3
_symmetry_space_group_name_H-M   'P 1'
_cell_length_a   11.60612515
_cell_length_b   11.63888831
_cell_length_c   13.70500000
_cell_angle_alpha   66.94542392
_cell_angle_beta   66.87656926
_cell_angle_gamma   74.88068354
_symmetry_Int_Tables_number   1
_chemical_formula_structural   CoCu2H30C15S6Br2N3
_chemical_formula_sum   'Co2 Cu4 H60 C30 S12 Br4 N6'
_cell_volume   1554.00778818
_cell_formula_units_Z   2
loop_
 _symmetry_equiv_pos_site_id
 _symmetry_equiv_pos_as_xyz
  1  'x, y, z'
loop_
 _atom_site_type_symbol
 _atom_site_label
 _atom_site_symmetry_multiplicity
 _atom_site_fract_x
 _atom_site_fract_y
 _atom_site_fract_z
 _atom_site_occupancy
 _atom_site_hle17_bader_spin_density
 _atom_site_hle17_ddec_charge
 _atom_site_hle17_ddec_spin_density
 _atom_site_hle17_ddec_sum_bond_order
 _atom_site_hle17_magmom
 _atom_site_hse06_10hf_bader_spin_density
 _atom_site_hse06_10hf_ddec_charge
 _atom_site_hse06_10hf_ddec_spin_density
 _atom_site_hse06_10hf_ddec_sum_bond_order
 _atom_site_hse06_10hf_magmom
 _atom_site_hse06_bader_spin_density
 _atom_site_hse06_ddec_charge
 _atom_site_hse06_ddec_spin_density
 _atom_site_hse06_ddec_sum_bond_order
 _atom_site_hse06_magmom
 _atom_site_pbe_bader_charge
 _atom_site_pbe_bader_spin_density
 _atom_site_pbe_cm5_charge
 _atom_site_pbe_ddec_charge
 _atom_site_pbe_ddec_spin_density
 _atom_site_pbe_ddec_sum_bond_order
 _atom_site_pbe_magmom
Co  Co0  1  0.89895909  0.10092539  0.75007132  1  0  0.118076  0  3.479289  0  0  0.231655  0  3.846066  0  0  0.27915  0  3.809503  0  0.632041  0  0.346243  0.210319  0  3.866636  0
Co  Co1  1  0.10104883  0.89907530  0.24992304  1  0  0.11802  0  3.479075  0  0  0.231622  0  3.84584  0  0  0.279104  0  3.80928  0  0.632144  0  0.346176  0.210256  0  3.866427  0
Cu  Cu2  1  0.61942548  0.03347550  0.92469656  1  0  0.31463  0  2.169383  0  0  0.240289  0  2.674773  0  0  0.245037  0  2.625144  0  0.488193  0  0.269045  0.239767  0  2.706512  0
Cu  Cu3  1  0.96641469  0.38002719  0.57575563  1  0  0.315323  0  2.166669  0  0  0.240688  0  2.671805  0  0  0.245345  0  2.622582  0  0.489571  0  0.269296  0.240192  0  2.703455  0
Cu  Cu4  1  0.38058989  0.96654779  0.07531262  1  0  0.314584  0  2.169521  0  0  0.240286  0  2.674857  0  0  0.244995  0  2.625319  0  0.488233  0  0.269002  0.23975  0  2.706626  0
Cu  Cu5  1  0.03360155  0.61997445  0.42423639  1  0  0.31531  0  2.166753  0  0  0.240668  0  2.671878  0  0  0.245282  0  2.622638  0  0.489732  0  0.269269  0.240176  0  2.703524  0
H  H6  1  0.72248576  0.52050058  0.72099662  1  0  0.069185  0  0.951467  0  0  0.085612  0  1.018313  0  0  0.086904  0  1.017193  0  0.067615  0  0.102399  0.08453  0  1.019403  0
H  H7  1  0.47844194  0.27835250  0.77869190  1  0  0.069469  0  0.951689  0  0  0.086053  0  1.018103  0  0  0.087289  0  1.017071  0  0.073398  0  0.10268  0.085021  0  1.019095  0
H  H8  1  0.27752407  0.47948505  0.27901160  1  0  0.069131  0  0.95157  0  0  0.085527  0  1.018383  0  0  0.086818  0  1.01726  0  0.067755  0  0.102386  0.084447  0  1.019483  0
H  H9  1  0.52154582  0.72165950  0.22131051  1  0  0.069487  0  0.951548  0  0  0.085976  0  1.018133  0  0  0.087205  0  1.01709  0  0.073287  0  0.102659  0.084949  0  1.019118  0
H  H10  1  0.58112493  0.58575154  0.68952121  1  0  0.055865  0  0.940558  0  0  0.074212  0  1.001031  0  0  0.075276  0  1.000179  0  0.030035  0  0.103931  0.073329  0  1.001929  0
H  H11  1  0.41332339  0.41935115  0.81035536  1  0  0.056495  0  0.939273  0  0  0.074642  0  1.000004  0  0  0.075703  0  0.999145  0  0.024348  0  0.103922  0.073769  0  1.000875  0
H  H12  1  0.41888919  0.41425198  0.31047890  1  0  0.056008  0  0.940685  0  0  0.074248  0  1.001193  0  0  0.075311  0  1.000339  0  0.03003  0  0.103982  0.07337  0  1.002079  0
H  H13  1  0.58667289  0.58066743  0.18963984  1  0  0.05648  0  0.939254  0  0  0.074645  0  0.999982  0  0  0.075702  0  0.999128  0  0.024487  0  0.103937  0.073771  0  1.000855  0
H  H14  1  0.45536297  0.51428406  0.89812012  1  0  0.093809  0  0.961346  0  0  0.114434  0  1.024595  0  0  0.116106  0  1.023851  0  0.022105  0  0.086371  0.11311  0  1.02526  0
H  H15  1  0.48575536  0.54444702  0.60170903  1  0  0.093657  0  0.961065  0  0  0.11404  0  1.024658  0  0  0.115675  0  1.023965  0  0.013763  0  0.086101  0.112715  0  1.025323  0
H  H16  1  0.54464454  0.48569782  0.10188502  1  0  0.093729  0  0.961278  0  0  0.114352  0  1.024554  0  0  0.116021  0  1.023816  0  0.022436  0  0.086277  0.113028  0  1.025221  0
H  H17  1  0.51424027  0.45555462  0.39828984  1  0  0.09368  0  0.96095  0  0  0.114054  0  1.02455  0  0  0.115686  0  1.02386  0  0.013818  0  0.086092  0.112721  0  1.025224  0
H  H18  1  0.59941896  0.45324272  0.92708248  1  0  0.109977  0  0.950705  0  0  0.13142  0  1.01015  0  0  0.13249  0  1.011161  0  0.044975  0  0.091035  0.13027  0  1.010146  0
H  H19  1  0.54663060  0.40071098  0.57267360  1  0  0.109737  0  0.949982  0  0  0.131211  0  1.009437  0  0  0.132285  0  1.010432  0  0.045913  0  0.090955  0.130057  0  1.009442  0
H  H20  1  0.40058853  0.54674668  0.07291578  1  0  0.109879  0  0.950785  0  0  0.131343  0  1.010216  0  0  0.132415  0  1.011223  0  0.045438  0  0.091008  0.130193  0  1.010213  0
H  H21  1  0.45336477  0.59930007  0.42732295  1  0  0.109783  0  0.950062  0  0  0.131291  0  1.009439  0  0  0.132366  0  1.010435  0  0.045877  0  0.090978  0.130136  0  1.009443  0
H  H22  1  0.56186284  0.61870272  0.86610252  1  0  0.111321  0  0.956418  0  0  0.134601  0  1.013806  0  0  0.135891  0  1.014714  0  0.056855  0  0.089005  0.132777  0  1.014729  0
H  H23  1  0.38054487  0.43876416  0.63361610  1  0  0.11069  0  0.956718  0  0  0.134105  0  1.014143  0  0  0.135401  0  1.015039  0  0.053719  0  0.088521  0.132225  0  1.01515  0
H  H24  1  0.43813856  0.38128292  0.13391069  1  0  0.111238  0  0.956547  0  0  0.134499  0  1.013968  0  0  0.135791  0  1.014875  0  0.056537  0  0.088993  0.132674  0  1.014887  0
H  H25  1  0.61945073  0.56124501  0.36638100  1  0  0.110704  0  0.956668  0  0  0.134063  0  1.014137  0  0  0.135359  0  1.015036  0  0.053755  0  0.088503  0.132183  0  1.015145  0
H  H26  1  0.99662249  0.66629813  0.82437789  1  0  0.072057  0  0.923301  0  0  0.090573  0  0.980275  0  0  0.092373  0  0.978556  0  0.082567  0  0.104725  0.089264  0  0.981549  0
H  H27  1  0.33559966  0.00456920  0.67381696  1  0  0.071927  0  0.923226  0  0  0.090177  0  0.980272  0  0  0.091889  0  0.978658  0  0.064069  0  0.104601  0.088946  0  0.981458  0
H  H28  1  0.00337973  0.33368845  0.17562817  1  0  0.072065  0  0.923294  0  0  0.090585  0  0.98027  0  0  0.092384  0  0.978553  0  0.082549  0  0.104728  0.089274  0  0.981545  0
H  H29  1  0.66437663  0.99543714  0.32619261  1  0  0.071979  0  0.923193  0  0  0.090253  0  0.980227  0  0  0.091962  0  0.978624  0  0.064002  0  0.104643  0.089021  0  0.981412  0
H  H30  1  0.94708207  0.55330303  0.95966043  1  0  0.047466  0  0.969168  0  0  0.065436  0  1.032545  0  0  0.065958  0  1.032214  0  0.015461  0  0.101681  0.064989  0  1.032822  0
H  H31  1  0.44844032  0.05555057  0.53840937  1  0  0.048147  0  0.96848  0  0  0.066126  0  1.031348  0  0  0.066628  0  1.031044  0  0.043583  0  0.102064  0.065693  0  1.03165  0
H  H32  1  0.05291180  0.44669767  0.04034517  1  0  0.047487  0  0.969176  0  0  0.065489  0  1.032518  0  0  0.066022  0  1.032183  0  0.015498  0  0.101675  0.06504  0  1.032795  0
H  H33  1  0.55155104  0.94442565  0.46160301  1  0  0.048189  0  0.968291  0  0  0.066142  0  1.03123  0  0  0.066643  0  1.030922  0  0.043752  0  0.102089  0.065711  0  1.031531  0
H  H34  1  0.73289213  0.57691718  0.94329060  1  0  0.096555  0  0.96423  0  0  0.115123  0  1.031544  0  0  0.116433  0  1.031673  0  0.017893  0  0.084288  0.114041  0  1.031562  0
H  H35  1  0.42334230  0.26814850  0.55673102  1  0  0.096788  0  0.964005  0  0  0.115214  0  1.031353  0  0  0.116571  0  1.031428  0  0.008137  0  0.084184  0.114125  0  1.031389  0
H  H36  1  0.26711336  0.42307316  0.05670583  1  0  0.096568  0  0.964191  0  0  0.115145  0  1.031491  0  0  0.116448  0  1.031628  0  0.017792  0  0.084301  0.114064  0  1.031513  0
H  H37  1  0.57663543  0.73184655  0.44327016  1  0  0.096812  0  0.96394  0  0  0.115194  0  1.031292  0  0  0.11655  0  1.031371  0  0.008181  0  0.084146  0.114106  0  1.03133  0
H  H38  1  0.78136166  0.69165468  0.80885077  1  0  0.109497  0  0.957542  0  0  0.131405  0  1.017104  0  0  0.132448  0  1.01829  0  0.039812  0  0.086878  0.130436  0  1.016508  0
H  H39  1  0.30865937  0.21857254  0.69123537  1  0  0.109432  0  0.957267  0  0  0.131472  0  1.016663  0  0  0.132516  0  1.017854  0  0.042775  0  0.087192  0.130498  0  1.016073  0
H  H40  1  0.21863903  0.30833661  0.19115278  1  0  0.109524  0  0.957593  0  0  0.131375  0  1.017214  0  0  0.132422  0  1.018394  0  0.039896  0  0.086901  0.13041  0  1.016614  0
H  H41  1  0.69132607  0.78142816  0.30876428  1  0  0.109408  0  0.957392  0  0  0.131428  0  1.016795  0  0  0.132472  0  1.017988  0  0.042864  0  0.087168  0.130458  0  1.016196  0
H  H42  1  0.85483462  0.53266442  0.83047481  1  0  0.106435  0  0.960284  0  0  0.129074  0  1.020503  0  0  0.13013  0  1.021169  0  0.058973  0  0.088887  0.127628  0  1.021085  0
H  H43  1  0.46849148  0.14628892  0.66876216  1  0  0.106565  0  0.960952  0  0  0.128932  0  1.021507  0  0  0.129988  0  1.022174  0  0.052137  0  0.088676  0.127479  0  1.022121  0
H  H44  1  0.14517801  0.46732875  0.16951684  1  0  0.106603  0  0.960114  0  0  0.129215  0  1.020346  0  0  0.130263  0  1.021022  0  0.059041  0  0.088963  0.12778  0  1.020918  0
H  H45  1  0.53150531  0.85371837  0.33123372  1  0  0.106603  0  0.960917  0  0  0.128947  0  1.02148  0  0  0.130005  0  1.022142  0  0.052078  0  0.088676  0.127495  0  1.022094  0
H  H46  1  0.74434644  0.77190287  0.09785108  1  0  0.070733  0  0.932517  0  0  0.088502  0  0.995957  0  0  0.089655  0  0.994968  0  0.098786  0  0.104168  0.087471  0  0.996853  0
H  H47  1  0.22837055  0.25633013  0.40162444  1  0  0.070948  0  0.932503  0  0  0.088666  0  0.995791  0  0  0.089849  0  0.994807  0  0.072268  0  0.104377  0.087622  0  0.996677  0
H  H48  1  0.25566395  0.22809312  0.90214475  1  0  0.070651  0  0.932544  0  0  0.088378  0  0.995998  0  0  0.08953  0  0.995003  0  0.098709  0  0.104161  0.087348  0  0.996893  0
H  H49  1  0.77162135  0.74366398  0.59837525  1  0  0.071001  0  0.932485  0  0  0.088702  0  0.995775  0  0  0.089887  0  0.994789  0  0.072126  0  0.104405  0.087658  0  0.99666  0
H  H50  1  0.78269084  0.61157781  0.10647152  1  0  0.057352  0  0.924592  0  0  0.078906  0  0.979336  0  0  0.079479  0  0.978991  0  0.026983  0  0.106312  0.078326  0  0.979889  0
H  H51  1  0.38935498  0.21793714  0.39240321  1  0  0.058161  0  0.924264  0  0  0.079419  0  0.979054  0  0  0.080019  0  0.978722  0  0.021255  0  0.106718  0.078825  0  0.979599  0
H  H52  1  0.21731395  0.38841065  0.89352503  1  0  0.057326  0  0.924713  0  0  0.078856  0  0.979418  0  0  0.079427  0  0.97907  0  0.027039  0  0.106276  0.078276  0  0.979973  0
H  H53  1  0.61064005  0.78206921  0.60759940  1  0  0.05819  0  0.924279  0  0  0.079403  0  0.979118  0  0  0.08  0  0.978783  0  0.021233  0  0.106707  0.078808  0  0.979663  0
H  H54  1  0.00747582  0.61948590  0.09108459  1  0  0.093354  0  0.972068  0  0  0.116707  0  1.031773  0  0  0.117413  0  1.032692  0  -0.009205  0  0.083782  0.116074  0  1.031386  0
H  H55  1  0.38069015  0.99382677  0.40832887  1  0  0.094402  0  0.971153  0  0  0.117954  0  1.030751  0  0  0.11864  0  1.031691  0  0.002151  0  0.08435  0.117367  0  1.030316  0
H  H56  1  0.99252745  0.38051479  0.90890832  1  0  0.093393  0  0.97195  0  0  0.116716  0  1.031687  0  0  0.117422  0  1.032608  0  -0.009083  0  0.083788  0.116084  0  1.031298  0
H  H57  1  0.61931814  0.00616664  0.59166699  1  0  0.094421  0  0.971061  0  0  0.117932  0  1.030711  0  0  0.118613  0  1.03166  0  0.002251  0  0.08434  0.117345  0  1.030276  0
H  H58  1  0.96138748  0.77723925  0.09189053  1  0  0.110437  0  0.960913  0  0  0.130074  0  1.023757  0  0  0.131063  0  1.024718  0  0.034403  0  0.081063  0.129211  0  1.023498  0
H  H59  1  0.22229015  0.03995936  0.40811882  1  0  0.109963  0  0.96107  0  0  0.129693  0  1.024019  0  0  0.130701  0  1.024955  0  0.040439  0  0.080726  0.128818  0  1.02377  0
H  H60  1  0.03862525  0.22276050  0.90810254  1  0  0.110463  0  0.960945  0  0  0.13009  0  1.023793  0  0  0.131081  0  1.024754  0  0.034  0  0.081064  0.129228  0  1.023535  0
H  H61  1  0.77771508  0.96004039  0.59187894  1  0  0.109972  0  0.961109  0  0  0.129683  0  1.024077  0  0  0.130703  0  1.025  0  0.040936  0  0.080733  0.128807  0  1.023828  0
H  H62  1  0.89302933  0.65180921  0.21179226  1  0  0.110697  0  0.974596  0  0  0.129182  0  1.042183  0  0  0.130989  0  1.042239  0  0.048815  0  0.078173  0.127887  0  1.042012  0
H  H63  1  0.34802263  0.10754010  0.28773806  1  0  0.110497  0  0.976402  0  0  0.129659  0  1.043287  0  0  0.131441  0  1.043388  0  0.053054  0  0.078293  0.128372  0  1.043115  0
H  H64  1  0.10698047  0.34819148  0.78819418  1  0  0.110783  0  0.974458  0  0  0.129246  0  1.042063  0  0  0.131055  0  1.042113  0  0.048814  0  0.078171  0.127947  0  1.041901  0
H  H65  1  0.65197746  0.89245589  0.71226484  1  0  0.110515  0  0.97638  0  0  0.129659  0  1.043272  0  0  0.131439  0  1.043376  0  0.053019  0  0.078314  0.128372  0  1.0431  0
C  C66  1  0.70266552  0.29693619  0.75019601  1  0  0.207081  0  3.723598  0  0  0.186624  0  4.031457  0  0  0.213997  0  4.034878  0  0.33282  0  0.125319  0.16805  0  4.028035  0
C  C67  1  0.29733152  0.70306169  0.24980436  1  0  0.207074  0  3.723753  0  0  0.186665  0  4.031525  0  0  0.214038  0  4.034941  0  0.332668  0  0.125348  0.168082  0  4.028115  0
C  C68  1  0.62132326  0.51216513  0.75151456  1  0  0.050549  0  3.657225  0  0  -0.00879  0  3.917463  0  0  -0.004625  0  3.929543  0  0.315377  0  -0.060052  -0.011454  0  3.908777  0
C  C69  1  0.48711092  0.37908586  0.74829332  1  0  0.049255  0  3.657705  0  0  -0.010075  0  3.918053  0  0  -0.005883  0  3.930121  0  0.316113  0  -0.059932  -0.012727  0  3.909344  0
C  C70  1  0.37868164  0.48782992  0.24848852  1  0  0.050323  0  3.657506  0  0  -0.008789  0  3.917515  0  0  -0.004616  0  3.929585  0  0.315283  0  -0.060093  -0.011459  0  3.908833  0
C  C71  1  0.51288481  0.62092237  0.25170333  1  0  0.049202  0  3.657619  0  0  -0.010164  0  3.918144  0  0  -0.005958  0  3.930195  0  0.316062  0  -0.060028  -0.012817  0  3.909432  0
C  C72  1  0.55580020  0.52556587  0.86732903  1  0  -0.315693  0  3.705717  0  0  -0.392517  0  3.950237  0  0  -0.396028  0  3.960796  0  -0.06451  0  -0.246957  -0.389603  0  3.943706  0
C  C73  1  0.47406182  0.44443942  0.63241390  1  0  -0.314108  0  3.70453  0  0  -0.390958  0  3.949303  0  0  -0.394437  0  3.959856  0  -0.054427  0  -0.246217  -0.387994  0  3.9427  0
C  C74  1  0.44420459  0.47442259  0.13267336  1  0  -0.315322  0  3.705562  0  0  -0.392218  0  3.950103  0  0  -0.39573  0  3.960665  0  -0.065004  0  -0.246828  -0.389301  0  3.94357  0
C  C75  1  0.52593097  0.55556975  0.36758487  1  0  -0.31415  0  3.704476  0  0  -0.39091  0  3.949227  0  0  -0.394379  0  3.959762  0  -0.054398  0  -0.246141  -0.387942  0  3.942631  0
C  C76  1  0.87030291  0.85646140  0.88601512  1  0  0.196173  0  3.770247  0  0  0.17863  0  4.07404  0  0  0.205658  0  4.078851  0  0.274987  0  0.123194  0.160941  0  4.070347  0
C  C77  1  0.14393224  0.13032777  0.61352251  1  0  0.195855  0  3.769942  0  0  0.178346  0  4.074365  0  0  0.205428  0  4.079077  0  0.268383  0  0.123114  0.160636  0  4.070704  0
C  C78  1  0.12969915  0.14354118  0.11397472  1  0  0.196116  0  3.770533  0  0  0.178569  0  4.074304  0  0  0.205597  0  4.079116  0  0.274751  0  0.123248  0.160892  0  4.070585  0
C  C79  1  0.85605682  0.86967387  0.38647926  1  0  0.196124  0  3.769772  0  0  0.178542  0  4.074121  0  0  0.20562  0  4.078831  0  0.268619  0  0.123194  0.160831  0  4.070466  0
C  C80  1  0.91405261  0.63699648  0.89928974  1  0  0.05468  0  3.659443  0  0  -0.002785  0  3.919987  0  0  0.001773  0  3.931221  0  0.304693  0  -0.05781  -0.005929  0  3.912381  0
C  C81  1  0.36428689  0.08745405  0.59940601  1  0  0.05261  0  3.662553  0  0  -0.003907  0  3.922369  0  0  0.000737  0  3.933486  0  0.283181  0  -0.058377  -0.007156  0  3.914872  0
C  C82  1  0.08594676  0.36300516  0.10070934  1  0  0.054687  0  3.659401  0  0  -0.002817  0  3.919934  0  0  0.001733  0  3.931174  0  0.30466  0  -0.057802  -0.005959  0  3.912327  0
C  C83  1  0.63570582  0.91254100  0.40059747  1  0  0.052659  0  3.662225  0  0  -0.003996  0  3.922102  0  0  0.000652  0  3.933203  0  0.283431  0  -0.058406  -0.007243  0  3.914606  0
C  C84  1  0.81469181  0.60765153  0.86870713  1  0  -0.311398  0  3.695815  0  0  -0.387364  0  3.938879  0  0  -0.390457  0  3.949377  0  -0.06618  0  -0.246262  -0.38446  0  3.93205  0
C  C85  1  0.39306943  0.18613815  0.63087136  1  0  -0.311602  0  3.696099  0  0  -0.387346  0  3.938785  0  0  -0.390522  0  3.949215  0  -0.035579  0  -0.246911  -0.384416  0  3.931991  0
C  C86  1  0.18531310  0.39233599  0.13129189  1  0  -0.31159  0  3.695733  0  0  -0.387486  0  3.938858  0  0  -0.390568  0  3.949367  0  -0.066252  0  -0.246372  -0.384597  0  3.932023  0
C  C87  1  0.60691918  0.81385973  0.36913401  1  0  -0.311703  0  3.696034  0  0  -0.387341  0  3.93878  0  0  -0.390519  0  3.949212  0  -0.035959  0  -0.246846  -0.384411  0  3.931986  0
C  C88  1  0.82237931  0.70048339  0.07361373  1  0  0.058194  0  3.647336  0  0  -0.001791  0  3.912116  0  0  0.003045  0  3.923648  0  0.3173  0  -0.058267  -0.004712  0  3.904106  0
C  C89  1  0.30002306  0.17853410  0.42561433  1  0  0.057602  0  3.64824  0  0  -0.001722  0  3.91307  0  0  0.003006  0  3.924726  0  0.343425  0  -0.058623  -0.004576  0  3.904957  0
C  C90  1  0.17762371  0.29951166  0.92638487  1  0  0.058305  0  3.647661  0  0  -0.001485  0  3.912142  0  0  0.003367  0  3.923656  0  0.317238  0  -0.058172  -0.004407  0  3.904129  0
C  C91  1  0.69997081  0.82146660  0.57438617  1  0  0.057555  0  3.648167  0  0  -0.00178  0  3.912883  0  0  0.002955  0  3.924525  0  0.343611  0  -0.058649  -0.004629  0  3.904769  0
C  C92  1  0.92718373  0.68656774  0.11957213  1  0  -0.319447  0  3.696231  0  0  -0.394189  0  3.938188  0  0  -0.397787  0  3.948849  0  -0.021434  0  -0.25361  -0.391547  0  3.93101  0
C  C93  1  0.31344670  0.07387352  0.37994683  1  0  -0.319826  0  3.69566  0  0  -0.395406  0  3.937253  0  0  -0.399001  0  3.948031  0  -0.042261  0  -0.254301  -0.392773  0  3.929984  0
C  C94  1  0.07282619  0.31343201  0.88041896  1  0  -0.31958  0  3.696229  0  0  -0.394318  0  3.93816  0  0  -0.397921  0  3.948818  0  -0.02122  0  -0.25361  -0.391679  0  3.930981  0
C  C95  1  0.68655783  0.92612436  0.62005543  1  0  -0.319844  0  3.695619  0  0  -0.395374  0  3.93722  0  0  -0.39898  0  3.947996  0  -0.04276  0  -0.254314  -0.392741  0  3.929954  0
S  S96  1  0.70150331  0.15634418  0.73618423  1  0  -0.182297  0  2.560453  0  0  -0.195451  0  2.971406  0  0  -0.208798  0  2.952199  0  -0.127613  0  -0.144265  -0.189236  0  2.986383  0
S  S97  1  0.84373350  0.29759512  0.76433362  1  0  -0.182129  0  2.562351  0  0  -0.195134  0  2.973624  0  0  -0.208506  0  2.954472  0  -0.128004  0  -0.143931  -0.188895  0  2.98855  0
S  S98  1  0.29849560  0.84365369  0.26381844  1  0  -0.182304  0  2.56057  0  0  -0.195471  0  2.971486  0  0  -0.208811  0  2.952279  0  -0.127549  0  -0.14429  -0.189251  0  2.98647  0
S  S99  1  0.15627022  0.70240182  0.23566412  1  0  -0.182074  0  2.562505  0  0  -0.195101  0  2.973771  0  0  -0.208452  0  2.954595  0  -0.127915  0  -0.14392  -0.188859  0  2.988704  0
S  S100  1  0.82241608  0.98354064  0.93503450  1  0  -0.172245  0  2.519747  0  0  -0.184385  0  2.916731  0  0  -0.198877  0  2.898345  0  -0.132439  0  -0.146552  -0.177578  0  2.929846  0
S  S101  1  0.01622661  0.17786105  0.56497642  1  0  -0.172496  0  2.520358  0  0  -0.184391  0  2.917512  0  0  -0.198852  0  2.899086  0  -0.130882  0  -0.146678  -0.177596  0  2.930643  0
S  S102  1  0.17760157  0.01645723  0.06496194  1  0  -0.172202  0  2.519759  0  0  -0.184358  0  2.91675  0  0  -0.198842  0  2.898365  0  -0.132396  0  -0.146576  -0.177548  0  2.929861  0
S  S103  1  0.98375949  0.82215659  0.43502613  1  0  -0.172556  0  2.519976  0  0  -0.184454  0  2.917086  0  0  -0.198905  0  2.89865  0  -0.130914  0  -0.146666  -0.177651  0  2.930211  0
S  S104  1  0.92540195  0.90666523  0.74350160  1  0  -0.168144  0  2.31546  0  0  -0.196086  0  2.661059  0  0  -0.214162  0  2.65497  0  -0.031953  0  -0.116407  -0.185988  0  2.665694  0
S  S105  1  0.09402713  0.07471412  0.75601954  1  0  -0.168023  0  2.314636  0  0  -0.195741  0  2.659977  0  0  -0.213789  0  2.653848  0  -0.02766  0  -0.116484  -0.185646  0  2.664641  0
S  S106  1  0.07459200  0.09334959  0.25648833  1  0  -0.168281  0  2.315476  0  0  -0.196246  0  2.661086  0  0  -0.214317  0  2.654989  0  -0.031808  0  -0.116471  -0.186145  0  2.665717  0
S  S107  1  0.90595514  0.92528940  0.24398169  1  0  -0.168084  0  2.314228  0  0  -0.195807  0  2.659539  0  0  -0.213856  0  2.653417  0  -0.02772  0  -0.116493  -0.185702  0  2.6642  0
Br  Br108  1  0.52746555  0.85060257  0.94975719  1  0  -0.493837  0  1.241848  0  0  -0.433017  0  1.586704  0  0  -0.452096  0  1.556859  0  -0.572211  0  -0.292306  -0.41858  0  1.606922  0
Br  Br109  1  0.14954451  0.47282328  0.54970032  1  0  -0.494411  0  1.242256  0  0  -0.433295  0  1.587719  0  0  -0.452363  0  1.557845  0  -0.573558  0  -0.292084  -0.418844  0  1.607993  0
Br  Br110  1  0.47254084  0.14940283  0.05027114  1  0  -0.493718  0  1.241891  0  0  -0.432871  0  1.586741  0  0  -0.451952  0  1.556895  0  -0.572199  0  -0.292204  -0.418437  0  1.606961  0
Br  Br111  1  0.85044540  0.52721602  0.45030762  1  0  -0.494408  0  1.242215  0  0  -0.433251  0  1.587616  0  0  -0.452326  0  1.557745  0  -0.573534  0  -0.29206  -0.418802  0  1.607885  0
N  N112  1  0.60860531  0.39119604  0.74993918  1  0  -0.118316  0  3.443649  0  0  -0.023168  0  3.661772  0  0  -0.039  0  3.68406  0  -1.200605  0  -0.262251  -0.011826  0  3.646043  0
N  N113  1  0.39139605  0.60880466  0.25005737  1  0  -0.11825  0  3.443791  0  0  -0.023122  0  3.66184  0  0  -0.03895  0  3.68412  0  -1.200585  0  -0.262229  -0.011775  0  3.646116  0
N  N114  1  0.86680023  0.73625196  0.95104430  1  0  -0.129131  0  3.439688  0  0  -0.035372  0  3.662552  0  0  -0.052301  0  3.684371  0  -1.201981  0  -0.267067  -0.024327  0  3.647621  0
N  N115  1  0.26443238  0.13444513  0.54814335  1  0  -0.128558  0  3.441409  0  0  -0.035993  0  3.665183  0  0  -0.052911  0  3.686985  0  -1.20196  0  -0.266934  -0.024941  0  3.650261  0
N  N116  1  0.13321368  0.26374591  0.04895047  1  0  -0.129126  0  3.440073  0  0  -0.035414  0  3.662921  0  0  -0.052349  0  3.684741  0  -1.20191  0  -0.267137  -0.024369  0  3.64798  0
N  N117  1  0.73556362  0.86554615  0.45185592  1  0  -0.128822  0  3.441428  0  0  -0.035987  0  3.664928  0  0  -0.0529  0  3.686721  0  -1.202327  0  -0.266988  -0.024936  0  3.650012  0
