# generated using pymatgen
data_SbH11C9NO2F3
_symmetry_space_group_name_H-M   'P 1'
_cell_length_a   5.86723945
_cell_length_b   6.08343443
_cell_length_c   15.48255365
_cell_angle_alpha   90.00036594
_cell_angle_beta   90.94247004
_cell_angle_gamma   90.00059417
_symmetry_Int_Tables_number   1
_chemical_formula_structural   SbH11C9NO2F3
_chemical_formula_sum   'Sb2 H22 C18 N2 O4 F6'
_cell_volume   552.54350749
_cell_formula_units_Z   2
loop_
 _symmetry_equiv_pos_site_id
 _symmetry_equiv_pos_as_xyz
  1  'x, y, z'
loop_
 _atom_site_type_symbol
 _atom_site_label
 _atom_site_symmetry_multiplicity
 _atom_site_fract_x
 _atom_site_fract_y
 _atom_site_fract_z
 _atom_site_occupancy
 _atom_site_hle17_bader_spin_density
 _atom_site_hle17_ddec_charge
 _atom_site_hle17_ddec_spin_density
 _atom_site_hle17_ddec_sum_bond_order
 _atom_site_hle17_magmom
 _atom_site_hse06_10hf_bader_spin_density
 _atom_site_hse06_10hf_ddec_charge
 _atom_site_hse06_10hf_ddec_spin_density
 _atom_site_hse06_10hf_ddec_sum_bond_order
 _atom_site_hse06_10hf_magmom
 _atom_site_hse06_bader_spin_density
 _atom_site_hse06_ddec_charge
 _atom_site_hse06_ddec_spin_density
 _atom_site_hse06_ddec_sum_bond_order
 _atom_site_hse06_magmom
 _atom_site_pbe_bader_spin_density
 _atom_site_pbe_cm5_charge
 _atom_site_pbe_ddec_charge
 _atom_site_pbe_ddec_spin_density
 _atom_site_pbe_ddec_sum_bond_order
 _atom_site_pbe_magmom
Sb  Sb0  1  0.92554753  0.98452501  0.91131686  1  0  1.51537  0  2.664335  0  0  1.330087  0  3.218845  0  0  1.389097  0  3.156959  0  0  0.728876  1.284123  0  3.264098  0
Sb  Sb1  1  0.07446125  0.48452345  0.08868306  1  0  1.515322  0  2.664338  0  0  1.330038  0  3.218823  0  0  1.389029  0  3.156969  0  0  0.728851  1.284062  0  3.264116  0
H  H2  1  0.49170801  0.29254466  0.83237315  1  0  0.340098  0  0.85632  0  0  0.315501  0  0.926556  0  0  0.324053  0  0.918659  0  0  0.306863  0.309527  0  0.932038  0
H  H3  1  0.50830379  0.79253813  0.16762694  1  0  0.340139  0  0.856317  0  0  0.315508  0  0.926608  0  0  0.324063  0  0.918707  0  0  0.306892  0.309526  0  0.932095  0
H  H4  1  0.45817179  0.41391584  0.92664292  1  0  0.353451  0  0.84405  0  0  0.328683  0  0.911875  0  0  0.337477  0  0.903535  0  0  0.302692  0.322413  0  0.917935  0
H  H5  1  0.54185668  0.91391305  0.07335822  1  0  0.35333  0  0.844243  0  0  0.328549  0  0.912079  0  0  0.337345  0  0.903742  0  0  0.302702  0.322271  0  0.918145  0
H  H6  1  0.66216940  0.50666490  0.85772451  1  0  0.344195  0  0.87841  0  0  0.318489  0  0.948081  0  0  0.328055  0  0.940124  0  0  0.303352  0.311421  0  0.954039  0
H  H7  1  0.33784781  0.00666356  0.14227361  1  0  0.344137  0  0.878172  0  0  0.318475  0  0.947796  0  0  0.328015  0  0.939878  0  0  0.303361  0.311402  0  0.953753  0
H  H8  1  0.04932198  0.57067305  0.61678624  1  0  0.085423  0  0.952882  0  0  0.099703  0  1.010226  0  0  0.102362  0  1.009277  0  0  0.098272  0.097803  0  1.010986  0
H  H9  1  0.95066869  0.07066533  0.38321834  1  0  0.08537  0  0.952794  0  0  0.099623  0  1.010184  0  0  0.102283  0  1.009231  0  0  0.09824  0.097727  0  1.010945  0
H  H10  1  0.02151704  0.26356100  0.51219582  1  0  0.077751  0  0.974272  0  0  0.087574  0  1.039945  0  0  0.089959  0  1.039322  0  0  0.095347  0.085786  0  1.040584  0
H  H11  1  0.97845527  0.76355289  0.48780915  1  0  0.077654  0  0.974459  0  0  0.087533  0  1.040076  0  0  0.089944  0  1.039425  0  0  0.095349  0.085746  0  1.040713  0
H  H12  1  0.33959037  0.99018167  0.50256610  1  0  0.081652  0  0.989619  0  0  0.09101  0  1.055527  0  0  0.092535  0  1.057284  0  0  0.093464  0.089926  0  1.054376  0
H  H13  1  0.66036221  0.49018935  0.49743093  1  0  0.081685  0  0.989509  0  0  0.090963  0  1.05551  0  0  0.092488  0  1.057266  0  0  0.093436  0.089884  0  1.054351  0
H  H14  1  0.67996542  0.02954258  0.59850408  1  0  0.083124  0  0.953898  0  0  0.095617  0  1.010988  0  0  0.097918  0  1.010709  0  0  0.097894  0.093963  0  1.011304  0
H  H15  1  0.32000601  0.52955772  0.40149126  1  0  0.083195  0  0.953925  0  0  0.095665  0  1.011032  0  0  0.097964  0  1.010755  0  0  0.097918  0.094011  0  1.011347  0
H  H16  1  0.71132557  0.33937843  0.70092006  1  0  0.099142  0  0.959296  0  0  0.107616  0  1.024787  0  0  0.110888  0  1.023178  0  0  0.097504  0.105254  0  1.026062  0
H  H17  1  0.28866798  0.83939158  0.29907618  1  0  0.099161  0  0.959208  0  0  0.107567  0  1.024787  0  0  0.110839  0  1.023178  0  0  0.097487  0.105207  0  1.026064  0
H  H18  1  0.27840260  0.79704873  0.71032438  1  0  0.102893  0  0.916694  0  0  0.119954  0  0.972898  0  0  0.121383  0  0.972775  0  0  0.103249  0.11893  0  0.972966  0
H  H19  1  0.72160416  0.29705363  0.28967892  1  0  0.102955  0  0.91677  0  0  0.120026  0  0.972906  0  0  0.121456  0  0.972781  0  0  0.10329  0.119003  0  0.972974  0
H  H20  1  0.56549279  0.73375881  0.73378712  1  0  0.111957  0  0.934742  0  0  0.124306  0  0.998167  0  0  0.126792  0  0.99635  0  0  0.100263  0.122568  0  0.999324  0
H  H21  1  0.43452519  0.23376539  0.26621157  1  0  0.112008  0  0.934742  0  0  0.124281  0  0.998242  0  0  0.126755  0  0.996423  0  0  0.100241  0.122547  0  0.999385  0
H  H22  1  0.33461869  0.74821601  0.86352205  1  0  0.072805  0  0.945924  0  0  0.074712  0  1.023587  0  0  0.07716  0  1.021864  0  0  0.111754  0.072905  0  1.02505  0
H  H23  1  0.66540458  0.24821292  0.13648058  1  0  0.072826  0  0.945852  0  0  0.074718  0  1.023551  0  0  0.07715  0  1.021846  0  0  0.111744  0.072951  0  1.024985  0
C  C24  1  0.18838905  0.45202527  0.61253897  1  0  -0.12218  0  3.750459  0  0  -0.14287  0  3.994948  0  0  -0.146148  0  4.017595  0  0  -0.09595  -0.14061  0  3.979666  0
C  C25  1  0.81159040  0.95202865  0.38746199  1  0  -0.122094  0  3.750692  0  0  -0.142751  0  3.995168  0  0  -0.14603  0  4.01783  0  0  -0.095899  -0.140496  0  3.979891  0
C  C26  1  0.17238735  0.27847801  0.55386884  1  0  -0.074981  0  3.798864  0  0  -0.084851  0  4.044057  0  0  -0.086639  0  4.065985  0  0  -0.095477  -0.083536  0  4.029208  0
C  C27  1  0.82758853  0.77848415  0.44613619  1  0  -0.075021  0  3.798825  0  0  -0.084935  0  4.043987  0  0  -0.086746  0  4.06591  0  0  -0.095573  -0.08362  0  4.029142  0
C  C28  1  0.34914912  0.12541729  0.54863357  1  0  -0.085555  0  3.779568  0  0  -0.0995  0  4.023944  0  0  -0.102027  0  4.046815  0  0  -0.097895  -0.097672  0  4.008294  0
C  C29  1  0.65081995  0.62542832  0.45136394  1  0  -0.085392  0  3.779272  0  0  -0.09927  0  4.023656  0  0  -0.101797  0  4.046533  0  0  -0.097757  -0.097444  0  4.008006  0
C  C30  1  0.54125466  0.14800461  0.60241874  1  0  -0.061193  0  3.786772  0  0  -0.072825  0  4.035279  0  0  -0.074077  0  4.056372  0  0  -0.091223  -0.071916  0  4.020981  0
C  C31  1  0.45872148  0.64801942  0.39758015  1  0  -0.061336  0  3.786919  0  0  -0.072969  0  4.03543  0  0  -0.074222  0  4.056521  0  0  -0.091236  -0.072059  0  4.021138  0
C  C32  1  0.55812073  0.32315952  0.66042968  1  0  -0.130695  0  3.726163  0  0  -0.149371  0  3.971618  0  0  -0.152168  0  3.991941  0  0  -0.097517  -0.147402  0  3.957889  0
C  C33  1  0.44186924  0.82316993  0.33956779  1  0  -0.130675  0  3.726275  0  0  -0.149304  0  3.97176  0  0  -0.152101  0  3.992085  0  0  -0.097556  -0.147327  0  3.958013  0
C  C34  1  0.38089225  0.47709146  0.66642130  1  0  0.091504  0  3.758731  0  0  0.1149  0  3.992308  0  0  0.114527  0  4.018213  0  0  -0.017671  0.115194  0  3.97475  0
C  C35  1  0.61910452  0.97710190  0.33358047  1  0  0.091403  0  3.759529  0  0  0.114779  0  3.993046  0  0  0.114405  0  4.018952  0  0  -0.017712  0.115074  0  3.975482  0
C  C36  1  0.39338330  0.66327471  0.73040258  1  0  -0.201099  0  3.666741  0  0  -0.24987  0  3.914039  0  0  -0.251024  0  3.925487  0  0  -0.155525  -0.248808  0  3.905822  0
C  C37  1  0.60662712  0.16327649  0.26959912  1  0  -0.201222  0  3.666922  0  0  -0.249854  0  3.914087  0  0  -0.25099  0  3.925512  0  0  -0.155473  -0.248797  0  3.905927  0
C  C38  1  0.32817570  0.59991784  0.82336492  1  0  0.061061  0  3.539355  0  0  0.03745  0  3.784789  0  0  0.036421  0  3.79579  0  0  0.009762  0.038056  0  3.77751  0
C  C39  1  0.67184083  0.09991053  0.17663537  1  0  0.061202  0  3.539128  0  0  0.037533  0  3.784563  0  0  0.036522  0  3.79556  0  0  0.009764  0.038061  0  3.777364  0
C  C40  1  0.09106809  0.49596881  0.82591742  1  0  0.655379  0  3.838668  0  0  0.600991  0  4.148038  0  0  0.635388  0  4.140129  0  0  0.218181  0.577052  0  4.153043  0
C  C41  1  0.90894764  0.99596475  0.17408385  1  0  0.655249  0  3.838884  0  0  0.600947  0  4.148126  0  0  0.635331  0  4.140235  0  0  0.218217  0.577018  0  4.153133  0
N  N42  1  0.49540305  0.44427665  0.86248058  1  0  -0.514143  0  3.20219  0  0  -0.46988  0  3.416872  0  0  -0.483907  0  3.411496  0  0  -0.613516  -0.460256  0  3.421247  0
N  N43  1  0.50461551  0.94427124  0.13751864  1  0  -0.514071  0  3.202103  0  0  -0.469771  0  3.416742  0  0  -0.483784  0  3.411399  0  0  -0.613581  -0.460112  0  3.421118  0
O  O44  1  0.92030864  0.62602948  0.83288037  1  0  -0.642897  0  2.05925  0  0  -0.581656  0  2.307033  0  0  -0.61075  0  2.297919  0  0  -0.292856  -0.560269  0  2.312549  0
O  O45  1  0.07970478  0.12602597  0.16712190  1  0  -0.642837  0  2.059345  0  0  -0.58168  0  2.307132  0  0  -0.610754  0  2.298017  0  0  -0.29285  -0.560287  0  2.312643  0
O  O46  1  0.07777954  0.29027073  0.81790190  1  0  -0.628908  0  2.013238  0  0  -0.576062  0  2.264946  0  0  -0.603101  0  2.256219  0  0  -0.300675  -0.556954  0  2.270901  0
O  O47  1  0.92223738  0.79026858  0.18210274  1  0  -0.628866  0  2.013175  0  0  -0.576055  0  2.264857  0  0  -0.603089  0  2.25614  0  0  -0.300724  -0.556946  0  2.270812  0
F  F48  1  0.65656550  0.01971770  0.83424651  1  0  -0.510502  0  0.918039  0  0  -0.444264  0  1.097744  0  0  -0.460893  0  1.078768  0  0  -0.256633  -0.431225  0  1.110953  0
F  F49  1  0.34344843  0.51971279  0.16574903  1  0  -0.510518  0  0.918103  0  0  -0.444257  0  1.097794  0  0  -0.460881  0  1.078816  0  0  -0.256616  -0.431205  0  1.110989  0
F  F50  1  0.72086103  0.80146517  0.98545982  1  0  -0.539565  0  0.895344  0  0  -0.476061  0  1.079279  0  0  -0.49405  0  1.060057  0  0  -0.275531  -0.462411  0  1.093087  0
F  F51  1  0.27914063  0.30146116  0.01453636  1  0  -0.539591  0  0.89531  0  0  -0.476071  0  1.079221  0  0  -0.494067  0  1.060009  0  0  -0.275531  -0.462449  0  1.093066  0
F  F52  1  0.80022612  0.23565193  0.98209647  1  0  -0.564044  0  0.934449  0  0  -0.499363  0  1.135846  0  0  -0.5192  0  1.116445  0  0  -0.27699  -0.48383  0  1.14924  0
F  F53  1  0.19977825  0.73565303  0.01790409  1  0  -0.564055  0  0.934427  0  0  -0.499308  0  1.135743  0  0  -0.519157  0  1.116372  0  0  -0.276997  -0.483776  0  1.149137  0
