# generated using pymatgen
data_SmH14C17N3O8
_symmetry_space_group_name_H-M   'P 1'
_cell_length_a   5.87886574
_cell_length_b   16.64168967
_cell_length_c   20.22328034
_cell_angle_alpha   110.43384487
_cell_angle_beta   90.00107748
_cell_angle_gamma   89.99963795
_symmetry_Int_Tables_number   1
_chemical_formula_structural   SmH14C17N3O8
_chemical_formula_sum   'Sm4 H56 C68 N12 O32'
_cell_volume   1854.03249834
_cell_formula_units_Z   4
loop_
 _symmetry_equiv_pos_site_id
 _symmetry_equiv_pos_as_xyz
  1  'x, y, z'
loop_
 _atom_site_type_symbol
 _atom_site_label
 _atom_site_symmetry_multiplicity
 _atom_site_fract_x
 _atom_site_fract_y
 _atom_site_fract_z
 _atom_site_occupancy
 _atom_site_pbe_bader_charge
 _atom_site_pbe_bader_spin_density
 _atom_site_pbe_cm5_charge
 _atom_site_pbe_ddec_charge
 _atom_site_pbe_ddec_spin_density
 _atom_site_pbe_ddec_sum_bond_order
 _atom_site_pbe_magmom
Sm  Sm0  1  0.41762656  0.87007746  0.97125381  1  2.195645  0  1.503226  2.052647  0  2.120522  0
Sm  Sm1  1  0.91763815  0.12992014  0.52874405  1  2.195666  0  1.503238  2.052727  0  2.120415  0
Sm  Sm2  1  0.58238280  0.12992515  0.02874424  1  2.195503  0  1.503234  2.052717  0  2.120357  0
Sm  Sm3  1  0.08238142  0.87007584  0.47125939  1  2.195575  0  1.503257  2.052708  0  2.120456  0
H  H4  1  0.82259950  0.95550563  0.05623116  1  0.647766  0  0.30898  0.407081  0  0.926658  0
H  H5  1  0.32261454  0.04449062  0.44376931  1  0.647609  0  0.30895  0.407012  0  0.926744  0
H  H6  1  0.17740817  0.04449625  0.94376964  1  0.64781  0  0.308964  0.407043  0  0.926717  0
H  H7  1  0.67739992  0.95550478  0.55623198  1  0.647762  0  0.308967  0.407067  0  0.926678  0
H  H8  1  0.88425689  0.85683159  0.02891478  1  0.653961  0  0.312202  0.40348  0  0.924523  0
H  H9  1  0.38425134  0.14316393  0.47108145  1  0.653757  0  0.312221  0.403485  0  0.924525  0
H  H10  1  0.11575077  0.14316964  0.97108631  1  0.65398  0  0.312176  0.403498  0  0.924453  0
H  H11  1  0.61575122  0.85683156  0.52891690  1  0.653969  0  0.31216  0.403478  0  0.924464  0
H  H12  1  0.85288907  0.76219458  0.91899605  1  0.662415  0  0.307239  0.412557  0  0.916287  0
H  H13  1  0.35289829  0.23780973  0.58099898  1  0.663376  0  0.30728  0.41265  0  0.916165  0
H  H14  1  0.14711179  0.23780926  0.08100435  1  0.663527  0  0.307285  0.412613  0  0.916203  0
H  H15  1  0.64710938  0.76219144  0.41900407  1  0.663438  0  0.307278  0.412657  0  0.916146  0
H  H16  1  0.74110856  0.77341216  0.85107256  1  0.614185  0  0.330486  0.416232  0  0.875489  0
H  H17  1  0.24115099  0.22659205  0.64892502  1  0.614193  0  0.330498  0.416259  0  0.875425  0
H  H18  1  0.25889570  0.22658975  0.14892725  1  0.614198  0  0.330503  0.416242  0  0.875489  0
H  H19  1  0.75886178  0.77340781  0.35107862  1  0.614296  0  0.330494  0.416165  0  0.875501  0
H  H20  1  0.78703494  0.65706993  0.97566911  1  0.107549  0  0.111022  0.115634  0  1.005975  0
H  H21  1  0.28707396  0.34292241  0.52431986  1  0.107897  0  0.111003  0.115647  0  1.005793  0
H  H22  1  0.21296422  0.34294045  0.02432884  1  0.107873  0  0.11104  0.115672  0  1.005851  0
H  H23  1  0.71294731  0.65707675  0.47568555  1  0.107992  0  0.110977  0.115641  0  1.005628  0
H  H24  1  0.62435837  0.55507142  0.02691849  1  0.119058  0  0.108768  0.114372  0  1.048519  0
H  H25  1  0.12439654  0.44493324  0.47307385  1  0.119338  0  0.108771  0.114285  0  1.048596  0
H  H26  1  0.37562888  0.44493969  0.97307671  1  0.119134  0  0.108748  0.11427  0  1.048369  0
H  H27  1  0.87559752  0.55506214  0.52692793  1  0.119146  0  0.10882  0.114372  0  1.048667  0
H  H28  1  0.21932939  0.58555154  0.15947355  1  0.089259  0  0.108317  0.11543  0  1.024388  0
H  H29  1  0.71935672  0.41444438  0.34052098  1  0.089225  0  0.108364  0.115493  0  1.02448  0
H  H30  1  0.78063745  0.41444978  0.84052460  1  0.089338  0  0.108317  0.115364  0  1.024297  0
H  H31  1  0.28063564  0.58555168  0.65948001  1  0.089084  0  0.108321  0.115435  0  1.02454  0
H  H32  1  0.38652353  0.68205290  0.10341247  1  0.090003  0  0.108591  0.107165  0  1.02529  0
H  H33  1  0.88654340  0.31793959  0.39657838  1  0.089946  0  0.108606  0.107154  0  1.025488  0
H  H34  1  0.61347223  0.31794578  0.89658734  1  0.090144  0  0.108644  0.107261  0  1.025487  0
H  H35  1  0.11346426  0.68206353  0.60342428  1  0.090465  0  0.108605  0.107234  0  1.025513  0
H  H36  1  0.04771376  0.51411138  0.21189970  1  0.185551  0  0.129903  0.097377  0  1.071595  0
H  H37  1  0.54775137  0.48589065  0.28809240  1  0.185171  0  0.129952  0.097521  0  1.071544  0
H  H38  1  0.95224627  0.48589011  0.78809256  1  0.185308  0  0.129954  0.097477  0  1.07155  0
H  H39  1  0.45223418  0.51409768  0.71190722  1  0.201446  0  0.129959  0.097545  0  1.071666  0
H  H40  1  0.45734162  0.37009192  0.13549984  1  0.1412  0  0.130483  0.098488  0  1.014282  0
H  H41  1  0.95739040  0.62991464  0.36449474  1  0.141629  0  0.130415  0.098388  0  1.014251  0
H  H42  1  0.54259460  0.62992241  0.86449585  1  0.141518  0  0.130432  0.098365  0  1.014175  0
H  H43  1  0.04258155  0.37007170  0.63550675  1  0.141396  0  0.130421  0.098422  0  1.014107  0
H  H44  1  0.47792752  0.98188067  0.78227506  1  0.080508  0  0.104488  0.107677  0  1.01571  0
H  H45  1  0.97795570  0.01811986  0.71772513  1  0.080484  0  0.104532  0.107779  0  1.015556  0
H  H46  1  0.52208695  0.01811664  0.21772731  1  0.080443  0  0.10447  0.107635  0  1.015487  0
H  H47  1  0.02206217  0.98187567  0.28227175  1  0.080652  0  0.104539  0.107764  0  1.015562  0
H  H48  1  0.53075549  0.88080388  0.66024883  1  0.10558  0  0.10317  0.112054  0  1.029718  0
H  H49  1  0.03080385  0.11920041  0.83975243  1  0.105693  0  0.103206  0.112013  0  1.02994  0
H  H50  1  0.46925727  0.11920125  0.33975147  1  0.105566  0  0.103161  0.112027  0  1.029673  0
H  H51  1  0.96919191  0.88079573  0.16024562  1  0.105417  0  0.103185  0.11199  0  1.029852  0
H  H52  1  0.86739419  0.78359014  0.63001552  1  0.107243  0  0.103766  0.107457  0  1.030807  0
H  H53  1  0.36744299  0.21640857  0.86998075  1  0.106818  0  0.103736  0.107398  0  1.03098  0
H  H54  1  0.13263049  0.21642039  0.36997752  1  0.107431  0  0.103716  0.107439  0  1.030967  0
H  H55  1  0.63255446  0.78358422  0.13002123  1  0.107182  0  0.103772  0.107375  0  1.03094  0
H  H56  1  0.14227438  0.78461731  0.72569141  1  0.105953  0  0.105727  0.113296  0  1.010632  0
H  H57  1  0.64231608  0.21537737  0.77430731  1  0.106016  0  0.105685  0.113217  0  1.010671  0
H  H58  1  0.85776050  0.21539003  0.27430017  1  0.105535  0  0.105778  0.113384  0  1.010873  0
H  H59  1  0.35770179  0.78461982  0.22569897  1  0.105815  0  0.10568  0.113222  0  1.010695  0
C  C60  1  0.09899795  0.67610622  0.03612789  1  -0.09727  0  -0.020149  -0.051815  0  3.985226  0
C  C61  1  0.59901928  0.32389012  0.46386837  1  -0.097068  0  -0.020176  -0.051925  0  3.98537  0
C  C62  1  0.90100971  0.32389693  0.96387379  1  -0.097284  0  -0.020046  -0.051858  0  3.985029  0
C  C63  1  0.40100369  0.67610847  0.53613439  1  -0.097497  0  -0.02018  -0.051965  0  3.985423  0
C  C64  1  0.88317613  0.64077793  0.01520959  1  0.04372  0  -0.073336  -0.060984  0  3.941139  0
C  C65  1  0.38322285  0.35922171  0.48477800  1  0.0436  0  -0.073296  -0.060987  0  3.941362  0
C  C66  1  0.11681792  0.35922862  0.98478669  1  0.043965  0  -0.073325  -0.060995  0  3.940991  0
C  C67  1  0.61677971  0.64077810  0.51522710  1  0.044126  0  -0.073242  -0.060851  0  3.941341  0
C  C68  1  0.78913903  0.58419912  0.04455356  1  0.009017  0  -0.08483  -0.162683  0  3.970459  0
C  C69  1  0.28916244  0.41580700  0.45544352  1  -0.049142  0  -0.084957  -0.162705  0  3.970141  0
C  C70  1  0.21083631  0.41580808  0.95544242  1  0.008894  0  -0.085033  -0.162757  0  3.970402  0
C  C71  1  0.71084692  0.58419033  0.54455836  1  -0.049028  0  -0.085033  -0.162858  0  3.970053  0
C  C72  1  0.90953644  0.56462969  0.09666078  1  0.302774  0  0.107282  0.158576  0  4.002482  0
C  C73  1  0.40958530  0.43537537  0.40333389  1  0.361169  0  0.107471  0.158735  0  4.0023  0
C  C74  1  0.09043380  0.43537295  0.90333629  1  0.302246  0  0.107434  0.158698  0  4.002804  0
C  C75  1  0.59041556  0.56462247  0.59667210  1  0.361203  0  0.107378  0.158613  0  4.00244  0
C  C76  1  0.12419822  0.60064267  0.11911355  1  -0.050145  0  -0.086843  -0.170445  0  3.973486  0
C  C77  1  0.62423350  0.39935672  0.38088164  1  -0.050313  0  -0.086868  -0.170511  0  3.974064  0
C  C78  1  0.87578393  0.39935852  0.88088852  1  -0.050065  0  -0.086813  -0.170314  0  3.973825  0
C  C79  1  0.37576226  0.60064501  0.61912405  1  -0.050504  0  -0.086856  -0.17049  0  3.974039  0
C  C80  1  0.21794450  0.65516643  0.08804302  1  0.024816  0  -0.072803  -0.057459  0  3.952285  0
C  C81  1  0.71798087  0.34483351  0.41194582  1  0.024206  0  -0.072771  -0.05734  0  3.952292  0
C  C82  1  0.78203425  0.34483689  0.91195327  1  0.024456  0  -0.072845  -0.057516  0  3.9524  0
C  C83  1  0.28202679  0.65516822  0.58805988  1  0.023766  0  -0.072821  -0.057489  0  3.952391  0
C  C84  1  0.20703405  0.73478719  0.00483801  1  1.52994  0  0.204276  0.587911  0  4.194499  0
C  C85  1  0.70707418  0.26520932  0.49515078  1  1.529315  0  0.204177  0.587892  0  4.194731  0
C  C86  1  0.79296340  0.26521539  0.99516102  1  1.529865  0  0.20413  0.587839  0  4.194751  0
C  C87  1  0.29293348  0.73479062  0.50484992  1  1.529815  0  0.204114  0.58778  0  4.195105  0
C  C88  1  0.89701556  0.48559131  0.18158915  1  0.931619  0  0.150021  0.082672  0  3.913563  0
C  C89  1  0.39706733  0.51440914  0.31840115  1  0.932558  0  0.149756  0.08239  0  3.913649  0
C  C90  1  0.10293937  0.51440945  0.81840586  1  0.931687  0  0.149819  0.082503  0  3.913626  0
C  C91  1  0.60290121  0.48558307  0.68159867  1  0.915308  0  0.149779  0.082401  0  3.91311  0
C  C92  1  0.59595704  0.41557128  0.14261560  1  0.937352  0  0.141369  0.137773  0  4.007591  0
C  C93  1  0.09601651  0.58443684  0.35737436  1  0.936603  0  0.141346  0.137739  0  4.008059  0
C  C94  1  0.40397918  0.58444177  0.85737970  1  0.937116  0  0.141396  0.137907  0  4.007742  0
C  C95  1  0.90395543  0.41555091  0.64262311  1  0.936766  0  0.141322  0.137772  0  4.00814  0
C  C96  1  0.96335221  0.88288823  0.80679951  1  -0.033204  0  -0.020195  -0.085861  0  3.985454  0
C  C97  1  0.46338424  0.11711084  0.69319777  1  -0.033388  0  -0.020113  -0.085998  0  3.985577  0
C  C98  1  0.03665886  0.11711066  0.19319344  1  -0.033348  0  -0.020122  -0.085609  0  3.985161  0
C  C99  1  0.53665234  0.88288833  0.30680715  1  -0.033276  0  -0.020197  -0.086013  0  3.985526  0
C  C100  1  0.77624124  0.93936325  0.82267901  1  -0.063774  0  0.000643  -0.034292  0  3.930233  0
C  C101  1  0.27625464  0.06063167  0.67732510  1  -0.063839  0  0.000563  -0.034278  0  3.930259  0
C  C102  1  0.22378343  0.06063216  0.17732179  1  -0.06414  0  0.000454  -0.034753  0  3.930595  0
C  C103  1  0.72375982  0.93936107  0.32267834  1  -0.064162  0  0.000577  -0.034337  0  3.930501  0
C  C104  1  0.62219440  0.93788801  0.76953153  1  0.034259  0  -0.080946  -0.102369  0  3.948217  0
C  C105  1  0.12222845  0.06211025  0.73046582  1  0.034352  0  -0.080917  -0.102409  0  3.948277  0
C  C106  1  0.37779795  0.06211577  0.23047083  1  0.034732  0  -0.080793  -0.102026  0  3.948658  0
C  C107  1  0.87778432  0.93788457  0.26953331  1  0.034327  0  -0.080856  -0.102302  0  3.948211  0
C  C108  1  0.65278010  0.88086819  0.70082211  1  -0.07309  0  -0.076942  -0.051431  0  3.951322  0
C  C109  1  0.15280080  0.11913235  0.79918136  1  -0.073035  0  -0.077049  -0.051519  0  3.950944  0
C  C110  1  0.34723266  0.11912613  0.29917193  1  -0.073061  0  -0.076986  -0.051521  0  3.951635  0
C  C111  1  0.84719495  0.88086178  0.20081905  1  -0.072898  0  -0.076992  -0.051521  0  3.951157  0
C  C112  1  0.84050498  0.82575985  0.68437880  1  -0.028773  0  -0.085144  -0.081516  0  3.979202  0
C  C113  1  0.34055652  0.17424535  0.81562244  1  -0.028363  0  -0.085152  -0.08148  0  3.97929  0
C  C114  1  0.15950778  0.17424411  0.31561768  1  -0.028684  0  -0.085161  -0.081568  0  3.979378  0
C  C115  1  0.65945965  0.82575257  0.18438110  1  -0.028581  0  -0.085243  -0.081416  0  3.979276  0
C  C116  1  0.99406706  0.82663319  0.73708345  1  -0.092158  0  -0.079827  -0.089354  0  3.959126  0
C  C117  1  0.49408770  0.17336638  0.76291495  1  -0.092177  0  -0.079725  -0.089088  0  3.959484  0
C  C118  1  0.00594571  0.17337911  0.26291509  1  -0.091823  0  -0.079879  -0.089493  0  3.95919  0
C  C119  1  0.50591997  0.82662762  0.23708987  1  -0.091921  0  -0.07968  -0.089116  0  3.959038  0
C  C120  1  0.12893323  0.88167791  0.86226684  1  1.527816  0  0.194197  0.563583  0  4.232684  0
C  C121  1  0.62892758  0.11831476  0.63772633  1  1.52798  0  0.194157  0.563583  0  4.232837  0
C  C122  1  0.87109144  0.11831766  0.13772857  1  1.528537  0  0.194196  0.563397  0  4.233014  0
C  C123  1  0.37108348  0.88167995  0.36227623  1  1.527249  0  0.194203  0.563541  0  4.232993  0
C  C124  1  0.72594601  0.00189799  0.89470075  1  1.574117  0  0.224797  0.643248  0  4.16542  0
C  C125  1  0.22595224  0.99809740  0.60530157  1  1.574324  0  0.224796  0.643289  0  4.165731  0
C  C126  1  0.27406845  0.99810399  0.10529662  1  1.574519  0  0.224842  0.643516  0  4.165268  0
C  C127  1  0.77407754  0.00189539  0.39470040  1  1.574745  0  0.224848  0.643423  0  4.165315  0
N  N128  1  0.81579205  0.50703346  0.12680818  1  -0.85677  0  -0.119836  0.125299  0  3.75232  0
N  N129  1  0.31583944  0.49297840  0.37318569  1  -0.85703  0  -0.119951  0.125119  0  3.752632  0
N  N130  1  0.18416969  0.49297254  0.87318497  1  -0.857149  0  -0.119947  0.125126  0  3.752547  0
N  N131  1  0.68414781  0.50701839  0.62681256  1  -0.857024  0  -0.11987  0.125302  0  3.752608  0
N  N132  1  0.62072227  0.46210379  0.10139037  1  -0.674389  0  -0.219233  -0.261625  0  3.104656  0
N  N133  1  0.12077954  0.53790791  0.39860263  1  -0.673627  0  -0.21921  -0.261425  0  3.105027  0
N  N134  1  0.37923437  0.53790860  0.89860522  1  -0.674166  0  -0.219206  -0.261431  0  3.104802  0
N  N135  1  0.87920431  0.46208169  0.60139787  1  -0.673221  0  -0.219119  -0.261398  0  3.105055  0
N  N136  1  0.76128220  0.42798023  0.19304412  1  -1.176657  0  -0.345196  -0.346943  0  3.251046  0
N  N137  1  0.26132826  0.57202114  0.30694412  1  -1.177338  0  -0.344946  -0.346815  0  3.251412  0
N  N138  1  0.23866082  0.57202703  0.80694990  1  -1.176389  0  -0.345039  -0.34703  0  3.251084  0
N  N139  1  0.73864369  0.42796277  0.69305218  1  -1.176842  0  -0.345002  -0.346942  0  3.25108  0
O  O140  1  0.41877322  0.75003602  0.01310031  1  -1.181988  0  -0.37357  -0.602064  0  2.227574  0
O  O141  1  0.91879425  0.24995697  0.48689264  1  -1.1823  0  -0.373437  -0.60186  0  2.227771  0
O  O142  1  0.58122594  0.24996722  0.98689842  1  -1.18203  0  -0.373498  -0.602018  0  2.227557  0
O  O143  1  0.08122532  0.75003782  0.51310747  1  -1.182323  0  -0.373358  -0.601764  0  2.228145  0
O  O144  1  0.08594448  0.77302773  0.97072827  1  -1.211274  0  -0.369179  -0.673292  0  2.285456  0
O  O145  1  0.58596438  0.22696755  0.52926079  1  -1.210461  0  -0.369205  -0.673467  0  2.285307  0
O  O146  1  0.91406318  0.22697424  0.02926958  1  -1.211199  0  -0.369138  -0.673255  0  2.285494  0
O  O147  1  0.41405008  0.77302651  0.47074207  1  -1.210774  0  -0.369247  -0.673489  0  2.2856  0
O  O148  1  0.11042091  0.93830811  0.92497150  1  -1.184405  0  -0.362905  -0.627705  0  2.268707  0
O  O149  1  0.61041746  0.06169321  0.57502433  1  -1.184728  0  -0.362875  -0.627628  0  2.268933  0
O  O150  1  0.88957825  0.06169440  0.07502998  1  -1.185036  0  -0.362876  -0.627572  0  2.269093  0
O  O151  1  0.38960721  0.93830538  0.42497843  1  -1.183784  0  -0.362896  -0.627627  0  2.269001  0
O  O152  1  0.28263492  0.82430561  0.84870634  1  -1.18163  0  -0.380156  -0.614647  0  2.173551  0
O  O153  1  0.78263894  0.17569874  0.65128926  1  -1.18156  0  -0.38021  -0.614757  0  2.173055  0
O  O154  1  0.71738465  0.17570469  0.15129405  1  -1.18179  0  -0.380205  -0.614679  0  2.173099  0
O  O155  1  0.21737383  0.82430565  0.34871428  1  -1.181843  0  -0.380191  -0.614671  0  2.173411  0
O  O156  1  0.77792877  0.08002025  0.91079623  1  -1.167444  0  -0.348224  -0.595594  0  2.218719  0
O  O157  1  0.27791981  0.91998117  0.58920837  1  -1.16782  0  -0.348225  -0.595646  0  2.21915  0
O  O158  1  0.22209250  0.91998305  0.08920054  1  -1.167813  0  -0.348199  -0.595607  0  2.218791  0
O  O159  1  0.72211507  0.08002000  0.41079468  1  -1.167762  0  -0.348218  -0.595655  0  2.21877  0
O  O160  1  0.60957960  0.97712714  0.93795334  1  -1.214275  0  -0.442591  -0.744862  0  2.428085  0
O  O161  1  0.10957648  0.02287320  0.56205307  1  -1.214107  0  -0.442581  -0.744905  0  2.428241  0
O  O162  1  0.39043317  0.02287669  0.06204706  1  -1.214432  0  -0.442556  -0.74491  0  2.428094  0
O  O163  1  0.89044480  0.97712263  0.43795527  1  -1.214483  0  -0.442632  -0.744939  0  2.428135  0
O  O164  1  0.75560567  0.89704932  0.04310864  1  -1.278455  0  -0.645174  -0.840152  0  2.080383  0
O  O165  1  0.25561143  0.10294903  0.45689056  1  -1.278125  0  -0.645195  -0.840113  0  2.080499  0
O  O166  1  0.24440369  0.10294999  0.95689187  1  -1.278529  0  -0.645155  -0.84011  0  2.080332  0
O  O167  1  0.74440133  0.89705151  0.54311180  1  -1.278497  0  -0.645123  -0.840087  0  2.0803  0
O  O168  1  0.70544878  0.76758836  0.89623724  1  -1.255431  0  -0.611837  -0.82489  0  2.028727  0
O  O169  1  0.20547388  0.23241201  0.60375970  1  -1.256427  0  -0.611893  -0.824994  0  2.028533  0
O  O170  1  0.29455208  0.23241227  0.10376219  1  -1.256554  0  -0.611916  -0.824996  0  2.028694  0
O  O171  1  0.79453719  0.76758268  0.39624336  1  -1.256604  0  -0.61187  -0.824904  0  2.028644  0
