# generated using pymatgen
data_ZnH17C12N2ClO2
_symmetry_space_group_name_H-M   'P 1'
_cell_length_a   7.00510230
_cell_length_b   13.19551907
_cell_length_c   16.35178412
_cell_angle_alpha   90.00010978
_cell_angle_beta   90.00002293
_cell_angle_gamma   89.99997415
_symmetry_Int_Tables_number   1
_chemical_formula_structural   ZnH17C12N2ClO2
_chemical_formula_sum   'Zn4 H68 C48 N8 Cl4 O8'
_cell_volume   1511.49287820
_cell_formula_units_Z   4
loop_
 _symmetry_equiv_pos_site_id
 _symmetry_equiv_pos_as_xyz
  1  'x, y, z'
loop_
 _atom_site_type_symbol
 _atom_site_label
 _atom_site_symmetry_multiplicity
 _atom_site_fract_x
 _atom_site_fract_y
 _atom_site_fract_z
 _atom_site_occupancy
 _atom_site_pbe_bader_charge
 _atom_site_pbe_bader_spin_density
 _atom_site_pbe_cm5_charge
 _atom_site_pbe_ddec_charge
 _atom_site_pbe_ddec_spin_density
 _atom_site_pbe_ddec_sum_bond_order
 _atom_site_pbe_magmom
Zn  Zn0  1  0.80323340  0.30195499  0.89339211  1  1.223088  0  0.632098  0.754849  0  2.390726  0
Zn  Zn1  1  0.69676488  0.69804492  0.39339253  1  1.223114  0  0.632074  0.754799  0  2.390859  0
Zn  Zn2  1  0.30323323  0.19804232  0.10660750  1  1.223187  0  0.632132  0.754859  0  2.390527  0
Zn  Zn3  1  0.19677081  0.80195627  0.60660783  1  1.223243  0  0.632144  0.754875  0  2.390609  0
H  H4  1  0.84278604  0.12661204  0.82072651  1  0.419577  0  0.29679  0.246096  0  0.959787  0
H  H5  1  0.65721502  0.87338770  0.32072658  1  0.419604  0  0.296766  0.246083  0  0.95983  0
H  H6  1  0.34278436  0.37338677  0.17927311  1  0.419281  0  0.296768  0.246103  0  0.959812  0
H  H7  1  0.15721547  0.62661351  0.67927377  1  0.419272  0  0.296766  0.246097  0  0.959794  0
H  H8  1  0.52092500  0.04444031  0.87756487  1  0.066818  0  0.108574  0.075328  0  0.995102  0
H  H9  1  0.97907184  0.95555880  0.37756818  1  0.066876  0  0.108573  0.075345  0  0.99508  0
H  H10  1  0.02092461  0.45555706  0.12243286  1  0.066879  0  0.108565  0.075306  0  0.995123  0
H  H11  1  0.47907230  0.54443929  0.62243284  1  0.066855  0  0.108582  0.075338  0  0.995099  0
H  H12  1  0.71477614  0.00539418  0.00624709  1  0.055062  0  0.096159  0.102174  0  0.992287  0
H  H13  1  0.78521890  0.99460633  0.50624895  1  0.055046  0  0.096135  0.102174  0  0.992256  0
H  H14  1  0.21477944  0.49460618  0.99375190  1  0.055081  0  0.096148  0.102171  0  0.9923  0
H  H15  1  0.28521642  0.50539409  0.49375204  1  0.05457  0  0.096143  0.102158  0  0.99231  0
H  H16  1  0.89708655  0.08459037  0.96716371  1  0.062895  0  0.096046  0.10504  0  1.000999  0
H  H17  1  0.60290752  0.91540896  0.46716507  1  0.062842  0  0.096064  0.105044  0  1.000923  0
H  H18  1  0.39709040  0.41540768  0.03283591  1  0.062875  0  0.096039  0.105022  0  1.000985  0
H  H19  1  0.10290786  0.58459225  0.53283650  1  0.062839  0  0.096046  0.105029  0  1.000919  0
H  H20  1  0.68868685  0.22753788  0.72666406  1  0.065909  0  0.11153  0.100603  0  0.97321  0
H  H21  1  0.81132126  0.77246240  0.22666461  1  0.065906  0  0.11148  0.10049  0  0.973136  0
H  H22  1  0.18867963  0.27246401  0.27333676  1  0.065888  0  0.111477  0.100513  0  0.97312  0
H  H23  1  0.31131886  0.72753725  0.77333638  1  0.065942  0  0.111473  0.100475  0  0.973148  0
H  H24  1  0.48341364  0.23634703  0.79029319  1  0.090194  0  0.107534  0.099224  0  1.002434  0
H  H25  1  0.01659058  0.76365276  0.29029613  1  0.090119  0  0.10751  0.09917  0  1.002434  0
H  H26  1  0.98340890  0.26365403  0.20970584  1  0.090129  0  0.107512  0.099176  0  1.002469  0
H  H27  1  0.51659206  0.73634620  0.70970604  1  0.090123  0  0.1075  0.099145  0  1.002444  0
H  H28  1  0.60615524  0.88216604  0.61793697  1  0.144711  0  0.113311  0.093509  0  1.032168  0
H  H29  1  0.89385276  0.11783170  0.11793836  1  0.144798  0  0.11331  0.09346  0  1.032275  0
H  H30  1  0.10615112  0.61783366  0.38206338  1  0.144702  0  0.113326  0.093545  0  1.032183  0
H  H31  1  0.39384748  0.38216710  0.88206248  1  0.144709  0  0.113303  0.093525  0  1.032215  0
H  H32  1  0.76928387  0.03309528  0.67596241  1  0.091922  0  0.108379  0.116513  0  1.002411  0
H  H33  1  0.73072276  0.96690487  0.17596570  1  0.091991  0  0.108399  0.116544  0  1.002344  0
H  H34  1  0.26927940  0.46690506  0.32403658  1  0.091985  0  0.108388  0.116544  0  1.002295  0
H  H35  1  0.23072058  0.53309480  0.82403589  1  0.091986  0  0.108388  0.116558  0  1.002288  0
H  H36  1  0.08281814  0.97028021  0.71071036  1  0.112546  0  0.102478  0.071796  0  1.059238  0
H  H37  1  0.41718743  0.02972014  0.21071407  1  0.112447  0  0.1025  0.071812  0  1.059306  0
H  H38  1  0.58281653  0.52972631  0.28928387  1  0.112669  0  0.102489  0.071762  0  1.059275  0
H  H39  1  0.91718451  0.47027639  0.78928801  1  0.112475  0  0.102475  0.071774  0  1.059285  0
H  H40  1  0.22303490  0.13097717  0.77039495  1  0.148013  0  0.091856  0.117133  0  1.061688  0
H  H41  1  0.27696931  0.86902408  0.27039993  1  0.148437  0  0.091834  0.117064  0  1.061728  0
H  H42  1  0.72303294  0.36903001  0.22959792  1  0.139204  0  0.091871  0.11709  0  1.061752  0
H  H43  1  0.77696947  0.63097406  0.72960350  1  0.147938  0  0.091845  0.117043  0  1.061765  0
H  H44  1  0.90542289  0.96717846  0.84025775  1  -0.042469  0  0.081872  0.036815  0  0.988698  0
H  H45  1  0.59457534  0.03282133  0.34025897  1  -0.04244  0  0.08187  0.036791  0  0.988698  0
H  H46  1  0.40542576  0.53282041  0.15974203  1  -0.042508  0  0.081878  0.036792  0  0.988726  0
H  H47  1  0.09457262  0.46717982  0.65974183  1  -0.04251  0  0.081872  0.036787  0  0.988703  0
H  H48  1  0.65837165  0.83114760  0.94963957  1  -0.000386  0  0.082269  0.111716  0  1.008407  0
H  H49  1  0.84162669  0.16885170  0.44964288  1  -0.000462  0  0.082276  0.111752  0  1.008265  0
H  H50  1  0.15837144  0.66885134  0.05035956  1  -0.000378  0  0.082257  0.111701  0  1.008388  0
H  H51  1  0.34162683  0.33114939  0.55035858  1  -0.000414  0  0.082265  0.111701  0  1.008375  0
H  H52  1  0.76845709  0.79526483  0.85545167  1  0.04017  0  0.077302  0.117125  0  1.033483  0
H  H53  1  0.73154401  0.20473423  0.35545440  1  0.040068  0  0.077289  0.117102  0  1.033585  0
H  H54  1  0.26845837  0.70473331  0.14454748  1  0.0402  0  0.077276  0.117101  0  1.033555  0
H  H55  1  0.23154142  0.29526613  0.64454643  1  0.040187  0  0.0773  0.117105  0  1.033573  0
H  H56  1  0.58373598  0.88661026  0.85578991  1  0.027465  0  0.078437  0.106835  0  1.026645  0
H  H57  1  0.91626226  0.11338881  0.35579253  1  0.027515  0  0.078435  0.106832  0  1.026687  0
H  H58  1  0.08373877  0.61338869  0.14420982  1  0.027484  0  0.078446  0.106825  0  1.026659  0
H  H59  1  0.41625960  0.38661226  0.64420955  1  0.027508  0  0.078473  0.106854  0  1.026642  0
H  H60  1  0.14569529  0.95880009  0.95416758  1  0.039617  0  0.084817  0.124072  0  1.010988  0
H  H61  1  0.35429910  0.04119933  0.45416763  1  0.039577  0  0.084799  0.124064  0  1.010929  0
H  H62  1  0.64569771  0.54119809  0.04583216  1  0.039589  0  0.08482  0.124077  0  1.010934  0
H  H63  1  0.85429880  0.45880099  0.54583260  1  0.039578  0  0.084839  0.124154  0  1.010899  0
H  H64  1  0.09917494  0.83722695  0.91066214  1  0.025382  0  0.081211  0.109628  0  1.015594  0
H  H65  1  0.40082226  0.16277312  0.41066360  1  0.025196  0  0.08121  0.109628  0  1.015637  0
H  H66  1  0.59917588  0.66277199  0.08933638  1  0.025177  0  0.081176  0.109585  0  1.015573  0
H  H67  1  0.90082068  0.33722795  0.58933664  1  0.025191  0  0.081189  0.109619  0  1.015576  0
H  H68  1  0.99749398  0.87088795  0.00644408  1  0.039002  0  0.080605  0.109491  0  1.01362  0
H  H69  1  0.50250106  0.12911180  0.50644579  1  0.038997  0  0.080611  0.109512  0  1.013577  0
H  H70  1  0.49749331  0.62910938  0.99355449  1  0.038996  0  0.08061  0.109488  0  1.013589  0
H  H71  1  0.00250112  0.37088937  0.49355499  1  0.039025  0  0.080601  0.109509  0  1.013583  0
C  C72  1  0.62850514  0.09568273  0.90401830  1  0.285264  0  -0.00287  -0.00124  0  3.856142  0
C  C73  1  0.87149315  0.90431645  0.40401968  1  0.285258  0  -0.002867  -0.001279  0  3.856236  0
C  C74  1  0.12850478  0.40431538  0.09598128  1  0.285357  0  -0.002874  -0.00124  0  3.856255  0
C  C75  1  0.37149497  0.59568318  0.59598133  1  0.285346  0  -0.002909  -0.00127  0  3.856256  0
C  C76  1  0.78021176  0.03314032  0.94933870  1  -0.056286  0  -0.161188  -0.231775  0  3.863413  0
C  C77  1  0.71978515  0.96685897  0.44934015  1  -0.056278  0  -0.161218  -0.231782  0  3.863273  0
C  C78  1  0.28021415  0.46685851  0.05066091  1  -0.056148  0  -0.161199  -0.23177  0  3.863376  0
C  C79  1  0.21978413  0.53314146  0.55066022  1  -0.055753  0  -0.161194  -0.231723  0  3.863284  0
C  C80  1  0.50814564  0.09461929  0.72861847  1  -0.031342  0  0.009488  0.140168  0  3.946535  0
C  C81  1  0.99185961  0.90538174  0.22862170  1  -0.031211  0  0.009387  0.140122  0  3.946414  0
C  C82  1  0.00814402  0.40538491  0.27137865  1  -0.031197  0  0.00943  0.140144  0  3.94658  0
C  C83  1  0.49185875  0.59461635  0.77138116  1  -0.031301  0  0.009416  0.140144  0  3.94658  0
C  C84  1  0.59725068  0.18531754  0.76943305  1  0.263964  0  -0.067718  -0.09568  0  3.906957  0
C  C85  1  0.90275319  0.81468359  0.26943552  1  0.264304  0  -0.067659  -0.095537  0  3.90684  0
C  C86  1  0.09724767  0.31468436  0.23056592  1  0.264012  0  -0.067599  -0.095518  0  3.906764  0
C  C87  1  0.40275221  0.68531604  0.73056610  1  0.264052  0  -0.067569  -0.095434  0  3.906775  0
C  C88  1  0.52438389  0.16378927  0.96530095  1  1.584151  0  0.210659  0.575088  0  4.145416  0
C  C89  1  0.97561160  0.83621006  0.46530346  1  1.584186  0  0.210758  0.575208  0  4.145271  0
C  C90  1  0.02440066  0.33619674  0.03470106  1  1.584146  0  0.210634  0.574978  0  4.145165  0
C  C91  1  0.47559760  0.66380168  0.53470183  1  1.584136  0  0.210519  0.574824  0  4.145409  0
C  C92  1  0.52644191  0.93900660  0.65206233  1  0.481664  0  0.053085  0.104388  0  3.924008  0
C  C93  1  0.97356470  0.06099274  0.15206549  1  0.481695  0  0.053125  0.104448  0  3.924136  0
C  C94  1  0.02644066  0.56099464  0.34793555  1  0.48165  0  0.053089  0.104405  0  3.924129  0
C  C95  1  0.47355791  0.43900680  0.84793659  1  0.481623  0  0.053104  0.10441  0  3.924224  0
C  C96  1  0.61589283  0.02393084  0.68477305  1  -0.097023  0  -0.08091  -0.175404  0  3.93671  0
C  C97  1  0.88411239  0.97606934  0.18477638  1  -0.097042  0  -0.080984  -0.175524  0  3.936778  0
C  C98  1  0.11588834  0.47607258  0.31522592  1  -0.097095  0  -0.080953  -0.175487  0  3.936802  0
C  C99  1  0.38411163  0.52392727  0.81522646  1  -0.097036  0  -0.08097  -0.175566  0  3.936896  0
C  C100  1  0.23345690  0.98972239  0.70386954  1  0.46745  0  0.044469  0.096978  0  3.946899  0
C  C101  1  0.26655009  0.01027719  0.20387320  1  0.467416  0  0.04442  0.096893  0  3.947244  0
C  C102  1  0.73345531  0.51028258  0.29612532  1  0.46722  0  0.044431  0.097014  0  3.947067  0
C  C103  1  0.76654716  0.48972013  0.79612886  1  0.467447  0  0.044468  0.096939  0  3.947056  0
C  C104  1  0.31228413  0.07663292  0.73751227  1  -0.027538  0  -0.086733  -0.178856  0  3.936593  0
C  C105  1  0.18772289  0.92336826  0.23751670  1  -0.028103  0  -0.086617  -0.178644  0  3.936454  0
C  C106  1  0.81228216  0.42337273  0.26248245  1  -0.018729  0  -0.086694  -0.178775  0  3.936703  0
C  C107  1  0.68772028  0.57662991  0.76248671  1  -0.02754  0  -0.086658  -0.178625  0  3.936711  0
C  C108  1  0.85943788  0.94196316  0.90170240  1  0.083975  0  -0.092824  0.130382  0  3.872732  0
C  C109  1  0.64056041  0.05803677  0.40170427  1  0.083735  0  -0.092778  0.13047  0  3.872633  0
C  C110  1  0.35943924  0.55803420  0.09829799  1  0.084096  0  -0.092796  0.130456  0  3.87266  0
C  C111  1  0.14055765  0.44196512  0.59829776  1  0.084243  0  -0.092741  0.13053  0  3.872523  0
C  C112  1  0.70870492  0.85918582  0.88996721  1  -0.078831  0  -0.250647  -0.394048  0  3.930723  0
C  C113  1  0.79129193  0.14081332  0.38996985  1  -0.078671  0  -0.250664  -0.394095  0  3.93074  0
C  C114  1  0.20870765  0.64081234  0.11003254  1  -0.079099  0  -0.250638  -0.394028  0  3.930758  0
C  C115  1  0.29128925  0.35918778  0.61003159  1  -0.079045  0  -0.250735  -0.394096  0  3.930783  0
C  C116  1  0.03605094  0.90010137  0.94552810  1  -0.103509  0  -0.246236  -0.390804  0  3.924705  0
C  C117  1  0.46394629  0.09989878  0.44552887  1  -0.103089  0  -0.246227  -0.390844  0  3.924628  0
C  C118  1  0.53605190  0.59989758  0.05447162  1  -0.103267  0  -0.246204  -0.390763  0  3.924538  0
C  C119  1  0.96394462  0.40010152  0.55447138  1  -0.103346  0  -0.246241  -0.390933  0  3.924535  0
N  N120  1  0.71875216  0.15901475  0.84070477  1  -1.074882  0  -0.474745  -0.341112  0  3.531012  0
N  N121  1  0.78124893  0.84098428  0.34070665  1  -1.07524  0  -0.474687  -0.341099  0  3.531189  0
N  N122  1  0.21874906  0.34098486  0.15929360  1  -1.074622  0  -0.474723  -0.341147  0  3.531147  0
N  N123  1  0.28125218  0.65901386  0.65929372  1  -1.074604  0  -0.474741  -0.341179  0  3.531191  0
N  N124  1  0.33843753  0.92184399  0.66196581  1  -1.261439  0  -0.328307  -0.222084  0  3.548381  0
N  N125  1  0.16157085  0.07815474  0.16196833  1  -1.261431  0  -0.328261  -0.221995  0  3.548468  0
N  N126  1  0.83843592  0.57815945  0.33803213  1  -1.261414  0  -0.328257  -0.222031  0  3.548342  0
N  N127  1  0.66156230  0.42184337  0.83803370  1  -1.261392  0  -0.328263  -0.222015  0  3.548279  0
Cl  Cl128  1  0.07766081  0.29528301  0.80951435  1  -0.700079  0  -0.326925  -0.562211  0  1.12887  0
Cl  Cl129  1  0.42233915  0.70471530  0.30951604  1  -0.700066  0  -0.326931  -0.562207  0  1.128895  0
Cl  Cl130  1  0.57766323  0.20471511  0.19048339  1  -0.700103  0  -0.32693  -0.562209  0  1.128821  0
Cl  Cl131  1  0.92234342  0.79528432  0.69048681  1  -0.70013  0  -0.326917  -0.56219  0  1.12884  0
O  O132  1  0.56250750  0.25750138  0.96797841  1  -1.171513  0  -0.307817  -0.528196  0  2.288111  0
O  O133  1  0.93748800  0.74249795  0.46798077  1  -1.171559  0  -0.307839  -0.5282  0  2.28802  0
O  O134  1  0.06249864  0.24250660  0.03202177  1  -1.171738  0  -0.307712  -0.528013  0  2.288825  0
O  O135  1  0.43750247  0.75748954  0.53202207  1  -1.171643  0  -0.307656  -0.527899  0  2.289008  0
O  O136  1  0.40780699  0.11822495  0.01226301  1  -1.173578  0  -0.322085  -0.523579  0  2.33216  0
O  O137  1  0.09219125  0.88177342  0.51226528  1  -1.173639  0  -0.322154  -0.523682  0  2.332214  0
O  O138  1  0.90780005  0.38177992  0.98772928  1  -1.173471  0  -0.32215  -0.523638  0  2.33127  0
O  O139  1  0.59220403  0.61821644  0.48772956  1  -1.173475  0  -0.322053  -0.523582  0  2.331238  0
