# generated using pymatgen
data_Ag2H18C23N12
_symmetry_space_group_name_H-M   'P 1'
_cell_length_a   7.78876520
_cell_length_b   8.26966217
_cell_length_c   10.31695733
_cell_angle_alpha   103.44350946
_cell_angle_beta   94.34078171
_cell_angle_gamma   89.61601766
_symmetry_Int_Tables_number   1
_chemical_formula_structural   Ag2H18C23N12
_chemical_formula_sum   'Ag2 H18 C23 N12'
_cell_volume   644.41722716
_cell_formula_units_Z   1
loop_
 _symmetry_equiv_pos_site_id
 _symmetry_equiv_pos_as_xyz
  1  'x, y, z'
loop_
 _atom_site_type_symbol
 _atom_site_label
 _atom_site_symmetry_multiplicity
 _atom_site_fract_x
 _atom_site_fract_y
 _atom_site_fract_z
 _atom_site_occupancy
 _atom_site_hle17_bader_spin_density
 _atom_site_hle17_ddec_charge
 _atom_site_hle17_ddec_spin_density
 _atom_site_hle17_ddec_sum_bond_order
 _atom_site_hle17_magmom
 _atom_site_hse06_10hf_bader_spin_density
 _atom_site_hse06_10hf_ddec_charge
 _atom_site_hse06_10hf_ddec_spin_density
 _atom_site_hse06_10hf_ddec_sum_bond_order
 _atom_site_hse06_10hf_magmom
 _atom_site_hse06_bader_spin_density
 _atom_site_hse06_ddec_charge
 _atom_site_hse06_ddec_spin_density
 _atom_site_hse06_ddec_sum_bond_order
 _atom_site_hse06_magmom
 _atom_site_pbe_bader_spin_density
 _atom_site_pbe_cm5_charge
 _atom_site_pbe_ddec_charge
 _atom_site_pbe_ddec_spin_density
 _atom_site_pbe_ddec_sum_bond_order
 _atom_site_pbe_magmom
Ag  Ag0  1  0.18755327  0.15211197  0.46425474  1  0  0.551976  0  1.659919  0  0  0.414995  0  2.156351  0  0  0.434528  0  2.111734  0  0  0.525247  0.403164  0  2.186192  0
Ag  Ag1  1  0.34707589  0.32667848  0.12204464  1  0  0.555332  0  1.659576  0  0  0.421319  0  2.156487  0  0  0.440716  0  2.112127  0  0  0.524595  0.409625  0  2.186345  0
H  H2  1  0.95404833  0.17941202  0.96271483  1  0  0.083761  0  0.940249  0  0  0.092365  0  1.003555  0  0  0.094189  0  1.003793  0  0  0.111463  0.091028  0  1.003707  0
H  H3  1  0.85921362  0.60036402  0.81529620  1  0  0.081724  0  0.954733  0  0  0.087603  0  1.021876  0  0  0.089949  0  1.021401  0  0  0.112329  0.085928  0  1.022397  0
H  H4  1  0.01701592  0.47361991  0.61285738  1  0  0.089125  0  0.954752  0  0  0.09421  0  1.023244  0  0  0.096632  0  1.021639  0  0  0.113454  0.092685  0  1.024083  0
H  H5  1  0.22836189  0.97985219  0.69295165  1  0  0.116854  0  0.967901  0  0  0.135611  0  1.03282  0  0  0.136575  0  1.033548  0  0  0.091817  0.134851  0  1.032399  0
H  H6  1  0.01284973  0.90749024  0.68096320  1  0  0.138061  0  0.940865  0  0  0.158412  0  1.003114  0  0  0.159629  0  1.00212  0  0  0.099337  0.157512  0  1.003849  0
H  H7  1  0.13301047  0.95436136  0.83947885  1  0  0.117099  0  0.956772  0  0  0.138431  0  1.015379  0  0  0.138956  0  1.016556  0  0  0.091586  0.138056  0  1.014506  0
H  H8  1  0.57229907  0.31787283  0.61628957  1  0  0.079171  0  0.951423  0  0  0.087588  0  1.015396  0  0  0.089348  0  1.015709  0  0  0.108388  0.086275  0  1.015506  0
H  H9  1  0.67271277  0.89052058  0.75320166  1  0  0.079912  0  0.956743  0  0  0.085131  0  1.024522  0  0  0.087447  0  1.024127  0  0  0.109908  0.083391  0  1.025034  0
H  H10  1  0.52641401  0.01355441  0.96133037  1  0  0.090922  0  0.959327  0  0  0.095716  0  1.027874  0  0  0.098462  0  1.025762  0  0  0.112971  0.093594  0  1.029695  0
H  H11  1  0.30843758  0.51153794  0.89342198  1  0  0.116427  0  0.968906  0  0  0.135039  0  1.034205  0  0  0.136025  0  1.034901  0  0  0.091591  0.134227  0  1.033852  0
H  H12  1  0.39881150  0.54024956  0.74586474  1  0  0.118191  0  0.954583  0  0  0.139719  0  1.012994  0  0  0.1403  0  1.014047  0  0  0.092575  0.139271  0  1.01226  0
H  H13  1  0.52325684  0.58467393  0.90224194  1  0  0.13794  0  0.940881  0  0  0.159711  0  1.000412  0  0  0.160812  0  0.99988  0  0  0.099984  0.158916  0  1.000779  0
H  H14  1  0.01667526  0.40433800  0.30678395  1  0  0.094991  0  0.949688  0  0  0.10035  0  1.020026  0  0  0.102989  0  1.018417  0  0  0.114706  0.098429  0  1.021248  0
H  H15  1  0.50703157  0.06214902  0.28898715  1  0  0.087769  0  0.962063  0  0  0.09353  0  1.031094  0  0  0.095767  0  1.029856  0  0  0.11421  0.091837  0  1.032294  0
H  H16  1  0.79043784  0.99614529  0.40046657  1  0  0.094866  0  0.927173  0  0  0.100709  0  0.994158  0  0  0.103803  0  0.991808  0  0  0.119986  0.098429  0  0.99612  0
H  H17  1  0.59377827  0.56639348  0.19309677  1  0  0.113091  0  0.96566  0  0  0.129522  0  1.037177  0  0  0.131787  0  1.035346  0  0  0.087298  0.127788  0  1.038557  0
H  H18  1  0.75959076  0.48986657  0.08507675  1  0  0.130252  0  0.990175  0  0  0.139286  0  1.067933  0  0  0.141508  0  1.067493  0  0  0.093712  0.137715  0  1.0682  0
H  H19  1  0.81440987  0.61972791  0.24590402  1  0  0.119452  0  0.950613  0  0  0.142469  0  1.005513  0  0  0.14279  0  1.007158  0  0  0.09387  0.142152  0  1.004479  0
C  C20  1  0.47769274  0.66974005  0.47666035  1  0  -0.241402  0  4.057517  0  0  -0.214249  0  4.293193  0  0  -0.227944  0  4.309583  0  0  -0.041775  -0.20496  0  4.282113  0
C  C21  1  0.39395725  0.80853507  0.44798963  1  0  0.337124  0  3.839522  0  0  0.315771  0  4.094634  0  0  0.331457  0  4.112661  0  0  0.194175  0.305162  0  4.082494  0
C  C22  1  0.38184798  0.52526646  0.47059969  1  0  0.31687  0  3.858827  0  0  0.294448  0  4.12613  0  0  0.309748  0  4.142136  0  0  0.190081  0.284247  0  4.115084  0
C  C23  1  0.65602802  0.67551350  0.51215762  1  0  0.288643  0  3.86458  0  0  0.273054  0  4.136048  0  0  0.285847  0  4.154318  0  0  0.172222  0.264417  0  4.1238  0
C  C24  1  0.05721987  0.81144221  0.10167214  1  0  -0.244832  0  4.065195  0  0  -0.220589  0  4.306699  0  0  -0.233928  0  4.322281  0  0  -0.043193  -0.211348  0  4.295892  0
C  C25  1  0.15564692  0.95503917  0.11121134  1  0  0.320366  0  3.866359  0  0  0.299224  0  4.131563  0  0  0.314356  0  4.147943  0  0  0.190802  0.288993  0  4.120406  0
C  C26  1  0.13605377  0.66989013  0.12951310  1  0  0.338431  0  3.844779  0  0  0.315808  0  4.105418  0  0  0.33168  0  4.123044  0  0  0.193168  0.30497  0  4.093637  0
C  C27  1  0.88129712  0.81293520  0.05913850  1  0  0.282697  0  3.87296  0  0  0.266036  0  4.146414  0  0  0.278626  0  4.165024  0  0  0.171777  0.25752  0  4.133709  0
C  C28  1  0.04718132  0.16760730  0.76770681  1  0  0.272124  0  3.712715  0  0  0.280796  0  3.959473  0  0  0.286118  0  3.979815  0  0  0.127956  0.277064  0  3.945811  0
C  C29  1  0.96602712  0.24471630  0.88311930  1  0  0.006393  0  3.681643  0  0  -0.023403  0  3.944067  0  0  -0.023176  0  3.960984  0  0  0.046214  -0.023837  0  3.933022  0
C  C30  1  0.91563633  0.47710381  0.80299931  1  0  0.044858  0  3.738023  0  0  0.020146  0  3.998129  0  0  0.018949  0  4.018811  0  0  0.040222  0.020938  0  3.984094  0
C  C31  1  0.00103092  0.40616711  0.69037883  1  0  0.078322  0  3.712562  0  0  0.052541  0  3.962239  0  0  0.055328  0  3.981908  0  0  0.046048  0.050425  0  3.949024  0
C  C32  1  0.10951253  0.99285530  0.74495697  1  0  -0.377803  0  3.705726  0  0  -0.456842  0  3.931657  0  0  -0.459283  0  3.940923  0  0  -0.24039  -0.454801  0  3.925137  0
C  C33  1  0.48782127  0.32476593  0.81307308  1  0  0.268057  0  3.713529  0  0  0.276567  0  3.960684  0  0  0.281798  0  3.98113  0  0  0.125126  0.272879  0  3.94704  0
C  C34  1  0.56394110  0.24988541  0.69455261  1  0  0.003066  0  3.699728  0  0  -0.02513  0  3.965188  0  0  -0.024957  0  3.982113  0  0  0.040586  -0.025627  0  3.954291  0
C  C35  1  0.61748910  0.01451848  0.76866793  1  0  0.040713  0  3.743996  0  0  0.018005  0  4.006263  0  0  0.016636  0  4.027212  0  0  0.035291  0.018855  0  3.992117  0
C  C36  1  0.53778383  0.08347355  0.88483261  1  0  0.073969  0  3.711255  0  0  0.048436  0  3.961586  0  0  0.051515  0  3.980161  0  0  0.042927  0.046374  0  3.949051  0
C  C37  1  0.42546198  0.49976052  0.83925792  1  0  -0.377809  0  3.700541  0  0  -0.457305  0  3.926889  0  0  -0.459761  0  3.936056  0  0  -0.241533  -0.455292  0  3.920526  0
C  C38  1  0.90184560  0.32813215  0.30336229  1  0  0.02425  0  3.634845  0  0  -0.005906  0  3.880544  0  0  -0.005722  0  3.89924  0  0  0.048999  -0.005942  0  3.867948  0
C  C39  1  0.74359343  0.37068595  0.24623555  1  0  0.276522  0  3.712611  0  0  0.287934  0  3.949737  0  0  0.292712  0  3.971621  0  0  0.129354  0.284387  0  3.935272  0
C  C40  1  0.62141098  0.13928969  0.29389726  1  0  0.088342  0  3.693892  0  0  0.061912  0  3.94554  0  0  0.064305  0  3.965009  0  0  0.050641  0.060092  0  3.933097  0
C  C41  1  0.77788521  0.10134320  0.35353834  1  0  0.064095  0  3.692454  0  0  0.032199  0  3.952727  0  0  0.033207  0  3.971067  0  0  0.045501  0.031144  0  3.941024  0
C  C42  1  0.72642081  0.52056514  0.19005686  1  0  -0.395209  0  3.74045  0  0  -0.474725  0  3.977642  0  0  -0.478857  0  3.986856  0  0  -0.251952  -0.471592  0  3.971433  0
N  N43  1  0.32247288  0.92435199  0.42344549  1  0  -0.474509  0  3.026407  0  0  -0.422303  0  3.349696  0  0  -0.437238  0  3.350832  0  0  -0.378888  -0.412635  0  3.348988  0
N  N44  1  0.30218532  0.40420316  0.46683961  1  0  -0.46723  0  2.917129  0  0  -0.423019  0  3.234418  0  0  -0.436371  0  3.235407  0  0  -0.354865  -0.414207  0  3.233553  0
N  N45  1  0.80479409  0.68076256  0.54182300  1  0  -0.446223  0  2.584199  0  0  -0.423056  0  2.806932  0  0  -0.433811  0  2.817581  0  0  -0.327494  -0.41577  0  2.799811  0
N  N46  1  0.23408685  0.07702077  0.11596486  1  0  -0.469502  0  2.934081  0  0  -0.424503  0  3.252229  0  0  -0.438115  0  3.253125  0  0  -0.360303  -0.415627  0  3.251777  0
N  N47  1  0.20532255  0.55238756  0.15297674  1  0  -0.475876  0  3.00318  0  0  -0.424503  0  3.32662  0  0  -0.439556  0  3.327972  0  0  -0.376991  -0.414867  0  3.325978  0
N  N48  1  0.73527966  0.81680593  0.02236418  1  0  -0.439672  0  2.59964  0  0  -0.414438  0  2.824323  0  0  -0.425678  0  2.835851  0  0  -0.323347  -0.406805  0  2.816642  0
N  N49  1  0.06585680  0.25232318  0.67279090  1  0  -0.316465  0  3.199561  0  0  -0.253874  0  3.47231  0  0  -0.267553  0  3.486995  0  0  -0.314382  -0.244185  0  3.462187  0
N  N50  1  0.89944463  0.39679772  0.90052260  1  0  -0.24588  0  3.128599  0  0  -0.202836  0  3.389593  0  0  -0.210454  0  3.408643  0  0  -0.296536  -0.197404  0  3.376634  0
N  N51  1  0.47354942  0.23789041  0.90726857  1  0  -0.317553  0  3.166722  0  0  -0.257419  0  3.439481  0  0  -0.270705  0  3.453834  0  0  -0.310961  -0.248033  0  3.429523  0
N  N52  1  0.62959052  0.09703355  0.67185532  1  0  -0.260772  0  3.097401  0  0  -0.22999  0  3.37163  0  0  -0.236917  0  3.390016  0  0  -0.307466  -0.224868  0  3.359191  0
N  N53  1  0.91913724  0.19523188  0.35633416  1  0  -0.254943  0  3.287862  0  0  -0.189241  0  3.572921  0  0  -0.199608  0  3.588361  0  0  -0.315991  -0.182311  0  3.562339  0
N  N54  1  0.60426864  0.27278549  0.24070342  1  0  -0.316078  0  3.206796  0  0  -0.251261  0  3.475251  0  0  -0.264858  0  3.490887  0  0  -0.314049  -0.242231  0  3.46494  0
