# generated using pymatgen
data_CoH6C4N6(ClO)2
_symmetry_space_group_name_H-M   'P 1'
_cell_length_a   3.46636868
_cell_length_b   11.52969135
_cell_length_c   11.85016622
_cell_angle_alpha   70.54490997
_cell_angle_beta   81.58918053
_cell_angle_gamma   81.31632437
_symmetry_Int_Tables_number   1
_chemical_formula_structural   CoH6C4N6(ClO)2
_chemical_formula_sum   'Co2 H12 C8 N12 Cl4 O4'
_cell_volume   439.09832557
_cell_formula_units_Z   2
loop_
 _symmetry_equiv_pos_site_id
 _symmetry_equiv_pos_as_xyz
  1  'x, y, z'
loop_
 _atom_site_type_symbol
 _atom_site_label
 _atom_site_symmetry_multiplicity
 _atom_site_fract_x
 _atom_site_fract_y
 _atom_site_fract_z
 _atom_site_occupancy
 _atom_site_hle17_ddec_charge
 _atom_site_hle17_ddec_spin_density
 _atom_site_hle17_ddec_sum_bond_order
 _atom_site_hle17_magmom
 _atom_site_pbe_cm5_charge
 _atom_site_pbe_ddec_charge
 _atom_site_pbe_ddec_spin_density
 _atom_site_pbe_ddec_sum_bond_order
 _atom_site_pbe_magmom
Co  Co0  1  0.95339448  0.75004752  0.24993689  1  0.735973  2.778548  2.267473  2.516  0.482151  0.668846  2.756916  2.717256  2.516
Co  Co1  1  0.04660203  0.24994882  0.75006404  1  0.735955  2.778565  2.267485  2.516  0.48215  0.668797  2.756925  2.717268  2.516
H  H2  1  0.24868536  0.91861339  0.97149463  1  0.102349  0.000489  0.962151  0.001  0.124722  0.106467  0.000777  1.034596  0.001
H  H3  1  0.14262196  0.58175005  0.52809715  1  0.10235  0.000462  0.962669  0.001  0.124605  0.106256  0.000736  1.035028  0.0
H  H4  1  0.75130002  0.08138851  0.02850502  1  0.102395  0.000489  0.962089  0.001  0.124739  0.106511  0.000777  1.034548  0.001
H  H5  1  0.85736818  0.41825003  0.47190766  1  0.102398  0.000464  0.962635  0.001  0.124645  0.106286  0.000736  1.035021  0.0
H  H6  1  0.94243243  0.56061218  0.09496165  1  0.33477  -0.000124  0.897133  0.0  0.318195  0.298558  3.2e-05  0.977165  0.0
H  H7  1  0.59543692  0.93911540  0.40506442  1  0.334191  -0.000154  0.897412  0.0  0.318139  0.298064  1e-05  0.977178  0.0
H  H8  1  0.05757931  0.43938785  0.90503621  1  0.33473  -0.000131  0.897195  0.0  0.31821  0.298528  3.2e-05  0.977216  0.0
H  H9  1  0.40456469  0.06088091  0.59493145  1  0.334182  -0.000148  0.89738  0.0  0.318118  0.298044  1e-05  0.977168  0.0
H  H10  1  0.31857661  0.83726363  0.78860478  1  0.344609  0.000292  0.905419  0.0  0.311704  0.311287  0.000379  0.978491  0.0
H  H11  1  0.94810217  0.66306179  0.71113628  1  0.344047  0.000168  0.906907  0.0  0.311266  0.310447  0.000258  0.980465  0.0
H  H12  1  0.68143152  0.16274196  0.21139303  1  0.344629  0.000292  0.905452  0.0  0.311694  0.311289  0.000379  0.978515  0.0
H  H13  1  0.05190522  0.33694103  0.28886408  1  0.343905  0.000165  0.906984  0.0  0.311245  0.310322  0.000258  0.980512  0.0
C  C14  1  0.10158571  0.67160037  0.91464666  1  0.666754  -0.000875  3.841046  0.0  0.32468  0.566292  -2.6e-05  4.15772  0.001
C  C15  1  0.68872564  0.82840969  0.58524305  1  0.666819  -0.000568  3.841681  0.0  0.324463  0.567032  0.000215  4.157699  0.001
C  C16  1  0.89843927  0.32840246  0.08535361  1  0.666642  -0.000901  3.84141  0.0  0.324561  0.566118  -2.5e-05  4.158085  0.001
C  C17  1  0.31126192  0.17159223  0.41476021  1  0.666747  -0.000577  3.841642  0.0  0.324519  0.567009  0.000215  4.157622  0.001
C  C18  1  0.17822165  0.82912147  0.97461270  1  0.24206  -0.017631  3.660697  -0.011  0.15598  0.163103  -0.005914  3.943765  -0.003
C  C19  1  0.98432135  0.67104690  0.52511554  1  0.242249  -0.018333  3.66206  -0.011  0.156314  0.163553  -0.006454  3.944912  -0.003
C  C20  1  0.82176568  0.17088044  0.02538792  1  0.24211  -0.017711  3.660634  -0.011  0.155953  0.163094  -0.005914  3.943728  -0.003
C  C21  1  0.01567787  0.32895039  0.47488787  1  0.242145  -0.018313  3.662059  -0.011  0.156206  0.163426  -0.006456  3.944894  -0.003
N  N22  1  0.01162908  0.64555509  0.03576652  1  -0.312512  0.001408  3.320546  0.002  -0.285275  -0.241123  0.000981  3.566437  0.001
N  N23  1  0.69166278  0.85426853  0.46421592  1  -0.313447  0.001626  3.321423  0.002  -0.285904  -0.241505  0.001235  3.566028  0.002
N  N24  1  0.98837419  0.35444771  0.96422925  1  -0.312372  0.001436  3.320392  0.002  -0.285226  -0.240955  0.000981  3.566242  0.001
N  N25  1  0.30832946  0.14572966  0.53578514  1  -0.3134  0.001615  3.321528  0.002  -0.285905  -0.241493  0.001234  3.566087  0.002
N  N26  1  0.06049352  0.74271031  0.07285588  1  -0.228125  0.029935  3.258803  0.054  -0.248421  -0.190815  0.025919  3.552171  0.042
N  N27  1  0.87564505  0.75722102  0.42702320  1  -0.228563  0.030147  3.259061  0.054  -0.248572  -0.190746  0.026053  3.551465  0.042
N  N28  1  0.93949604  0.25729250  0.92714191  1  -0.228126  0.029953  3.25863  0.054  -0.248386  -0.190825  0.025918  3.55202  0.042
N  N29  1  0.12434526  0.24277535  0.57298097  1  -0.228571  0.030146  3.259156  0.054  -0.248514  -0.190656  0.026052  3.55147  0.042
N  N30  1  0.20768116  0.79044433  0.87659262  1  -0.433045  -0.000499  3.298879  0.001  -0.379046  -0.352213  0.000324  3.545765  0.001
N  N31  1  0.87811842  0.70979763  0.62310498  1  -0.432465  -0.000594  3.298783  0.001  -0.379086  -0.352671  0.000184  3.546858  0.001
N  N32  1  0.79232811  0.20955477  0.12340541  1  -0.433199  -0.000482  3.299109  0.001  -0.378989  -0.352198  0.000324  3.545835  0.001
N  N33  1  0.12187599  0.29020059  0.37689971  1  -0.432251  -0.000566  3.298709  0.001  -0.379062  -0.352523  0.000183  3.546839  0.001
Cl  Cl34  1  0.50859016  0.59245904  0.30053062  1  -0.469508  0.097382  1.167504  0.153  -0.250508  -0.446454  0.098327  1.490769  0.139
Cl  Cl35  1  0.40132295  0.90768644  0.19920478  1  -0.469608  0.09733  1.166622  0.153  -0.250598  -0.446806  0.098307  1.490435  0.139
Cl  Cl36  1  0.49140809  0.40754285  0.69946784  1  -0.469464  0.097389  1.167437  0.153  -0.250503  -0.446437  0.098327  1.490745  0.139
Cl  Cl37  1  0.59868001  0.09230807  0.80079964  1  -0.469607  0.097327  1.166657  0.153  -0.250592  -0.446808  0.098305  1.490483  0.139
O  O38  1  0.08647285  0.60397696  0.85145619  1  -0.614375  0.000694  2.001854  0.002  -0.31223  -0.548231  0.001039  2.241581  0.002
O  O39  1  0.54283813  0.89588960  0.64857135  1  -0.614547  0.000301  2.001557  0.001  -0.31259  -0.549357  0.000702  2.241462  0.001
O  O40  1  0.91356123  0.39601840  0.14853702  1  -0.614297  0.000677  2.002247  0.001  -0.312225  -0.548126  0.001039  2.241981  0.002
O  O41  1  0.45715968  0.10410859  0.35142996  1  -0.614526  0.000306  2.001403  0.001  -0.312627  -0.549391  0.000703  2.241341  0.001
