# generated using pymatgen
data_Zn2H19C22NO8
_symmetry_space_group_name_H-M   'P 1'
_cell_length_a   10.56116067
_cell_length_b   11.14247992
_cell_length_c   11.39645388
_cell_angle_alpha   93.26363856
_cell_angle_beta   109.67900622
_cell_angle_gamma   107.79103881
_symmetry_Int_Tables_number   1
_chemical_formula_structural   Zn2H19C22NO8
_chemical_formula_sum   'Zn4 H38 C44 N2 O16'
_cell_volume   1183.12963106
_cell_formula_units_Z   2
loop_
 _symmetry_equiv_pos_site_id
 _symmetry_equiv_pos_as_xyz
  1  'x, y, z'
loop_
 _atom_site_type_symbol
 _atom_site_label
 _atom_site_symmetry_multiplicity
 _atom_site_fract_x
 _atom_site_fract_y
 _atom_site_fract_z
 _atom_site_occupancy
 _atom_site_pbe_bader_charge
 _atom_site_pbe_bader_spin_density
 _atom_site_pbe_cm5_charge
 _atom_site_pbe_ddec_charge
 _atom_site_pbe_ddec_spin_density
 _atom_site_pbe_ddec_sum_bond_order
 _atom_site_pbe_magmom
Zn  Zn0  1  0.32919632  0.21536350  0.43226414  1  1.304061  0  0.668564  0.900931  0  2.340324  0
Zn  Zn1  1  0.67079929  0.78463596  0.56773765  1  1.303936  0  0.668612  0.90095  0  2.340326  0
Zn  Zn2  1  0.32758069  0.06733152  0.20342899  1  1.26603  0  0.669004  0.822995  0  2.296113  0
Zn  Zn3  1  0.67242495  0.93266504  0.79657064  1  1.266033  0  0.66898  0.822982  0  2.296203  0
H  H4  1  0.20137205  0.31013828  0.93990597  1  0.092257  0  0.102677  0.108734  0  1.023631  0
H  H5  1  0.79863013  0.68985732  0.06009511  1  0.092285  0  0.102687  0.108741  0  1.023648  0
H  H6  1  0.07467966  0.42633665  0.23631967  1  0.095568  0  0.103809  0.106692  0  1.049751  0
H  H7  1  0.92532773  0.57366949  0.76368198  1  0.095573  0  0.103815  0.106739  0  1.04986  0
H  H8  1  0.91933253  0.56052758  0.19875026  1  0.074143  0  0.107622  0.115963  0  0.985838  0
H  H9  1  0.08067384  0.43946806  0.80124517  1  0.07415  0  0.107585  0.115872  0  0.985904  0
H  H10  1  0.79603356  0.17550776  0.33349235  1  0.077641  0  0.104421  0.107886  0  1.007158  0
H  H11  1  0.20396584  0.82449077  0.66650448  1  0.077659  0  0.104387  0.107797  0  1.00721  0
H  H12  1  0.05777544  0.29908012  0.39740991  1  0.098955  0  0.103601  0.113911  0  1.022819  0
H  H13  1  0.94222799  0.70091840  0.60258736  1  0.099036  0  0.103607  0.113882  0  1.022803  0
H  H14  1  0.73803662  0.49722443  0.50787109  1  0.147588  0  0.111594  0.129042  0  1.002918  0
H  H15  1  0.26195980  0.50276929  0.49212798  1  0.148078  0  0.111614  0.129071  0  1.002941  0
H  H16  1  0.41638030  0.50706395  0.74112393  1  0.0987  0  0.104698  0.113672  0  1.01753  0
H  H17  1  0.58362363  0.49294123  0.25887917  1  0.098678  0  0.104679  0.113664  0  1.017586  0
H  H18  1  0.43690404  0.16877926  0.89654940  1  0.068982  0  0.097556  0.094067  0  1.050313  0
H  H19  1  0.56310164  0.83122014  0.10345393  1  0.068963  0  0.097543  0.094009  0  1.050402  0
H  H20  1  0.52070401  0.28857474  0.11482784  1  0.097179  0  0.09781  0.104768  0  1.045067  0
H  H21  1  0.47929549  0.71142949  0.88517550  1  0.097213  0  0.097814  0.104781  0  1.04508  0
H  H22  1  0.21228348  0.90198492  0.45298862  1  0.043355  0  0.094563  0.069427  0  0.981688  0
H  H23  1  0.78771840  0.09801256  0.54701509  1  0.043375  0  0.094552  0.069408  0  0.981679  0
H  H24  1  0.39079286  0.96723521  0.45920752  1  0.034461  0  0.087346  0.048554  0  1.018039  0
H  H25  1  0.60920890  0.03276426  0.54079101  1  0.035012  0  0.087338  0.048542  0  1.018079  0
H  H26  1  0.27353499  0.74899354  0.32867411  1  0.06611  0  0.103426  0.091841  0  0.982107  0
H  H27  1  0.72646067  0.25100593  0.67132593  1  0.066132  0  0.103411  0.091835  0  0.982109  0
H  H28  1  0.12709549  0.79293649  0.23456188  1  0.05913  0  0.10009  0.080785  0  1.003238  0
H  H29  1  0.87290337  0.20706587  0.76543675  1  0.059021  0  0.100084  0.080787  0  1.003289  0
H  H30  1  0.12792377  0.77986522  0.04650079  1  0.01821  0  0.099612  0.073204  0  1.036806  0
H  H31  1  0.87207643  0.22013808  0.95350009  1  0.018213  0  0.099628  0.073219  0  1.036844  0
H  H32  1  0.26294219  0.71087070  0.06604036  1  0.078354  0  0.104555  0.092505  0  0.986152  0
H  H33  1  0.73705574  0.28912685  0.93395943  1  0.078445  0  0.104557  0.092531  0  0.986155  0
H  H34  1  0.40425558  0.89231163  0.99457196  1  0.066276  0  0.110267  0.087323  0  0.987398  0
H  H35  1  0.59574102  0.10768499  0.00542559  1  0.066265  0  0.110266  0.087323  0  0.987383  0
H  H36  1  0.22656903  0.82723185  0.88130185  1  0.081039  0  0.107468  0.078807  0  0.987449  0
H  H37  1  0.77342965  0.17276761  0.11869831  1  0.081021  0  0.107486  0.07882  0  0.987465  0
H  H38  1  0.41960028  0.87370628  0.23991606  1  0.501029  0  0.290459  0.263126  0  0.989694  0
H  H39  1  0.58040206  0.12629220  0.76008436  1  0.501059  0  0.290487  0.263173  0  0.989626  0
H  H40  1  0.19177726  0.00758707  0.94738701  1  0.591159  0  0.341213  0.373798  0  0.856452  0
H  H41  1  0.80822036  0.99240954  0.05261000  1  0.591396  0  0.341217  0.373801  0  0.85652  0
C  C42  1  0.20865637  0.27792256  0.17734494  1  1.543691  0  0.219261  0.593147  0  4.169274  0
C  C43  1  0.79134632  0.72207405  0.82265109  1  1.544323  0  0.21932  0.593244  0  4.16904  0
C  C44  1  0.14515941  0.36384655  0.97226707  1  0.026612  0  -0.086289  -0.100448  0  3.989965  0
C  C45  1  0.85484368  0.63615385  0.02773371  1  0.026869  0  -0.086315  -0.100395  0  3.990002  0
C  C46  1  0.14263207  0.36014829  0.09588841  1  -0.05909  0  -0.019528  -0.039143  0  3.98812  0
C  C47  1  0.85737629  0.63985014  0.90411398  1  -0.05948  0  -0.019549  -0.03925  0  3.988054  0
C  C48  1  0.07359134  0.42861237  0.14059169  1  -0.01815  0  -0.077705  -0.136348  0  3.921884  0
C  C49  1  0.92641171  0.57138518  0.85940540  1  -0.017986  0  -0.077694  -0.136375  0  3.921976  0
C  C50  1  0.99907402  0.49851129  0.06264328  1  -0.05711  0  -0.005206  0.065975  0  4.012229  0
C  C51  1  0.00092070  0.50148540  0.93734839  1  -0.008734  0  -0.005315  0.065905  0  4.012299  0
C  C52  1  0.92229955  0.56523446  0.10424565  1  -0.095167  0  -0.083084  -0.126894  0  3.970606  0
C  C53  1  0.07770123  0.43476503  0.89575169  1  -0.09486  0  -0.083035  -0.12676  0  3.970589  0
C  C54  1  0.59686997  0.25650414  0.37945454  1  1.544165  0  0.221453  0.588776  0  4.178838  0
C  C55  1  0.40313168  0.74349528  0.62054834  1  1.544182  0  0.221378  0.58858  0  4.17909  0
C  C56  1  0.75270541  0.33044019  0.41687385  1  -0.072798  0  -0.019738  -0.039477  0  4.004283  0
C  C57  1  0.24729530  0.66956412  0.58312198  1  -0.072843  0  -0.019706  -0.03941  0  4.004341  0
C  C58  1  0.84286754  0.27416621  0.38405965  1  -0.132924  0  -0.090959  -0.115533  0  4.020645  0
C  C59  1  0.15713404  0.72583521  0.61593630  1  -0.132989  0  -0.091002  -0.115533  0  4.020877  0
C  C60  1  0.98666641  0.34225640  0.41907025  1  0.027434  0  -0.088077  -0.129881  0  3.980942  0
C  C61  1  0.01333876  0.65774401  0.58092858  1  0.027402  0  -0.088037  -0.129766  0  3.98096  0
C  C62  1  0.04576859  0.47130144  0.48409374  1  -0.009754  0  -0.005921  0.072056  0  3.994118  0
C  C63  1  0.95423577  0.52869704  0.51590647  1  -0.061814  0  -0.005998  0.071915  0  3.994146  0
C  C64  1  0.80791073  0.45480993  0.48294201  1  -0.005475  0  -0.074045  -0.134674  0  3.906963  0
C  C65  1  0.19209081  0.54519147  0.51705569  1  -0.005967  0  -0.074076  -0.134757  0  3.906917  0
C  C66  1  0.38747089  0.25897970  0.67859357  1  1.558154  0  0.202784  0.570146  0  4.208557  0
C  C67  1  0.61252584  0.74102262  0.32140962  1  1.557838  0  0.202712  0.570031  0  4.208559  0
C  C68  1  0.42485258  0.33221527  0.80668478  1  -0.047617  0  -0.021528  -0.034974  0  4.0038  0
C  C69  1  0.57514953  0.66778797  0.19332023  1  -0.04764  0  -0.021542  -0.035003  0  4.003752  0
C  C70  1  0.43860614  0.46029729  0.82338634  1  -0.052795  0  -0.078109  -0.130963  0  3.911187  0
C  C71  1  0.56139776  0.53970787  0.17661849  1  -0.052912  0  -0.078097  -0.130987  0  3.911293  0
C  C72  1  0.45373731  0.27058841  0.91309342  1  -0.099004  0  -0.094398  -0.115058  0  4.032204  0
C  C73  1  0.54626269  0.72941197  0.08690985  1  -0.098964  0  -0.094424  -0.115042  0  4.032142  0
C  C74  1  0.49885917  0.33692150  0.03366604  1  0.012183  0  -0.090776  -0.125836  0  3.979659  0
C  C75  1  0.50114466  0.66308080  0.96633597  1  0.012144  0  -0.090791  -0.125854  0  3.979581  0
C  C76  1  0.51598115  0.46878323  0.05384174  1  0.009844  0  -0.006654  0.069179  0  4.009278  0
C  C77  1  0.48402741  0.53122094  0.94616369  1  -0.036344  0  -0.006681  0.069199  0  4.009244  0
C  C78  1  0.27700123  0.93690919  0.39564254  1  0.448798  0  -0.093377  0.06453  0  3.987057  0
C  C79  1  0.72299770  0.06308835  0.60435758  1  0.448829  0  -0.093297  0.064668  0  3.986978  0
C  C80  1  0.24297754  0.82855889  0.28955598  1  0.236616  0  -0.081268  -0.066645  0  3.880703  0
C  C81  1  0.75702152  0.17144153  0.71044436  1  0.236685  0  -0.081299  -0.066736  0  3.880705  0
C  C82  1  0.24371881  0.80232021  0.07242327  1  0.280866  0  -0.081644  -0.086471  0  3.939212  0
C  C83  1  0.75628096  0.19767929  0.92757374  1  0.280768  0  -0.081684  -0.086548  0  3.939339  0
C  C84  1  0.29201728  0.87821914  0.97886654  1  0.397009  0  -0.071189  0.043528  0  3.885368  0
C  C85  1  0.70798192  0.12177648  0.02113268  1  0.397103  0  -0.071176  0.043527  0  3.885306  0
N  N86  1  0.31653587  0.87696314  0.20221244  1  -1.132086  0  -0.486393  -0.32758  0  3.463996  0
N  N87  1  0.68346547  0.12303535  0.79778765  1  -1.132088  0  -0.486382  -0.327564  0  3.464  0
O  O88  1  0.23012213  0.18769246  0.12094486  1  -1.173068  0  -0.320777  -0.557501  0  2.351607  0
O  O89  1  0.76987482  0.81230229  0.87904831  1  -1.17357  0  -0.320758  -0.557541  0  2.351732  0
O  O90  1  0.23528639  0.30262003  0.29530728  1  -1.160714  0  -0.30888  -0.534549  0  2.337464  0
O  O91  1  0.76471775  0.69737756  0.70468666  1  -1.160822  0  -0.308922  -0.534577  0  2.337374  0
O  O92  1  0.53762582  0.17023954  0.27920569  1  -1.172575  0  -0.31725  -0.54335  0  2.320121  0
O  O93  1  0.46237650  0.82975894  0.72079560  1  -1.172596  0  -0.317225  -0.543274  0  2.320139  0
O  O94  1  0.53526268  0.28615614  0.44920223  1  -1.168688  0  -0.307892  -0.541977  0  2.349233  0
O  O95  1  0.46474469  0.71384514  0.55080440  1  -1.168708  0  -0.307857  -0.541874  0  2.349364  0
O  O96  1  0.32682480  0.30570879  0.58240596  1  -1.158365  0  -0.327181  -0.545354  0  2.299475  0
O  O97  1  0.67318134  0.69429929  0.41759539  1  -1.158397  0  -0.327182  -0.545316  0  2.29966  0
O  O98  1  0.41759050  0.15877581  0.66757128  1  -1.18113  0  -0.318936  -0.552939  0  2.143653  0
O  O99  1  0.58240762  0.84123030  0.33243699  1  -1.180772  0  -0.318848  -0.552827  0  2.143482  0
O  O100  1  0.24355873  0.04049939  0.34066991  1  -1.130096  0  -0.417384  -0.608708  0  2.436033  0
O  O101  1  0.75643971  0.95950199  0.65933028  1  -1.130029  0  -0.417435  -0.608756  0  2.436135  0
O  O102  1  0.28705923  0.00625299  0.99504822  1  -1.094434  0  -0.379541  -0.45096  0  2.347021  0
O  O103  1  0.71294071  0.99374455  0.00495224  1  -1.094728  0  -0.379556  -0.450954  0  2.347064  0
