# generated using pymatgen
data_ZnH12C22BrNO4
_symmetry_space_group_name_H-M   'P 1'
_cell_length_a   11.23802831
_cell_length_b   13.97083142
_cell_length_c   16.05403480
_cell_angle_alpha   90.00002424
_cell_angle_beta   89.99998334
_cell_angle_gamma   89.99982113
_symmetry_Int_Tables_number   1
_chemical_formula_structural   ZnH12C22BrNO4
_chemical_formula_sum   'Zn2 H24 C44 Br2 N2 O8'
_cell_volume   2520.55729666
_cell_formula_units_Z   2
loop_
 _symmetry_equiv_pos_site_id
 _symmetry_equiv_pos_as_xyz
  1  'x, y, z'
loop_
 _atom_site_type_symbol
 _atom_site_label
 _atom_site_symmetry_multiplicity
 _atom_site_fract_x
 _atom_site_fract_y
 _atom_site_fract_z
 _atom_site_occupancy
 _atom_site_pbe_bader_charge
 _atom_site_pbe_bader_spin_density
 _atom_site_pbe_cm5_charge
 _atom_site_pbe_ddec_charge
 _atom_site_pbe_ddec_spin_density
 _atom_site_pbe_ddec_sum_bond_order
 _atom_site_pbe_magmom
Zn  Zn0  1  0.49999944  0.09873580  0.00000059  1  1.2805  0  0.66186  0.810769  0  2.447725  0
Zn  Zn1  1  0.50000034  0.90126595  0.99999982  1  1.26014  0  0.661846  0.810745  0  2.447766  0
H  H2  1  0.13490141  0.15394565  0.33394286  1  0.044254  0  0.098993  0.100907  0  0.99487  0
H  H3  1  0.86509755  0.84605387  0.33394291  1  0.044305  0  0.098985  0.100914  0  0.994906  0
H  H4  1  0.86509794  0.15394553  0.66605742  1  0.044262  0  0.099001  0.100937  0  0.994867  0
H  H5  1  0.13490089  0.84605487  0.66605762  1  0.044266  0  0.09898  0.100887  0  0.994928  0
H  H6  1  0.86509837  0.84605466  0.66605755  1  0.044256  0  0.098984  0.100892  0  0.994918  0
H  H7  1  0.13490312  0.15394573  0.66605750  1  0.044254  0  0.098991  0.100912  0  0.994901  0
H  H8  1  0.13490274  0.84605407  0.33394298  1  0.044251  0  0.09899  0.100907  0  0.994891  0
H  H9  1  0.86509889  0.15394545  0.33394278  1  0.044253  0  0.098985  0.10089  0  0.994912  0
H  H10  1  0.25315261  0.15333706  0.20171316  1  0.107455  0  0.101269  0.103553  0  1.004433  0
H  H11  1  0.74684730  0.84666383  0.20171323  1  0.107469  0  0.101276  0.103558  0  1.004427  0
H  H12  1  0.74684674  0.15333730  0.79828712  1  0.107415  0  0.101282  0.103597  0  1.004447  0
H  H13  1  0.25315292  0.84666316  0.79828730  1  0.107431  0  0.101274  0.103583  0  1.004401  0
H  H14  1  0.74684717  0.84666326  0.79828725  1  0.107462  0  0.101274  0.103559  0  1.00442  0
H  H15  1  0.25315337  0.15333649  0.79828717  1  0.107449  0  0.10129  0.103605  0  1.004445  0
H  H16  1  0.25315304  0.84666373  0.20171266  1  0.107458  0  0.101285  0.1036  0  1.004453  0
H  H17  1  0.74684864  0.15333644  0.20171248  1  0.107432  0  0.101263  0.10357  0  1.004406  0
H  H18  1  0.31628186  0.25152293  0.00000064  1  0.13837  0  0.133672  0.109391  0  0.961154  0
H  H19  1  0.68371792  0.74847810  0.99999977  1  0.138369  0  0.133661  0.109387  0  0.961146  0
H  H20  1  0.68371909  0.25152318  0.00000060  1  0.138351  0  0.133713  0.109451  0  0.961285  0
H  H21  1  0.31628090  0.74847761  0.00000073  1  0.138346  0  0.1337  0.109456  0  0.961276  0
H  H22  1  0.30707439  0.42901202  0.00000067  1  0.091458  0  0.11317  0.116814  0  1.004814  0
H  H23  1  0.69292540  0.57098758  0.99999911  1  0.091464  0  0.113165  0.116818  0  1.004822  0
H  H24  1  0.69292300  0.42901249  0.99999909  1  0.081862  0  0.113151  0.116783  0  1.00485  0
H  H25  1  0.30707678  0.57098711  0.00000070  1  0.081881  0  0.113151  0.11677  0  1.004855  0
C  C26  1  0.12291203  0.99999997  0.50000077  1  -0.120639  0  -0.015566  0.01815  0  3.935705  0
C  C27  1  0.87708687  0.99999963  0.50000026  1  -0.120651  0  -0.015553  0.018135  0  3.935745  0
C  C28  1  0.06272800  0.00000002  0.42338639  1  0.108454  0  -0.009314  -0.01305  0  3.984383  0
C  C29  1  0.93727198  0.00000036  0.42338630  1  -0.081548  0  -0.009305  -0.012942  0  3.984336  0
C  C30  1  0.93727178  0.99999958  0.57661401  1  -0.081544  0  -0.009321  -0.013015  0  3.984399  0
C  C31  1  0.06272797  0.00000006  0.57661454  1  0.109249  0  -0.009289  -0.012951  0  3.984276  0
C  C32  1  0.12847871  0.99999982  0.34282738  1  -0.02448  0  -0.010852  0.081433  0  4.027329  0
C  C33  1  0.87152203  0.99999971  0.34282775  1  -0.024131  0  -0.010825  0.081425  0  4.027306  0
C  C34  1  0.87152196  0.99999978  0.65717302  1  -0.024127  0  -0.01086  0.081381  0  4.027383  0
C  C35  1  0.12847792  1.00000000  0.65717310  1  -0.024133  0  -0.010878  0.081372  0  4.027235  0
C  C36  1  0.16033661  0.08651369  0.30467169  1  -0.003847  0  -0.093771  -0.137501  0  3.999349  0
C  C37  1  0.83966414  0.91348581  0.30467116  1  -0.003918  0  -0.093805  -0.137608  0  3.999465  0
C  C38  1  0.83966299  0.08651365  0.69532856  1  -0.003849  0  -0.093804  -0.137588  0  3.999372  0
C  C39  1  0.16033671  0.91348676  0.69532816  1  -0.003842  0  -0.093799  -0.137526  0  3.999357  0
C  C40  1  0.83966317  0.91348591  0.69532809  1  -0.003861  0  -0.093784  -0.137502  0  3.999415  0
C  C41  1  0.16033742  0.08651450  0.69532863  1  -0.003862  0  -0.093753  -0.13751  0  3.99933  0
C  C42  1  0.16033679  0.91348595  0.30467185  1  -0.003859  0  -0.093786  -0.137545  0  3.999379  0
C  C43  1  0.83966396  0.08651356  0.30467225  1  -0.00384  0  -0.093775  -0.137495  0  3.999382  0
C  C44  1  0.22590151  0.08653149  0.23109766  1  0.002606  0  -0.083758  -0.079793  0  3.97836  0
C  C45  1  0.77409838  0.91346870  0.23109776  1  0.002603  0  -0.08374  -0.079705  0  3.978357  0
C  C46  1  0.77409810  0.08653236  0.76890259  1  0.002603  0  -0.083719  -0.079749  0  3.97831  0
C  C47  1  0.22590246  0.91346880  0.76890280  1  0.002607  0  -0.083729  -0.079771  0  3.978252  0
C  C48  1  0.77409827  0.91346883  0.76890212  1  0.002614  0  -0.083751  -0.079755  0  3.97832  0
C  C49  1  0.22590229  0.08653233  0.76890203  1  0.002588  0  -0.083766  -0.079805  0  3.978399  0
C  C50  1  0.22590169  0.91346796  0.23109781  1  0.002599  0  -0.083757  -0.079802  0  3.978342  0
C  C51  1  0.77409910  0.08653223  0.23109760  1  0.002615  0  -0.083745  -0.079763  0  3.978243  0
C  C52  1  0.26055278  0.99999972  0.19427575  1  -0.15638  0  -0.018412  -0.034256  0  3.962514  0
C  C53  1  0.73944729  0.99999912  0.19427507  1  -0.156385  0  -0.018496  -0.034455  0  3.962683  0
C  C54  1  0.73944627  0.99999998  0.80572448  1  -0.156381  0  -0.018456  -0.034374  0  3.962613  0
C  C55  1  0.26055355  0.99999987  0.80572390  1  -0.156379  0  -0.018461  -0.034361  0  3.962601  0
C  C56  1  0.33944920  0.00000032  0.11899996  1  1.581411  0  0.212588  0.593201  0  4.172362  0
C  C57  1  0.66055179  0.00000206  0.11899992  1  1.581394  0  0.212679  0.593465  0  4.172305  0
C  C58  1  0.66055074  0.00000153  0.88100027  1  1.581407  0  0.212667  0.59343  0  4.172266  0
C  C59  1  0.33944993  0.00000050  0.88100030  1  1.581421  0  0.212645  0.593389  0  4.172166  0
C  C60  1  0.39709934  0.29471067  0.00000064  1  0.500613  0  0.0672  0.111438  0  3.915863  0
C  C61  1  0.60290045  0.70528894  0.99999915  1  0.500593  0  0.067198  0.111433  0  3.915728  0
C  C62  1  0.60290124  0.29470994  0.99999907  1  0.500647  0  0.06715  0.111358  0  3.9159  0
C  C63  1  0.39709854  0.70528967  0.00000134  1  0.500627  0  0.067158  0.11131  0  3.915918  0
C  C64  1  0.39356184  0.39406792  0.99999973  1  -0.008088  0  -0.076743  -0.174486  0  3.94673  0
C  C65  1  0.60643774  0.60593264  0.99999850  1  -0.008112  0  -0.076764  -0.174558  0  3.946778  0
C  C66  1  0.60643726  0.39406765  0.99999784  1  -0.008096  0  -0.076751  -0.174484  0  3.946773  0
C  C67  1  0.39356252  0.60593338  0.00000069  1  -0.008129  0  -0.076773  -0.174467  0  3.946829  0
C  C68  1  0.50000122  0.44689714  0.99999786  1  -0.129346  0  0.016504  0.10561  0  3.977433  0
C  C69  1  0.49999924  0.55310485  0.99999851  1  0.020418  0  0.016536  0.105674  0  3.977432  0
Br  Br70  1  0.29282690  0.99999965  0.49999907  1  -0.039398  0  0.020758  -0.06477  0  1.423932  0
Br  Br71  1  0.70717288  0.99999995  0.49999884  1  -0.037661  0  0.020752  -0.064773  0  1.423927  0
N  N72  1  0.50000004  0.24588023  0.00000124  1  -1.246421  0  -0.312567  -0.182009  0  3.507172  0
N  N73  1  0.49999906  0.75412056  0.00000133  1  -1.246371  0  -0.312535  -0.181923  0  3.506962  0
O  O74  1  0.37141106  0.08119157  0.09044142  1  -1.16903  0  -0.321107  -0.554311  0  2.324324  0
O  O75  1  0.62858889  0.91880711  0.09044030  1  -1.169004  0  -0.321115  -0.554413  0  2.324207  0
O  O76  1  0.62858946  0.08119145  0.90955946  1  -1.169024  0  -0.321157  -0.55443  0  2.324414  0
O  O77  1  0.37141104  0.91880763  0.90955964  1  -1.169008  0  -0.321143  -0.554406  0  2.324268  0
O  O78  1  0.62858783  0.91880660  0.90955899  1  -1.169024  0  -0.321144  -0.554433  0  2.324296  0
O  O79  1  0.37141089  0.08119249  0.90955886  1  -1.169047  0  -0.321125  -0.554394  0  2.324273  0
O  O80  1  0.37141121  0.91880672  0.09044032  1  -1.16904  0  -0.321135  -0.55436  0  2.324299  0
O  O81  1  0.62858874  0.08119125  0.09044139  1  -1.169033  0  -0.321155  -0.554417  0  2.324399  0
