# generated using pymatgen
data_ZnH11C13(NO4)2
_symmetry_space_group_name_H-M   'P 1'
_cell_length_a   9.68433691
_cell_length_b   9.84990412
_cell_length_c   18.11797998
_cell_angle_alpha   79.25020453
_cell_angle_beta   74.53843608
_cell_angle_gamma   60.57395588
_symmetry_Int_Tables_number   1
_chemical_formula_structural   ZnH11C13(NO4)2
_chemical_formula_sum   'Zn4 H44 C52 N8 O32'
_cell_volume   1447.65007675
_cell_formula_units_Z   4
loop_
 _symmetry_equiv_pos_site_id
 _symmetry_equiv_pos_as_xyz
  1  'x, y, z'
loop_
 _atom_site_type_symbol
 _atom_site_label
 _atom_site_symmetry_multiplicity
 _atom_site_fract_x
 _atom_site_fract_y
 _atom_site_fract_z
 _atom_site_occupancy
 _atom_site_hle17_bader_spin_density
 _atom_site_hle17_ddec_charge
 _atom_site_hle17_ddec_spin_density
 _atom_site_hle17_ddec_sum_bond_order
 _atom_site_hle17_magmom
 _atom_site_hse06_10hf_bader_spin_density
 _atom_site_hse06_10hf_ddec_charge
 _atom_site_hse06_10hf_ddec_spin_density
 _atom_site_hse06_10hf_ddec_sum_bond_order
 _atom_site_hse06_10hf_magmom
 _atom_site_hse06_bader_spin_density
 _atom_site_hse06_ddec_charge
 _atom_site_hse06_ddec_spin_density
 _atom_site_hse06_ddec_sum_bond_order
 _atom_site_hse06_magmom
 _atom_site_pbe_bader_spin_density
 _atom_site_pbe_cm5_charge
 _atom_site_pbe_ddec_charge
 _atom_site_pbe_ddec_spin_density
 _atom_site_pbe_ddec_sum_bond_order
 _atom_site_pbe_magmom
Zn  Zn0  1  0.26891666  0.98316006  0.77988589  1  0  1.103095  0  1.74659  0  0  0.927568  0  2.203919  0  0  0.975348  0  2.146226  0  0  0.693074  0.892651  0  2.244749  0
Zn  Zn1  1  0.96791127  0.48318877  0.27989646  1  0  1.102861  0  1.74602  0  0  0.927412  0  2.203406  0  0  0.97516  0  2.145752  0  0  0.693274  0.892519  0  2.244191  0
Zn  Zn2  1  0.73108422  0.01684018  0.22011429  1  0  1.10309  0  1.746648  0  0  0.927545  0  2.203974  0  0  0.97533  0  2.146284  0  0  0.693073  0.892627  0  2.244803  0
Zn  Zn3  1  0.03208757  0.51681266  0.72010406  1  0  1.102851  0  1.746027  0  0  0.927382  0  2.203414  0  0  0.975134  0  2.145765  0  0  0.693259  0.892492  0  2.244199  0
H  H4  1  0.73120342  0.97987963  0.75277092  1  0  0.116394  0  0.93319  0  0  0.125143  0  0.996768  0  0  0.128651  0  0.994068  0  0  0.113249  0.122665  0  0.998579  0
H  H5  1  0.53601235  0.48010332  0.25278304  1  0  0.116117  0  0.933168  0  0  0.125125  0  0.996477  0  0  0.128668  0  0.993799  0  0  0.113131  0.122601  0  0.998287  0
H  H6  1  0.26879745  0.02011947  0.24722985  1  0  0.116376  0  0.933145  0  0  0.125134  0  0.996699  0  0  0.128641  0  0.994002  0  0  0.113243  0.122654  0  0.998511  0
H  H7  1  0.46398876  0.51989914  0.74721468  1  0  0.11615  0  0.933152  0  0  0.125144  0  0.996466  0  0  0.128718  0  0.993719  0  0  0.113124  0.122621  0  0.998277  0
H  H8  1  0.50420125  0.33999473  0.58439605  1  0  0.130422  0  0.945679  0  0  0.1313  0  1.019177  0  0  0.135813  0  1.014525  0  0  0.115319  0.127932  0  1.022656  0
H  H9  1  0.57078073  0.84024566  0.08435654  1  0  0.130194  0  0.946592  0  0  0.131295  0  1.019849  0  0  0.135832  0  1.015198  0  0  0.115367  0.127942  0  1.023284  0
H  H10  1  0.49580074  0.66000203  0.41560483  1  0  0.130417  0  0.945645  0  0  0.131307  0  1.019136  0  0  0.135822  0  1.014481  0  0  0.11532  0.127941  0  1.022617  0
H  H11  1  0.42921946  0.15975680  0.91564102  1  0  0.130115  0  0.946665  0  0  0.131197  0  1.019921  0  0  0.135734  0  1.01527  0  0  0.115312  0.127844  0  1.023353  0
H  H12  1  0.95246482  0.26740060  0.63065827  1  0  0.141747  0  0.956294  0  0  0.141606  0  1.030653  0  0  0.146588  0  1.02565  0  0  0.116467  0.137779  0  1.034493  0
H  H13  1  0.14897342  0.76748050  0.13079270  1  0  0.140433  0  0.956357  0  0  0.140657  0  1.03067  0  0  0.145618  0  1.025735  0  0  0.116186  0.136806  0  1.03454  0
H  H14  1  0.04753908  0.73259603  0.36933971  1  0  0.141727  0  0.956341  0  0  0.141595  0  1.030692  0  0  0.146581  0  1.025677  0  0  0.116454  0.137769  0  1.034534  0
H  H15  1  0.85102508  0.23252204  0.86920652  1  0  0.140468  0  0.956405  0  0  0.140659  0  1.030736  0  0  0.14562  0  1.025796  0  0  0.116201  0.136815  0  1.034591  0
H  H16  1  0.14527737  0.77626705  0.88277404  1  0  0.095318  0  0.941221  0  0  0.103292  0  1.002593  0  0  0.106796  0  0.99908  0  0  0.121467  0.10053  0  1.00558  0
H  H17  1  0.19607745  0.27589235  0.38271236  1  0  0.096383  0  0.942122  0  0  0.104044  0  1.003526  0  0  0.107495  0  1.000079  0  0  0.12187  0.101281  0  1.006492  0
H  H18  1  0.85471979  0.22373560  0.11722754  1  0  0.095335  0  0.941218  0  0  0.103297  0  1.002595  0  0  0.106801  0  0.999081  0  0  0.121475  0.100535  0  1.005578  0
H  H19  1  0.80392146  0.72410664  0.61728616  1  0  0.096409  0  0.942079  0  0  0.104029  0  1.003517  0  0  0.107521  0  1.000021  0  0  0.121882  0.101271  0  1.006478  0
H  H20  1  0.23797168  0.56302757  0.98404533  1  0  0.11785  0  0.932406  0  0  0.132567  0  0.981708  0  0  0.135808  0  0.980563  0  0  0.118071  0.130078  0  0.982935  0
H  H21  1  0.21520226  0.06273110  0.48400643  1  0  0.118986  0  0.931434  0  0  0.132977  0  0.981337  0  0  0.136267  0  0.980118  0  0  0.118334  0.130455  0  0.982639  0
H  H22  1  0.76202288  0.43697629  0.01595714  1  0  0.117859  0  0.932446  0  0  0.132586  0  0.981736  0  0  0.135828  0  0.980595  0  0  0.11809  0.1301  0  0.982962  0
H  H23  1  0.78479700  0.93726907  0.51599218  1  0  0.119107  0  0.931285  0  0  0.133034  0  0.981271  0  0  0.136324  0  0.980052  0  0  0.118359  0.130513  0  0.98257  0
H  H24  1  0.67718904  0.61001587  0.93855215  1  0  0.121215  0  0.935449  0  0  0.135175  0  0.98641  0  0  0.13845  0  0.985311  0  0  0.118271  0.132763  0  0.987462  0
H  H25  1  0.77446642  0.10995288  0.43831623  1  0  0.121707  0  0.935574  0  0  0.135297  0  0.987016  0  0  0.13856  0  0.985925  0  0  0.118224  0.132947  0  0.98797  0
H  H26  1  0.32280719  0.38998448  0.06145048  1  0  0.121251  0  0.93536  0  0  0.135153  0  0.986388  0  0  0.138419  0  0.9853  0  0  0.118302  0.132775  0  0.987395  0
H  H27  1  0.22553319  0.89004504  0.56168429  1  0  0.121682  0  0.935598  0  0  0.13526  0  0.987059  0  0  0.138523  0  0.985971  0  0  0.118205  0.132912  0  0.988011  0
H  H28  1  0.56600964  0.81751196  0.84038331  1  0  0.099726  0  0.928484  0  0  0.108261  0  0.991309  0  0  0.111305  0  0.988374  0  0  0.124632  0.106132  0  0.993293  0
H  H29  1  0.77641565  0.31739049  0.34018565  1  0  0.100365  0  0.926557  0  0  0.107774  0  0.990705  0  0  0.110823  0  0.987767  0  0  0.124381  0.105646  0  0.992655  0
H  H30  1  0.43399087  0.18248482  0.15961797  1  0  0.099699  0  0.928471  0  0  0.108225  0  0.991309  0  0  0.111268  0  0.988376  0  0  0.12462  0.106092  0  0.993293  0
H  H31  1  0.22358213  0.68260855  0.65981397  1  0  0.1004  0  0.926494  0  0  0.107805  0  0.990637  0  0  0.110855  0  0.987704  0  0  0.124386  0.105679  0  0.992591  0
H  H32  1  0.12098858  0.23385370  0.87497511  1  0  0.43218  0  0.863558  0  0  0.402644  0  0.924567  0  0  0.412701  0  0.90991  0  0  0.2933  0.395478  0  0.935103  0
H  H33  1  0.77043557  0.73391922  0.37495426  1  0  0.431446  0  0.864861  0  0  0.40211  0  0.925503  0  0  0.412134  0  0.910892  0  0  0.293069  0.394962  0  0.936019  0
H  H34  1  0.87901287  0.76614651  0.12502451  1  0  0.43215  0  0.863582  0  0  0.40259  0  0.924622  0  0  0.412646  0  0.909967  0  0  0.293295  0.395424  0  0.935158  0
H  H35  1  0.22956031  0.26608111  0.62504766  1  0  0.431419  0  0.864904  0  0  0.402059  0  0.925589  0  0  0.412086  0  0.910971  0  0  0.29303  0.394911  0  0.936105  0
H  H36  1  0.13418019  0.08336887  0.92860477  1  0  0.410724  0  0.882161  0  0  0.375787  0  0.956494  0  0  0.386547  0  0.940554  0  0  0.292887  0.368089  0  0.967968  0
H  H37  1  0.85376026  0.58336754  0.42861576  1  0  0.410706  0  0.883103  0  0  0.375985  0  0.956327  0  0  0.386714  0  0.940407  0  0  0.292676  0.368304  0  0.967796  0
H  H38  1  0.86581845  0.91663490  0.07139581  1  0  0.410707  0  0.882166  0  0  0.375753  0  0.956537  0  0  0.38651  0  0.9406  0  0  0.29287  0.368054  0  0.968012  0
H  H39  1  0.14623787  0.41663153  0.57138456  1  0  0.410691  0  0.883142  0  0  0.375976  0  0.956335  0  0  0.386701  0  0.940423  0  0  0.292688  0.368296  0  0.967802  0
H  H40  1  0.43064727  0.89552725  0.64584007  1  0  0.414049  0  0.866553  0  0  0.388398  0  0.931612  0  0  0.398101  0  0.917368  0  0  0.293836  0.381398  0  0.941924  0
H  H41  1  0.02771308  0.39554219  0.14580473  1  0  0.413556  0  0.867836  0  0  0.388178  0  0.931955  0  0  0.397881  0  0.917714  0  0  0.293835  0.38118  0  0.942264  0
H  H42  1  0.56935360  0.10447185  0.35416071  1  0  0.414045  0  0.866534  0  0  0.388399  0  0.931609  0  0  0.398101  0  0.917366  0  0  0.293824  0.381398  0  0.941924  0
H  H43  1  0.97228801  0.60445685  0.85419480  1  0  0.413664  0  0.867702  0  0  0.388314  0  0.931782  0  0  0.398017  0  0.917539  0  0  0.293886  0.381315  0  0.94209  0
H  H44  1  0.51734091  0.73081295  0.69133760  1  0  0.424974  0  0.877029  0  0  0.392979  0  0.943242  0  0  0.403754  0  0.927547  0  0  0.283539  0.385207  0  0.95459  0
H  H45  1  0.06024900  0.23084490  0.19135053  1  0  0.426009  0  0.875256  0  0  0.393793  0  0.941816  0  0  0.404584  0  0.92608  0  0  0.283896  0.386024  0  0.953161  0
H  H46  1  0.48266257  0.26918608  0.30866168  1  0  0.425051  0  0.876923  0  0  0.392999  0  0.943216  0  0  0.403775  0  0.92752  0  0  0.283557  0.385227  0  0.954563  0
H  H47  1  0.93975097  0.76915533  0.80864949  1  0  0.426001  0  0.875269  0  0  0.393786  0  0.941827  0  0  0.404577  0  0.926091  0  0  0.283885  0.386017  0  0.953171  0
C  C48  1  0.85831620  0.11075803  0.69485281  1  0  -0.069644  0  3.754938  0  0  -0.040529  0  3.988094  0  0  -0.051297  0  4.012912  0  0  -0.014247  -0.034026  0  3.972001  0
C  C49  1  0.33573646  0.61093300  0.19495658  1  0  -0.068189  0  3.755601  0  0  -0.038564  0  3.987907  0  0  -0.049175  0  4.01257  0  0  -0.013667  -0.032154  0  3.971846  0
C  C50  1  0.14168615  0.88924104  0.30514757  1  0  -0.069695  0  3.755065  0  0  -0.040526  0  3.988149  0  0  -0.051298  0  4.012973  0  0  -0.014258  -0.034017  0  3.972036  0
C  C51  1  0.66426443  0.38906952  0.80504239  1  0  -0.068227  0  3.755667  0  0  -0.038641  0  3.987975  0  0  -0.049256  0  4.012639  0  0  -0.013698  -0.03223  0  3.971917  0
C  C52  1  0.73195367  0.07268423  0.70956843  1  0  -0.045901  0  3.668085  0  0  -0.089303  0  3.920517  0  0  -0.085457  0  3.940101  0  0  -0.064898  -0.091641  0  3.907518  0
C  C53  1  0.48546900  0.57294673  0.20962222  1  0  -0.048079  0  3.66876  0  0  -0.091731  0  3.920725  0  0  -0.088031  0  3.94031  0  0  -0.065699  -0.093937  0  3.907779  0
C  C54  1  0.26804868  0.92731371  0.29043255  1  0  -0.045906  0  3.668012  0  0  -0.089293  0  3.920366  0  0  -0.085449  0  3.939953  0  0  -0.06489  -0.091633  0  3.907358  0
C  C55  1  0.51453119  0.42705572  0.79037534  1  0  -0.048123  0  3.668697  0  0  -0.091737  0  3.920628  0  0  -0.088039  0  3.940214  0  0  -0.065659  -0.093941  0  3.907687  0
C  C56  1  0.60615495  0.15240570  0.66914596  1  0  -0.050756  0  3.737489  0  0  -0.024251  0  3.976559  0  0  -0.034355  0  3.999882  0  0  -0.00961  -0.018014  0  3.960688  0
C  C57  1  0.57188039  0.65268595  0.16915272  1  0  -0.049204  0  3.740291  0  0  -0.02242  0  3.978397  0  0  -0.032472  0  4.001745  0  0  -0.009288  -0.016492  0  3.963034  0
C  C58  1  0.39384888  0.84759222  0.33085463  1  0  -0.050739  0  3.737425  0  0  -0.024244  0  3.976524  0  0  -0.034347  0  3.999844  0  0  -0.009625  -0.018006  0  3.960646  0
C  C59  1  0.42812050  0.34731543  0.83084686  1  0  -0.049131  0  3.740364  0  0  -0.022377  0  3.978445  0  0  -0.032428  0  4.001802  0  0  -0.00928  -0.016452  0  3.963092  0
C  C60  1  0.60148044  0.27646003  0.61613034  1  0  -0.078171  0  3.645569  0  0  -0.11942  0  3.90881  0  0  -0.115227  0  3.92433  0  0  -0.063756  -0.121732  0  3.897827  0
C  C61  1  0.50539934  0.77667884  0.11613634  1  0  -0.078817  0  3.648981  0  0  -0.120022  0  3.912254  0  0  -0.115869  0  3.927829  0  0  -0.063491  -0.122224  0  3.901074  0
C  C62  1  0.39851967  0.72354144  0.38387104  1  0  -0.078123  0  3.64548  0  0  -0.119404  0  3.908744  0  0  -0.11521  0  3.924259  0  0  -0.06373  -0.121723  0  3.897768  0
C  C63  1  0.49459952  0.22332601  0.88386238  1  0  -0.078787  0  3.649137  0  0  -0.119923  0  3.912358  0  0  -0.115779  0  3.927951  0  0  -0.06343  -0.122124  0  3.901185  0
C  C64  1  0.72588598  0.31628764  0.60458109  1  0  0.067801  0  3.71316  0  0  0.055109  0  3.971952  0  0  0.049889  0  3.994733  0  0  0.076156  0.058122  0  3.956724  0
C  C65  1  0.35268738  0.81643088  0.10464585  1  0  0.068164  0  3.712374  0  0  0.054779  0  3.973246  0  0  0.049538  0  3.996096  0  0  0.075749  0.057835  0  3.957917  0
C  C66  1  0.27411730  0.68371258  0.39541884  1  0  0.067787  0  3.713077  0  0  0.055124  0  3.971869  0  0  0.049905  0  3.994646  0  0  0.076137  0.058134  0  3.956642  0
C  C67  1  0.64731112  0.18357280  0.89535277  1  0  0.06831  0  3.712352  0  0  0.054833  0  3.973206  0  0  0.04959  0  3.99606  0  0  0.075763  0.05789  0  3.957878  0
C  C68  1  0.85673523  0.23370775  0.64113729  1  0  -0.081933  0  3.648151  0  0  -0.123502  0  3.910075  0  0  -0.119358  0  3.926005  0  0  -0.067166  -0.125614  0  3.899433  0
C  C69  1  0.26793233  0.73384676  0.14124965  1  0  -0.079994  0  3.648466  0  0  -0.121482  0  3.909927  0  0  -0.117323  0  3.92572  0  0  -0.066677  -0.123585  0  3.899351  0
C  C70  1  0.14326606  0.76629009  0.35886158  1  0  -0.081894  0  3.648235  0  0  -0.123463  0  3.910054  0  0  -0.11932  0  3.925991  0  0  -0.067134  -0.125583  0  3.899413  0
C  C71  1  0.73206653  0.26615695  0.85874966  1  0  -0.080049  0  3.648579  0  0  -0.121469  0  3.910011  0  0  -0.117306  0  3.925804  0  0  -0.066677  -0.123566  0  3.899433  0
C  C72  1  0.99219812  0.02599801  0.73916054  1  0  0.650235  0  3.918908  0  0  0.595596  0  4.216948  0  0  0.629557  0  4.211796  0  0  0.209219  0.572922  0  4.219178  0
C  C73  1  0.24255939  0.52598530  0.23928256  1  0  0.648138  0  3.920176  0  0  0.593227  0  4.218436  0  0  0.62715  0  4.213311  0  0  0.208669  0.57059  0  4.220641  0
C  C74  1  0.00780570  0.97399991  0.26084005  1  0  0.650258  0  3.918859  0  0  0.595559  0  4.216963  0  0  0.629518  0  4.211816  0  0  0.209231  0.572892  0  4.219176  0
C  C75  1  0.75744114  0.47401491  0.76071691  1  0  0.648189  0  3.920108  0  0  0.593284  0  4.218371  0  0  0.62721  0  4.21324  0  0  0.208678  0.570645  0  4.220579  0
C  C76  1  0.47661664  0.10349467  0.68313733  1  0  0.661743  0  3.900657  0  0  0.608143  0  4.195672  0  0  0.642643  0  4.188376  0  0  0.214369  0.585053  0  4.199215  0
C  C77  1  0.73637409  0.60373815  0.18310232  1  0  0.661437  0  3.900346  0  0  0.607977  0  4.194866  0  0  0.642448  0  4.187582  0  0  0.21434  0.584926  0  4.198332  0
C  C78  1  0.52338107  0.89650567  0.31686489  1  0  0.661633  0  3.900639  0  0  0.607988  0  4.195736  0  0  0.642488  0  4.18844  0  0  0.214241  0.584897  0  4.199279  0
C  C79  1  0.26362793  0.39626318  0.81689615  1  0  0.661416  0  3.900332  0  0  0.607974  0  4.194835  0  0  0.642439  0  4.187561  0  0  0.214362  0.584921  0  4.198301  0
C  C80  1  0.26228912  0.73360565  0.89788330  1  0  0.145843  0  3.676671  0  0  0.111872  0  3.932917  0  0  0.119523  0  3.949316  0  0  0.055232  0.106822  0  3.921552  0
C  C81  1  0.10660098  0.23328328  0.39779663  1  0  0.144837  0  3.679088  0  0  0.111225  0  3.934984  0  0  0.118912  0  3.951392  0  0  0.055485  0.106173  0  3.923651  0
C  C82  1  0.73770783  0.26639820  0.10211893  1  0  0.145836  0  3.676668  0  0  0.111884  0  3.932898  0  0  0.119537  0  3.949299  0  0  0.055204  0.106834  0  3.921533  0
C  C83  1  0.89339828  0.76671575  0.60220259  1  0  0.144875  0  3.679099  0  0  0.111286  0  3.934978  0  0  0.118948  0  3.951369  0  0  0.055534  0.106231  0  3.923652  0
C  C84  1  0.31615131  0.61482829  0.95429569  1  0  -0.135076  0  3.677201  0  0  -0.158001  0  3.931798  0  0  -0.165242  0  3.952517  0  0  -0.071301  -0.153079  0  3.917715  0
C  C85  1  0.11498368  0.11456721  0.45422385  1  0  -0.136573  0  3.678536  0  0  -0.159346  0  3.932982  0  0  -0.166567  0  3.953648  0  0  -0.071818  -0.154456  0  3.918945  0
C  C86  1  0.68384528  0.38517324  0.04570704  1  0  -0.135153  0  3.677385  0  0  -0.158115  0  3.932  0  0  -0.165362  0  3.952726  0  0  -0.071336  -0.153193  0  3.917918  0
C  C87  1  0.88501635  0.88543058  0.54577416  1  0  -0.136765  0  3.67846  0  0  -0.159498  0  3.932931  0  0  -0.166724  0  3.953612  0  0  -0.071872  -0.154608  0  3.918894  0
C  C88  1  0.46827985  0.56434744  0.97086706  1  0  0.085979  0  3.757195  0  0  0.097273  0  3.991515  0  0  0.100838  0  4.014223  0  0  0.014647  0.09506  0  3.975583  0
C  C89  1  0.99663892  0.06424158  0.47081300  1  0  0.086051  0  3.756988  0  0  0.098484  0  3.988977  0  0  0.101911  0  4.012018  0  0  0.014514  0.096295  0  3.973011  0
C  C90  1  0.53171598  0.43565646  0.02913626  1  0  0.086142  0  3.757224  0  0  0.09745  0  3.991528  0  0  0.101027  0  4.01421  0  0  0.014761  0.095235  0  3.975593  0
C  C91  1  0.00336091  0.93575742  0.52918567  1  0  0.086189  0  3.756991  0  0  0.098597  0  3.989001  0  0  0.102024  0  4.01204  0  0  0.01453  0.096413  0  3.973032  0
C  C92  1  0.55841469  0.64067198  0.92945310  1  0  -0.139188  0  3.677224  0  0  -0.161742  0  3.931709  0  0  -0.169657  0  3.953613  0  0  -0.073719  -0.156198  0  3.916417  0
C  C93  1  0.87169733  0.14055439  0.42928591  1  0  -0.140429  0  3.676783  0  0  -0.163321  0  3.93097  0  0  -0.171182  0  3.952885  0  0  -0.074116  -0.157821  0  3.915599  0
C  C94  1  0.44158246  0.35932953  0.07054908  1  0  -0.139324  0  3.677079  0  0  -0.161843  0  3.931586  0  0  -0.169747  0  3.953486  0  0  -0.073826  -0.156321  0  3.916282  0
C  C95  1  0.12830326  0.85944224  0.57071216  1  0  -0.140485  0  3.676907  0  0  -0.163369  0  3.931108  0  0  -0.171232  0  3.953026  0  0  -0.074115  -0.157869  0  3.915738  0
C  C96  1  0.49720880  0.75822591  0.87385023  1  0  0.142744  0  3.67456  0  0  0.105841  0  3.931886  0  0  0.113147  0  3.949729  0  0  0.052775  0.101153  0  3.918981  0
C  C97  1  0.87103091  0.25809127  0.37368648  1  0  0.142209  0  3.673078  0  0  0.106441  0  3.930047  0  0  0.113737  0  3.947856  0  0  0.052708  0.101787  0  3.917117  0
C  C98  1  0.50279130  0.24177328  0.12615236  1  0  0.142836  0  3.674419  0  0  0.105949  0  3.931702  0  0  0.113256  0  3.949547  0  0  0.052839  0.101262  0  3.918804  0
C  C99  1  0.12896722  0.74190895  0.62631324  1  0  0.142213  0  3.672972  0  0  0.106431  0  3.929925  0  0  0.113722  0  3.947737  0  0  0.05272  0.101776  0  3.916998  0
N  N100  1  0.71741731  0.45131149  0.55191788  1  0  0.480729  0  3.924651  0  0  0.53511  0  4.178427  0  0  0.556666  0  4.187004  0  0  0.060606  0.520716  0  4.172821  0
N  N101  1  0.27882464  0.95133140  0.05189787  1  0  0.480971  0  3.925595  0  0  0.533135  0  4.182981  0  0  0.554712  0  4.191573  0  0  0.059493  0.518729  0  4.177359  0
N  N102  1  0.28258469  0.54868755  0.44808180  1  0  0.480833  0  3.924508  0  0  0.535181  0  4.178306  0  0  0.556735  0  4.186883  0  0  0.060674  0.52079  0  4.172703  0
N  N103  1  0.72117387  0.04867228  0.94810074  1  0  0.480763  0  3.925736  0  0  0.533078  0  4.182944  0  0  0.554652  0  4.191542  0  0  0.059475  0.518671  0  4.177316  0
N  N104  1  0.35175394  0.80324668  0.85799305  1  0  -0.343474  0  3.333783  0  0  -0.256776  0  3.609933  0  0  -0.276932  0  3.625544  0  0  -0.334495  -0.242407  0  3.598425  0
N  N105  1  0.98730684  0.30307328  0.35790450  1  0  -0.342446  0  3.335589  0  0  -0.255831  0  3.611309  0  0  -0.275964  0  3.626901  0  0  -0.334143  -0.241461  0  3.599769  0
N  N106  1  0.64824763  0.19675248  0.14200914  1  0  -0.343502  0  3.333716  0  0  -0.256788  0  3.60983  0  0  -0.276951  0  3.625449  0  0  -0.334499  -0.242417  0  3.598315  0
N  N107  1  0.01269374  0.69692335  0.64209357  1  0  -0.342504  0  3.335628  0  0  -0.255825  0  3.611283  0  0  -0.275959  0  3.626884  0  0  -0.334187  -0.241457  0  3.599753  0
O  O108  1  0.09562868  0.07816139  0.72309853  1  0  -0.614751  0  2.089616  0  0  -0.532995  0  2.355301  0  0  -0.563052  0  2.342728  0  0  -0.313882  -0.512205  0  2.363914  0
O  O109  1  0.10300523  0.57811884  0.22324114  1  0  -0.61354  0  2.090066  0  0  -0.532085  0  2.356213  0  0  -0.56212  0  2.343677  0  0  -0.313652  -0.511297  0  2.364784  0
O  O110  1  0.90437255  0.92183888  0.27690235  1  0  -0.614771  0  2.089596  0  0  -0.533003  0  2.355323  0  0  -0.563055  0  2.342749  0  0  -0.313881  -0.512217  0  2.363934  0
O  O111  1  0.89699656  0.42188141  0.77675919  1  0  -0.613562  0  2.089975  0  0  -0.5321  0  2.356109  0  0  -0.562141  0  2.343571  0  0  -0.313653  -0.511311  0  2.36468  0
O  O112  1  0.99614630  0.91564431  0.78818272  1  0  -0.637855  0  1.96234  0  0  -0.588339  0  2.194042  0  0  -0.613082  0  2.184708  0  0  -0.317825  -0.570772  0  2.199834  0
O  O113  1  0.30016098  0.41562776  0.28827703  1  0  -0.636787  0  1.961375  0  0  -0.587142  0  2.192947  0  0  -0.611866  0  2.183679  0  0  -0.317604  -0.569542  0  2.198575  0
O  O114  1  0.00385570  0.08435360  0.21181755  1  0  -0.637848  0  1.962282  0  0  -0.588322  0  2.19401  0  0  -0.613064  0  2.184677  0  0  -0.317859  -0.570763  0  2.199801  0
O  O115  1  0.69984307  0.58437124  0.71172170  1  0  -0.636785  0  1.961399  0  0  -0.587144  0  2.192944  0  0  -0.611895  0  2.183719  0  0  -0.317623  -0.569543  0  2.198571  0
O  O116  1  0.43481175  0.05882202  0.75294332  1  0  -0.645906  0  2.055942  0  0  -0.574366  0  2.324024  0  0  -0.604307  0  2.311109  0  0  -0.319258  -0.553083  0  2.33198  0
O  O117  1  0.75327621  0.55906976  0.25289833  1  0  -0.64617  0  2.055911  0  0  -0.574579  0  2.323695  0  0  -0.604563  0  2.310892  0  0  -0.319305  -0.553318  0  2.331707  0
O  O118  1  0.56518835  0.94117717  0.24705926  1  0  -0.645814  0  2.055915  0  0  -0.574258  0  2.324007  0  0  -0.604201  0  2.311095  0  0  -0.319189  -0.552979  0  2.331962  0
O  O119  1  0.24672574  0.44093287  0.74710275  1  0  -0.646131  0  2.055943  0  0  -0.574573  0  2.323767  0  0  -0.604556  0  2.310963  0  0  -0.319304  -0.553309  0  2.331776  0
O  O120  1  0.42043650  0.10604326  0.62711631  1  0  -0.64227  0  1.932  0  0  -0.586922  0  2.139078  0  0  -0.6095  0  2.126612  0  0  -0.323848  -0.570768  0  2.147291  0
O  O121  1  0.84590717  0.60615971  0.12705088  1  0  -0.64211  0  1.929786  0  0  -0.58682  0  2.13679  0  0  -0.60939  0  2.12435  0  0  -0.32392  -0.570637  0  2.144961  0
O  O122  1  0.57956176  0.89395477  0.37288657  1  0  -0.642239  0  1.931912  0  0  -0.586879  0  2.139008  0  0  -0.609454  0  2.126544  0  0  -0.3238  -0.570731  0  2.147226  0
O  O123  1  0.15409286  0.39383808  0.87294713  1  0  -0.642134  0  1.929747  0  0  -0.586852  0  2.136747  0  0  -0.609422  0  2.124311  0  0  -0.323929  -0.570664  0  2.144914  0
O  O124  1  0.58371849  0.55131275  0.53837630  1  0  -0.336495  0  1.762105  0  0  -0.329592  0  1.954134  0  0  -0.340713  0  1.949291  0  0  -0.11922  -0.322272  0  1.957272  0
O  O125  1  0.32628585  0.05121821  0.03820533  1  0  -0.336918  0  1.763823  0  0  -0.329187  0  1.956755  0  0  -0.340321  0  1.951934  0  0  -0.119265  -0.321883  0  1.959867  0
O  O126  1  0.41628351  0.44868515  0.46162398  1  0  -0.336495  0  1.762008  0  0  -0.329608  0  1.954049  0  0  -0.340729  0  1.949209  0  0  -0.119239  -0.322293  0  1.957195  0
O  O127  1  0.67371244  0.94878553  0.96179454  1  0  -0.336834  0  1.763907  0  0  -0.329178  0  1.956762  0  0  -0.340313  0  1.951951  0  0  -0.119271  -0.321871  0  1.959868  0
O  O128  1  0.84658068  0.45824464  0.52312842  1  0  -0.369793  0  1.806712  0  0  -0.348091  0  1.997871  0  0  -0.363146  0  1.994887  0  0  -0.121518  -0.338245  0  2.000229  0
O  O129  1  0.17136265  0.95829053  0.02317311  1  0  -0.370144  0  1.807754  0  0  -0.347281  0  1.999858  0  0  -0.362384  0  1.997022  0  0  -0.120625  -0.337445  0  2.002211  0
O  O130  1  0.15342153  0.54175321  0.47687060  1  0  -0.36991  0  1.806714  0  0  -0.348162  0  1.997839  0  0  -0.363229  0  1.994885  0  0  -0.121569  -0.338325  0  2.000205  0
O  O131  1  0.82863397  0.04171671  0.97682660  1  0  -0.370101  0  1.807741  0  0  -0.347239  0  1.999743  0  0  -0.362338  0  1.996905  0  0  -0.120605  -0.337402  0  2.002093  0
O  O132  1  0.11799674  0.13375671  0.87716546  1  0  -0.817658  0  1.888097  0  0  -0.758712  0  2.088053  0  0  -0.779155  0  2.053884  0  0  -0.569025  -0.743602  0  2.112364  0
O  O133  1  0.87117543  0.63374332  0.37720344  1  0  -0.816896  0  1.890071  0  0  -0.758171  0  2.088283  0  0  -0.77854  0  2.054286  0  0  -0.568611  -0.743138  0  2.112519  0
O  O134  1  0.88200154  0.86624588  0.12283501  1  0  -0.817606  0  1.888111  0  0  -0.758612  0  2.088155  0  0  -0.779056  0  2.053993  0  0  -0.568986  -0.743503  0  2.112462  0
O  O135  1  0.12882123  0.36625691  0.62279667  1  0  -0.816839  0  1.890148  0  0  -0.758087  0  2.088334  0  0  -0.778455  0  2.054338  0  0  -0.568569  -0.743058  0  2.112573  0
O  O136  1  0.41048846  0.81637719  0.68205537  1  0  -0.833892  0  1.839565  0  0  -0.781334  0  2.027698  0  0  -0.801813  0  1.995754  0  0  -0.583167  -0.767036  0  2.050503  0
O  O137  1  0.09077815  0.31645397  0.18205550  1  0  -0.834344  0  1.838798  0  0  -0.781777  0  2.026434  0  0  -0.802254  0  1.994477  0  0  -0.583542  -0.767521  0  2.04932  0
O  O138  1  0.58951445  0.18362072  0.31794507  1  0  -0.833942  0  1.839459  0  0  -0.781347  0  2.027672  0  0  -0.801828  0  1.995732  0  0  -0.583162  -0.767051  0  2.050477  0
O  O139  1  0.90922069  0.68354632  0.81794562  1  0  -0.834455  0  1.838716  0  0  -0.781916  0  2.02627  0  0  -0.802393  0  1.994313  0  0  -0.583587  -0.767661  0  2.049154  0
