# generated using pymatgen
data_NiH8C4(NO2)4
_symmetry_space_group_name_H-M   'P 1'
_cell_length_a   7.46967489
_cell_length_b   8.32906911
_cell_length_c   8.30821635
_cell_angle_alpha   87.45559443
_cell_angle_beta   73.10984813
_cell_angle_gamma   72.88894913
_symmetry_Int_Tables_number   1
_chemical_formula_structural   NiH8C4(NO2)4
_chemical_formula_sum   'Ni2 H16 C8 N8 O16'
_cell_volume   472.23179615
_cell_formula_units_Z   2
loop_
 _symmetry_equiv_pos_site_id
 _symmetry_equiv_pos_as_xyz
  1  'x, y, z'
loop_
 _atom_site_type_symbol
 _atom_site_label
 _atom_site_symmetry_multiplicity
 _atom_site_fract_x
 _atom_site_fract_y
 _atom_site_fract_z
 _atom_site_occupancy
 _atom_site_pbe_cm5_charge
 _atom_site_pbe_ddec_charge
 _atom_site_pbe_ddec_spin_density
 _atom_site_pbe_ddec_sum_bond_order
 _atom_site_pbe_magmom
Ni  Ni0  1  0.99999789  0.49999896  0.99999894  1  0.628915  0.743459  -0.096855  2.437078  -0.054
Ni  Ni1  1  0.50000123  0.00000148  0.50000059  1  0.628904  0.745984  0.09811  2.428919  0.056
H  H2  1  0.02561740  0.17907857  0.18763896  1  0.126995  0.09731  0.000538  1.038829  0.001
H  H3  1  0.47201540  0.81210092  0.82192832  1  0.126673  0.096742  -0.000539  1.040215  -0.001
H  H4  1  0.97437965  0.82091776  0.81235905  1  0.126992  0.097304  0.000538  1.038852  0.001
H  H5  1  0.52799189  0.18789833  0.17807514  1  0.126682  0.096758  -0.000539  1.040229  -0.001
H  H6  1  0.24808405  0.88147799  0.11884584  1  0.118114  0.14585  -7e-06  1.022654  0.0
H  H7  1  0.75191677  0.11852344  0.88115078  1  0.118056  0.14564  -7e-06  1.02261  0.0
H  H8  1  0.25213442  0.30472180  0.69652119  1  0.142484  0.09632  -5e-06  1.008159  0.0
H  H9  1  0.74786681  0.69527470  0.30347929  1  0.142484  0.096348  -6e-06  1.008156  0.0
H  H10  1  0.98434316  0.59069088  0.69770161  1  0.297039  0.376859  -0.000817  0.965472  -0.001
H  H11  1  0.51612279  0.30202893  0.40914334  1  0.296675  0.376545  0.000835  0.966271  0.001
H  H12  1  0.01565577  0.40930793  0.30229330  1  0.297029  0.376872  -0.000816  0.96546  -0.001
H  H13  1  0.48387430  0.69797119  0.59085437  1  0.296683  0.376587  0.000835  0.966208  0.001
H  H14  1  0.80267560  0.51758583  0.77417733  1  0.299008  0.387415  -0.000565  0.946414  -0.001
H  H15  1  0.69831305  0.22498951  0.48221899  1  0.299012  0.387232  0.000599  0.946186  0.001
H  H16  1  0.19732379  0.48241169  0.22581635  1  0.299019  0.387426  -0.000565  0.94638  -0.001
H  H17  1  0.30168547  0.77501442  0.51777806  1  0.298972  0.38723  0.000599  0.946203  0.001
C  C18  1  0.12788018  0.13986069  0.06315585  1  0.073496  0.142528  0.001401  3.85335  0.001
C  C19  1  0.37093494  0.93705610  0.86091831  1  0.07334  0.142295  -0.001442  3.851295  -0.001
C  C20  1  0.87210777  0.86015330  0.93684690  1  0.073383  0.142358  0.001403  3.85399  0.001
C  C21  1  0.62907100  0.06294673  0.13907924  1  0.073285  0.142226  -0.001441  3.850924  -0.001
C  C22  1  0.24895120  0.97610049  0.02436260  1  -0.073149  -0.151072  -2.4e-05  3.884044  0.0
C  C23  1  0.75105590  0.02387988  0.97564473  1  -0.073038  -0.150699  -2.5e-05  3.884635  0.0
C  C24  1  0.25112738  0.21034466  0.79050240  1  0.189376  0.244408  -0.0  3.916838  0.0
C  C25  1  0.74886512  0.78966070  0.20950458  1  0.189291  0.244385  1e-06  3.917158  0.0
N  N26  1  0.54578304  0.50624443  0.18425320  1  0.104457  0.706136  0.000547  4.431575  0.0
N  N27  1  0.95208346  0.81664072  0.49375913  1  0.103186  0.703652  -0.000542  4.425941  0.0
N  N28  1  0.45421311  0.49375460  0.81575087  1  0.104575  0.70616  0.000547  4.431501  0.0
N  N29  1  0.04791928  0.18336723  0.50624250  1  0.103106  0.703532  -0.000542  4.426011  0.0
N  N30  1  0.13401356  0.25783202  0.94691759  1  -0.326483  -0.23541  0.023857  3.588534  0.022
N  N31  1  0.36696180  0.05353585  0.74298786  1  -0.325351  -0.234679  -0.02441  3.581724  -0.023
N  N32  1  0.86598809  0.74215939  0.05308196  1  -0.326376  -0.235251  0.023857  3.588052  0.022
N  N33  1  0.63304538  0.94645199  0.25701528  1  -0.325281  -0.234762  -0.024411  3.5819  -0.023
O  O34  1  0.72378665  0.42884455  0.17266780  1  -0.178502  -0.443074  0.017129  2.067783  0.019
O  O35  1  0.77441669  0.82854322  0.57197811  1  -0.177595  -0.440706  -0.018768  2.069342  -0.02
O  O36  1  0.27621323  0.57115564  0.82733036  1  -0.178536  -0.443092  0.017127  2.067861  0.019
O  O37  1  0.22558515  0.17146728  0.42802478  1  -0.177565  -0.440686  -0.018763  2.069432  -0.02
O  O38  1  0.41456887  0.44506755  0.28055986  1  -0.179961  -0.445774  0.002475  2.065212  0.003
O  O39  1  0.08433752  0.71967120  0.55403653  1  -0.178987  -0.443832  -0.002684  2.060252  -0.003
O  O40  1  0.58542961  0.55493277  0.71944349  1  -0.180026  -0.44581  0.002475  2.065038  0.003
O  O41  1  0.91566285  0.28033159  0.44596371  1  -0.178951  -0.443723  -0.002684  2.060242  -0.003
O  O42  1  0.49738785  0.63541153  0.10706284  1  -0.159541  -0.399611  7e-06  2.019531  0.0
O  O43  1  0.99896663  0.89425169  0.36465380  1  -0.15915  -0.399502  5.7e-05  2.018915  0.0
O  O44  1  0.50260879  0.36458999  0.89293970  1  -0.159564  -0.399568  7e-06  2.019557  0.0
O  O45  1  0.00103516  0.10575491  0.63534578  1  -0.159126  -0.399489  5.7e-05  2.018857  0.0
O  O46  1  0.93731271  0.50875667  0.77827161  1  -0.559631  -0.726405  -0.036587  2.263595  -0.038
O  O47  1  0.56354572  0.22150554  0.49124020  1  -0.560408  -0.727958  0.038316  2.260196  0.04
O  O48  1  0.06268667  0.49124082  0.22172087  1  -0.559618  -0.726442  -0.036589  2.263736  -0.038
O  O49  1  0.43645235  0.77849971  0.50875928  1  -0.560389  -0.728015  0.038316  2.260126  0.04
