# generated using pymatgen
data_CoH20C20(NO4)2
_symmetry_space_group_name_H-M   'P 1'
_cell_length_a   5.66716733
_cell_length_b   7.93697526
_cell_length_c   10.60838183
_cell_angle_alpha   108.66444917
_cell_angle_beta   94.83196511
_cell_angle_gamma   98.61020062
_symmetry_Int_Tables_number   1
_chemical_formula_structural   CoH20C20(NO4)2
_chemical_formula_sum   'Co1 H20 C20 N2 O8'
_cell_volume   442.50718005
_cell_formula_units_Z   1
loop_
 _symmetry_equiv_pos_site_id
 _symmetry_equiv_pos_as_xyz
  1  'x, y, z'
loop_
 _atom_site_type_symbol
 _atom_site_label
 _atom_site_symmetry_multiplicity
 _atom_site_fract_x
 _atom_site_fract_y
 _atom_site_fract_z
 _atom_site_occupancy
 _atom_site_hse06_10hf_bader_charge
 _atom_site_hse06_10hf_bader_spin_density
 _atom_site_hse06_10hf_ddec_charge
 _atom_site_hse06_10hf_ddec_spin_density
 _atom_site_hse06_10hf_ddec_sum_bond_order
 _atom_site_hse06_10hf_magmom
 _atom_site_hse06_ddec_charge
 _atom_site_hse06_ddec_spin_density
 _atom_site_hse06_ddec_sum_bond_order
 _atom_site_hse06_magmom
 _atom_site_pbe_cm5_charge
 _atom_site_pbe_ddec_charge
 _atom_site_pbe_ddec_spin_density
 _atom_site_pbe_ddec_sum_bond_order
 _atom_site_pbe_magmom
Co  Co0  1  0.99999854  0.00000137  0.00000118  1  1.170219  0.982587  0.755691  1.036969  2.718721  0.976  0.834259  1.024934  2.639187  0.967  0.626004  0.718523  1.044544  2.762196  0.974
H  H1  1  0.78358618  0.75916354  0.05699847  1  0.661215  1.7e-05  0.373487  -7.2e-05  0.986029  0.0  0.386602  7.1e-05  0.967684  0.0  0.286047  0.364126  -7.3e-05  0.999167  0.0
H  H2  1  0.21641279  0.24083417  0.94299989  1  0.661215  1.7e-05  0.373463  -7.2e-05  0.986073  0.0  0.386579  7.1e-05  0.967726  0.0  0.286037  0.364101  -7.3e-05  0.999213  0.0
H  H3  1  0.57765547  0.88523580  0.06630082  1  0.644897  0.000204  0.392614  7.2e-05  0.9236  0.0  0.403639  -0.000402  0.911995  -0.001  0.301199  0.384843  0.000241  0.931731  0.0
H  H4  1  0.42234766  0.11476465  0.93370027  1  0.644894  0.000204  0.392622  7.2e-05  0.923585  0.0  0.403648  -0.000402  0.91198  -0.001  0.301197  0.38485  0.000241  0.931713  0.0
H  H5  1  0.87501294  0.00954302  0.39595631  1  0.080697  -3.5e-05  0.120422  -5.8e-05  1.023537  0.0  0.123242  -3.5e-05  1.022983  0.0  0.101912  0.118345  -7.2e-05  1.024044  0.0
H  H6  1  0.12498455  0.99045608  0.60404417  1  0.080758  -3.6e-05  0.120384  -5.9e-05  1.023469  0.0  0.123202  -3.5e-05  1.022918  0.0  0.10193  0.118304  -7.2e-05  1.023976  0.0
H  H7  1  0.13940332  0.76174401  0.38339105  1  0.079151  -4.8e-05  0.117313  -6.4e-05  1.036892  0.0  0.120023  -2.9e-05  1.036099  0.0  0.101919  0.115504  -0.000105  1.037317  0.0
H  H8  1  0.86059330  0.23824422  0.61660502  1  0.079084  -4.8e-05  0.117279  -6.4e-05  1.037049  0.0  0.119992  -2.9e-05  1.036259  0.0  0.101898  0.115472  -0.000105  1.037471  0.0
H  H9  1  0.24351608  0.54359901  0.23126953  1  0.045049  0.000615  0.07699  0.000208  1.044218  0.0  0.076987  0.00015  1.045769  0.0  0.098756  0.077664  0.000272  1.042674  0.0
H  H10  1  0.75648358  0.45640138  0.76872854  1  0.045084  0.000615  0.076974  0.000208  1.044179  0.0  0.076971  0.000151  1.045716  0.0  0.098764  0.077654  0.000273  1.042643  0.0
H  H11  1  0.40193337  0.53261225  0.09227988  1  0.099818  7.3e-05  0.125378  -5e-06  0.970986  0.0  0.127928  6e-06  0.968879  0.0  0.120086  0.123528  1.9e-05  0.97267  0.0
H  H12  1  0.59806472  0.46737461  0.90771502  1  0.100052  7.3e-05  0.125444  -5e-06  0.971105  0.0  0.127983  6e-06  0.968997  0.0  0.120133  0.123594  1.9e-05  0.972784  0.0
H  H13  1  0.67847052  0.86964994  0.74746877  1  0.167995  -0.000251  0.098559  -0.000363  1.031022  0.0  0.100843  -0.000178  1.028833  0.0  0.119138  0.096226  -0.000444  1.033571  0.0
H  H14  1  0.32153508  0.13034652  0.25253438  1  0.168052  -0.000252  0.09853  -0.000363  1.030849  0.0  0.100811  -0.000178  1.028666  0.0  0.119146  0.096195  -0.000444  1.033397  0.0
H  H15  1  0.66221529  0.65150115  0.52151480  1  0.093416  -8.2e-05  0.114347  -1.9e-05  1.0301  0.0  0.116539  -3.2e-05  1.030984  0.0  0.105766  0.112627  -2.6e-05  1.029839  0.0
H  H16  1  0.33777851  0.34850475  0.47848891  1  0.093585  -8.2e-05  0.114337  -1.9e-05  1.030179  0.0  0.116515  -3.2e-05  1.03108  0.0  0.105746  0.112639  -2.6e-05  1.029893  0.0
H  H17  1  0.66592698  0.47129234  0.33636414  1  0.093638  -0.000103  0.118549  -5e-05  1.024719  0.0  0.12182  -5.6e-05  1.02346  0.0  0.109255  0.115852  -7.2e-05  1.026411  0.0
H  H18  1  0.33406940  0.52871615  0.66363465  1  0.093628  -0.000103  0.118555  -5e-05  1.024857  0.0  0.121826  -5.6e-05  1.023598  0.0  0.109255  0.11586  -7.2e-05  1.026549  0.0
H  H19  1  0.67145786  0.24206149  0.12046620  1  0.159671  -0.000162  0.105761  -0.000283  1.033802  0.0  0.109361  -0.000243  1.029662  0.0  0.122795  0.102387  -0.000322  1.037824  0.0
H  H20  1  0.32854693  0.75794575  0.87953747  1  0.159726  -0.000162  0.105803  -0.000283  1.033678  0.0  0.1094  -0.000243  1.029543  0.0  0.12281  0.102433  -0.000322  1.037691  0.0
C  C21  1  0.71115216  0.00665278  0.44244373  1  0.034362  -9e-05  -0.181223  -0.000105  4.027278  0.0  -0.184384  -4.2e-05  4.047158  0.0  -0.108338  -0.178562  -0.000142  4.013089  0.0
C  C22  1  0.28885801  0.99333941  0.55754832  1  0.034497  -9e-05  -0.181244  -0.000105  4.027582  0.0  -0.18441  -4e-05  4.047471  0.0  -0.108408  -0.17858  -0.000142  4.013388  0.0
C  C23  1  0.51201590  0.87033362  0.37630030  1  0.456702  -1e-05  0.224963  -2.4e-05  4.10277  0.0  0.234343  -4e-06  4.11838  0.0  0.06217  0.218369  1.5e-05  4.09175  0.0
C  C24  1  0.48797283  0.12965870  0.62369817  1  0.456663  -1e-05  0.224946  -2.4e-05  4.102662  0.0  0.234313  -5e-06  4.118282  0.0  0.06218  0.21835  1.5e-05  4.091639  0.0
C  C25  1  0.29861665  0.86452324  0.43387132  1  -0.107858  -0.000103  -0.212447  -0.000148  4.047836  0.0  -0.216435  -8.1e-05  4.068655  0.0  -0.115427  -0.209331  -0.000211  4.033173  0.0
C  C26  1  0.70139309  0.13548268  0.56613326  1  -0.107655  -0.000103  -0.212484  -0.000148  4.047588  0.0  -0.216481  -7.9e-05  4.068418  0.0  -0.115419  -0.209367  -0.000211  4.032929  0.0
C  C27  1  0.33614265  0.62488191  0.17725180  1  0.4366  0.003813  -0.125226  0.002097  3.881518  0.003  -0.121967  0.001671  3.881836  0.002  -0.072369  -0.127506  0.002701  3.880886  0.004
C  C28  1  0.66385058  0.37511452  0.82274973  1  0.436079  0.003813  -0.125285  0.002097  3.881756  0.003  -0.121987  0.00167  3.881995  0.002  -0.072425  -0.127598  0.002701  3.881157  0.004
C  C29  1  0.15747450  0.72031439  0.12282634  1  1.622218  -0.00056  0.604967  -0.001272  4.165382  -0.001  0.638484  -0.001322  4.159392  -0.001  0.207855  0.582299  -0.001207  4.167775  -0.001
C  C30  1  0.84252272  0.27968329  0.87717097  1  1.622184  -0.00056  0.605  -0.001271  4.165355  -0.001  0.638507  -0.001321  4.15937  -0.001  0.20789  0.582345  -0.001207  4.167741  -0.001
C  C31  1  0.82032038  0.79116646  0.72395796  1  0.433447  -0.006343  0.093128  -0.006698  3.913693  -0.004  0.104682  -0.004974  3.927984  -0.003  0.047559  0.084898  -0.007635  3.906966  -0.004
C  C32  1  0.17966416  0.20884482  0.27604554  1  0.433521  -0.006336  0.0932  -0.00669  3.914065  -0.004  0.104743  -0.00497  3.928364  -0.003  0.047618  0.084983  -0.007624  3.907337  -0.004
C  C33  1  0.81387645  0.66643891  0.59682293  1  0.007601  3.3e-05  -0.180589  -0.000455  3.950932  0.0  -0.188287  0.000508  3.969195  0.001  -0.08475  -0.175977  -0.001927  3.939973  -0.001
C  C34  1  0.18612990  0.33356019  0.40317803  1  0.006313  3.2e-05  -0.180733  -0.000456  3.950687  0.0  -0.188412  0.000509  3.968957  0.001  -0.084787  -0.176139  -0.001929  3.939712  -0.001
C  C35  1  0.99974989  0.56650291  0.56709854  1  -0.085502  -0.007634  0.092978  -0.007987  3.993872  -0.004  0.09981  -0.004626  4.010958  -0.003  0.008887  0.087588  -0.010842  3.983631  -0.006
C  C36  1  0.00023547  0.43351097  0.43289994  1  -0.047322  -0.007587  0.093102  -0.007987  3.993763  -0.004  0.099929  -0.004627  4.010848  -0.003  0.008887  0.087714  -0.010841  3.983518  -0.006
C  C37  1  0.81465621  0.39806967  0.32623250  1  0.020528  -0.000246  -0.159494  -0.000701  3.933336  0.0  -0.165759  0.000374  3.948304  0.001  -0.077935  -0.156328  -0.002209  3.9258  -0.001
C  C38  1  0.18535724  0.60194442  0.67377697  1  0.020761  -0.000247  -0.159529  -0.000702  3.93348  0.0  -0.165795  0.000374  3.94845  0.001  -0.077939  -0.156371  -0.002212  3.925957  -0.001
C  C39  1  0.81654074  0.26910961  0.20215711  1  0.43753  -0.006625  0.100008  -0.007044  3.891706  -0.004  0.112762  -0.005522  3.902563  -0.003  0.049022  0.090466  -0.008208  3.888233  -0.005
C  C40  1  0.18344057  0.73089473  0.79783615  1  0.437479  -0.006616  0.099872  -0.007035  3.892709  -0.004  0.112622  -0.005516  3.903581  -0.003  0.048988  0.090338  -0.008195  3.889219  -0.005
N  N41  1  0.00374620  0.82625154  0.82481952  1  -1.224213  -0.014963  -0.196504  -0.014677  3.605356  -0.01  -0.223624  -0.010431  3.62056  -0.006  -0.336201  -0.183784  -0.01772  3.598627  -0.013
N  N42  1  0.99627452  0.17374903  0.17518726  1  -1.224107  -0.014963  -0.196568  -0.014677  3.605143  -0.01  -0.223685  -0.010432  3.620354  -0.006  -0.336261  -0.183868  -0.01772  3.598444  -0.013
O  O43  1  0.70338187  0.83996369  0.01217687  1  -1.252465  -0.001315  -0.751157  -0.001845  2.260574  -0.002  -0.78846  -0.004171  2.230667  -0.002  -0.560181  -0.726552  0.000354  2.279859  0.001
O  O44  1  0.29661983  0.16003812  0.98782446  1  -1.252479  -0.001317  -0.751134  -0.001846  2.260554  -0.002  -0.788437  -0.004171  2.230644  -0.002  -0.560163  -0.726526  0.000353  2.279835  0.001
O  O45  1  0.54567396  0.74627470  0.25801134  1  -1.104221  0.00035  -0.198698  7.7e-05  2.609046  0.0  -0.214065  6.5e-05  2.610903  0.0  -0.187489  -0.187795  8.4e-05  2.607301  0.0
O  O46  1  0.45432685  0.25372295  0.74198428  1  -1.103968  0.000348  -0.198642  7.6e-05  2.609023  0.0  -0.213996  6.4e-05  2.610846  0.0  -0.187497  -0.187729  8.4e-05  2.60729  0.0
O  O47  1  0.93672169  0.65278070  0.10931464  1  -1.190099  -0.000444  -0.544737  -0.000821  2.244399  0.0  -0.57075  -0.000767  2.236846  0.0  -0.30994  -0.525803  -0.000769  2.248798  0.0
O  O48  1  0.06328056  0.34721559  0.89068075  1  -1.19006  -0.000444  -0.544744  -0.000821  2.244279  0.0  -0.57076  -0.000766  2.236734  0.0  -0.309946  -0.525817  -0.000769  2.248683  0.0
O  O49  1  0.24529294  0.85950986  0.09404633  1  -1.214178  0.042592  -0.587115  0.021747  2.325676  0.038  -0.620335  0.017598  2.314881  0.031  -0.302678  -0.562225  0.026016  2.330351  0.045
O  O50  1  0.75470704  0.14049191  0.90595300  1  -1.2142  0.042589  -0.587109  0.021745  2.325669  0.038  -0.620337  0.017596  2.314878  0.031  -0.302698  -0.562221  0.026015  2.330341  0.045
