# generated using pymatgen
data_CuH12C14(N2Cl)2
_symmetry_space_group_name_H-M   'P 1'
_cell_length_a   6.98211149
_cell_length_b   14.54501272
_cell_length_c   16.30028620
_cell_angle_alpha   90.00088555
_cell_angle_beta   90.00011122
_cell_angle_gamma   102.69207394
_symmetry_Int_Tables_number   1
_chemical_formula_structural   CuH12C14(N2Cl)2
_chemical_formula_sum   'Cu4 H48 C56 N16 Cl8'
_cell_volume   1614.92479113
_cell_formula_units_Z   4
loop_
 _symmetry_equiv_pos_site_id
 _symmetry_equiv_pos_as_xyz
  1  'x, y, z'
loop_
 _atom_site_type_symbol
 _atom_site_label
 _atom_site_symmetry_multiplicity
 _atom_site_fract_x
 _atom_site_fract_y
 _atom_site_fract_z
 _atom_site_occupancy
 _atom_site_pbe_bader_charge
 _atom_site_pbe_bader_spin_density
 _atom_site_pbe_cm5_charge
 _atom_site_pbe_ddec_charge
 _atom_site_pbe_ddec_spin_density
 _atom_site_pbe_ddec_sum_bond_order
 _atom_site_pbe_magmom
Cu  Cu0  1  0.87525511  0.31928077  0.71019135  1  0.945078  -0.518921  0.585852  0.654821  -0.692076  2.386722  -0.52
Cu  Cu1  1  0.62467746  0.68069013  0.21013442  1  0.945183  0.519528  0.586327  0.655304  0.718122  2.386995  0.52
Cu  Cu2  1  0.12473365  0.68073088  0.28990581  1  0.945026  -0.520928  0.586515  0.655308  -0.694709  2.388168  -0.522
Cu  Cu3  1  0.37521689  0.31923845  0.78985047  1  0.944785  -0.520263  0.586159  0.654981  -0.693872  2.38754  -0.522
H  H4  1  0.36000693  0.13481687  0.52458636  1  0.069392  -0.000331  0.095788  0.099963  -0.00033  1.023716  0.0
H  H5  1  0.14001698  0.86518336  0.02458537  1  0.069491  -0.000343  0.095841  0.099952  -0.000322  1.023765  0.0
H  H6  1  0.64000603  0.86519757  0.47542184  1  0.069514  0.000304  0.095795  0.099937  0.000317  1.023743  0.0
H  H7  1  0.86001537  0.13480495  0.97542835  1  0.069545  -0.000367  0.095799  0.099949  -0.000344  1.023804  0.0
H  H8  1  0.52160012  0.03503211  0.43692163  1  0.064621  7e-05  0.096884  0.093384  7.4e-05  1.037231  0.0
H  H9  1  0.97841845  0.96497393  0.93692562  1  0.064817  -8.5e-05  0.096896  0.093489  -6.5e-05  1.03728  0.0
H  H10  1  0.47839763  0.96498658  0.56306571  1  0.064394  -6.1e-05  0.096878  0.093448  -5.7e-05  1.037265  0.0
H  H11  1  0.02160376  0.03501722  0.06307829  1  0.064428  -6e-05  0.096867  0.093407  -4.1e-05  1.037303  0.0
H  H12  1  0.34110453  0.94792605  0.31841338  1  0.070129  0.001402  0.089953  0.097716  0.001376  1.041601  0.0
H  H13  1  0.15894650  0.05207750  0.81842471  1  0.070383  -0.001332  0.089981  0.097739  -0.001254  1.04162  0.0
H  H14  1  0.65893537  0.05209398  0.68158316  1  0.070031  -0.001341  0.089942  0.097671  -0.001261  1.041701  0.0
H  H15  1  0.84109390  0.94790657  0.18159024  1  0.069793  -0.001424  0.08995  0.097646  -0.001344  1.041581  0.0
H  H16  1  0.01389420  0.97329185  0.28070426  1  0.071687  -0.000334  0.090893  0.093669  -0.000306  1.053713  0.0
H  H17  1  0.48613647  0.02672373  0.78071368  1  0.071876  -0.000307  0.090829  0.093574  -0.000278  1.054003  0.0
H  H18  1  0.98610059  0.02674518  0.71929412  1  0.071798  -0.000349  0.090997  0.093806  -0.000297  1.05396  0.0
H  H19  1  0.51391587  0.97327372  0.21930249  1  0.071746  0.000286  0.09094  0.093763  0.000294  1.053924  0.0
H  H20  1  0.85606556  0.07943866  0.36419085  1  0.093485  -1.1e-05  0.10207  0.105283  -8e-06  1.011096  0.0
H  H21  1  0.64397992  0.92056738  0.86419393  1  0.093557  -1.3e-05  0.102093  0.105312  1.5e-05  1.010901  0.0
H  H22  1  0.14396335  0.92057927  0.63582348  1  0.093789  -0.000102  0.102103  0.105424  -6.7e-05  1.010834  0.0
H  H23  1  0.35607217  0.07943571  0.13582531  1  0.093907  -9.4e-05  0.102063  0.105269  -7.9e-05  1.011028  0.0
H  H24  1  0.14401969  0.18279611  0.62902341  1  0.181838  -2.6e-05  0.113128  0.130397  0.000217  1.04369  0.0
H  H25  1  0.35602054  0.81720746  0.12900599  1  0.182171  0.00028  0.113169  0.130535  0.000168  1.043786  0.0
H  H26  1  0.85595345  0.81721275  0.37098295  1  0.181481  -0.000282  0.113172  0.130459  -0.000165  1.044028  0.0
H  H27  1  0.64409613  0.18278355  0.87097828  1  0.181347  -2.8e-05  0.113136  0.130345  0.000214  1.043881  0.0
H  H28  1  0.53828649  0.28279383  0.58314287  1  0.152696  0.000297  0.105175  0.122117  0.000281  1.046496  0.0
H  H29  1  0.96175383  0.71720980  0.08314932  1  0.152472  -0.000209  0.105085  0.122093  1.8e-05  1.046344  0.0
H  H30  1  0.46176527  0.71725792  0.41683404  1  0.152834  0.000183  0.105035  0.12193  -2.9e-05  1.046264  0.0
H  H31  1  0.03827350  0.28274608  0.91682943  1  0.152815  0.000281  0.10506  0.121945  0.000268  1.046614  0.0
H  H32  1  0.59520862  0.30644451  0.47615046  1  0.104054  0.000188  0.132478  0.137317  7.7e-05  0.949921  0.0
H  H33  1  0.90473755  0.69354403  0.97614633  1  0.103852  -0.00017  0.132486  0.137324  -2.6e-05  0.950013  0.0
H  H34  1  0.40470428  0.69356726  0.52383258  1  0.102824  0.000186  0.132432  0.137372  0.000104  0.949907  0.0
H  H35  1  0.09524226  0.30642673  0.02381524  1  0.103811  0.000176  0.132505  0.137423  0.00013  0.95005  0.0
H  H36  1  0.65622710  0.47207397  0.44980179  1  0.117367  0.000364  0.101237  0.123315  0.000782  1.013951  -0.001
H  H37  1  0.84372114  0.52791619  0.94981495  1  0.11662  -0.000335  0.101258  0.123312  -0.000688  1.014125  0.001
H  H38  1  0.34398237  0.52803678  0.55010150  1  0.117133  -0.002905  0.101303  0.123096  -0.002082  1.014057  -0.001
H  H39  1  0.15596345  0.47194923  0.05011411  1  0.116478  -0.002936  0.101278  0.123084  -0.002049  1.013918  -0.001
H  H40  1  0.79605675  0.63655039  0.49303290  1  0.115306  0.000303  0.102396  0.103477  0.000306  1.018659  0.0
H  H41  1  0.70393272  0.36347578  0.99303262  1  0.115413  -0.000262  0.10244  0.103514  -0.000254  1.018965  0.0
H  H42  1  0.20405483  0.36354077  0.50695935  1  0.116127  -0.000572  0.102421  0.103577  -0.000415  1.019732  0.0
H  H43  1  0.29590490  0.63648180  0.00696146  1  0.116652  -0.000616  0.102456  0.103591  -0.000443  1.019131  0.0
H  H44  1  0.97008083  0.66495843  0.62982770  1  0.115263  -0.001143  0.110894  0.11983  -0.000633  1.000764  -0.001
H  H45  1  0.52984052  0.33502298  0.12983156  1  0.115021  0.001075  0.110861  0.119804  0.000594  1.000441  0.001
H  H46  1  0.02978217  0.33505694  0.37019644  1  0.115314  -0.00118  0.110854  0.119686  -0.000647  1.000665  -0.001
H  H47  1  0.47011823  0.66493018  0.87021222  1  0.115277  -0.001112  0.110878  0.119759  -0.000557  1.000753  -0.001
H  H48  1  0.98958368  0.52430361  0.71660988  1  0.136461  -0.002207  0.107882  0.090468  -0.001013  1.017979  -0.002
H  H49  1  0.51038986  0.47570614  0.21662363  1  0.13635  0.00218  0.107867  0.090506  0.000964  1.017977  0.002
H  H50  1  0.01031765  0.47571099  0.28337316  1  0.13679  -0.002188  0.10793  0.090628  -0.000926  1.017656  -0.002
H  H51  1  0.48967638  0.52430892  0.78339561  1  0.137162  -0.002215  0.107898  0.090553  -0.001019  1.017616  -0.002
C  C52  1  0.09714797  0.11406650  0.45010090  1  -0.027453  -0.000373  -0.012807  0.047248  -0.000263  4.039169  0.0
C  C53  1  0.40285230  0.88592831  0.95008655  1  -0.026737  0.000263  -0.012895  0.047273  0.000217  4.038995  0.0
C  C54  1  0.90282876  0.88595011  0.54992079  1  -0.02676  -0.000414  -0.012951  0.047262  -0.000287  4.038761  0.0
C  C55  1  0.59716521  0.11405580  0.04991122  1  -0.026441  -0.00041  -0.012888  0.047136  -0.000258  4.03908  0.0
C  C56  1  0.28492176  0.10081477  0.47019625  1  -0.055632  -0.000269  -0.094414  -0.130217  -0.000202  3.966781  0.0
C  C57  1  0.21507009  0.89917408  0.97018744  1  -0.055715  -0.000109  -0.09455  -0.130377  -7.9e-05  3.966703  0.0
C  C58  1  0.71506020  0.89918843  0.52981809  1  -0.056123  0.00012  -0.094455  -0.130159  0.000124  3.966489  0.0
C  C59  1  0.78492509  0.10080512  0.02981585  1  -0.056019  -0.000392  -0.094652  -0.130353  -0.000259  3.967034  0.0
C  C60  1  0.37487706  0.04366565  0.42146607  1  -0.056925  0.000103  -0.097508  -0.086691  9.9e-05  4.024923  0.0
C  C61  1  0.12512955  0.95633072  0.92145859  1  -0.056871  -0.000121  -0.097549  -0.086945  -8.7e-05  4.025329  0.0
C  C62  1  0.62509281  0.95633615  0.57854642  1  -0.057205  -9.8e-05  -0.097418  -0.086815  -9.3e-05  4.025097  0.0
C  C63  1  0.87489070  0.04365620  0.07854225  1  -0.056368  -9.8e-05  -0.097305  -0.086645  -5.7e-05  4.025067  0.0
C  C64  1  0.27641212  0.99697439  0.35380264  1  -0.071673  0.001272  -0.094435  -0.077197  0.000983  3.983037  0.001
C  C65  1  0.22361002  0.00302211  0.85380721  1  -0.0727  -0.001238  -0.094442  -0.077071  -0.000877  3.983389  -0.001
C  C66  1  0.72357897  0.00303303  0.64619881  1  -0.071783  -0.001419  -0.094434  -0.076992  -0.001  3.983193  -0.001
C  C67  1  0.77641894  0.99696197  0.14620037  1  -0.0724  -0.001589  -0.094513  -0.077031  -0.001157  3.98299  -0.001
C  C68  1  0.09082851  0.01087727  0.33292678  1  0.004042  -0.000271  -0.094775  -0.075692  -0.000185  4.01195  0.0
C  C69  1  0.40918616  0.98912802  0.83292061  1  0.004439  -0.000338  -0.094667  -0.075472  -0.000166  4.012253  0.0
C  C70  1  0.90916135  0.98913368  0.66709061  1  0.003751  -0.000501  -0.094624  -0.075519  -0.000269  4.012222  0.0
C  C71  1  0.59083932  0.01087017  0.16708697  1  0.003783  0.000101  -0.094582  -0.075606  9.1e-05  4.012016  0.0
C  C72  1  0.00178384  0.06947353  0.38010117  1  -0.037703  -0.000319  -0.089728  -0.123833  -0.000233  3.957065  0.0
C  C73  1  0.49823307  0.93053616  0.88009058  1  -0.037986  0.000256  -0.089697  -0.123843  0.000227  3.956708  0.0
C  C74  1  0.99821281  0.93054586  0.61992421  1  -0.037437  -0.000534  -0.089981  -0.124301  -0.000384  3.95703  0.0
C  C75  1  0.50178955  0.06946204  0.11991638  1  -0.0376  -0.000602  -0.089866  -0.123972  -0.000448  3.95682  0.0
C  C76  1  0.00077571  0.17165277  0.50260770  1  0.470604  -0.002781  0.103978  0.109023  -0.002006  4.040992  -0.002
C  C77  1  0.49925786  0.82836537  0.00259118  1  0.468693  0.002644  0.104187  0.109042  0.002029  4.041136  0.002
C  C78  1  0.99925103  0.82838209  0.49741338  1  0.469487  -0.002687  0.104085  0.10858  -0.001994  4.041298  -0.002
C  C79  1  0.50078430  0.17164408  0.99740291  1  0.468816  -0.002767  0.104018  0.108906  -0.00198  4.04092  -0.002
C  C80  1  0.03719692  0.19745138  0.58539478  1  0.40273  0.000619  0.034017  -0.059406  6.6e-05  3.907609  -0.001
C  C81  1  0.46280807  0.80255071  0.08538769  1  0.405262  -0.000163  0.034059  -0.059403  0.000487  3.908067  0.001
C  C82  1  0.96275777  0.80257019  0.41460176  1  0.405502  0.000134  0.034371  -0.058633  -0.000401  3.907033  -0.001
C  C83  1  0.53723663  0.19743335  0.91459904  1  0.405022  0.000595  0.034423  -0.058757  4.5e-05  3.90692  -0.001
C  C84  1  0.65490570  0.31161468  0.53841446  1  0.299908  -0.001569  -0.04239  -0.213547  -0.001055  3.889684  -0.002
C  C85  1  0.84507893  0.68838045  0.03842286  1  0.300315  0.001795  -0.04242  -0.213867  0.001168  3.889618  0.002
C  C86  1  0.34507033  0.68840968  0.46155570  1  0.300538  -0.001823  -0.042414  -0.213793  -0.001039  3.889028  -0.002
C  C87  1  0.15490718  0.31158537  0.96155160  1  0.299365  -0.001608  -0.04229  -0.213647  -0.001005  3.889705  -0.002
C  C88  1  0.74486794  0.41210035  0.56109332  1  0.456914  0.00057  0.121588  0.243837  -0.000342  3.941932  0.0
C  C89  1  0.75513874  0.58788035  0.06110639  1  0.457355  -0.000355  0.121516  0.243868  0.000765  3.942109  0.0
C  C90  1  0.25518154  0.58789710  0.43887193  1  0.476279  -8.4e-05  0.121653  0.244218  -0.000766  3.942668  0.0
C  C91  1  0.24481842  0.41208480  0.93888402  1  0.475622  0.000155  0.121523  0.244009  -0.000501  3.94277  0.0
C  C92  1  0.72896932  0.48614127  0.50910701  1  -0.029482  -0.004476  -0.084305  -0.168669  -0.002958  3.927054  -0.004
C  C93  1  0.77105341  0.51384056  0.00912275  1  -0.028838  0.003373  -0.084275  -0.16854  0.002407  3.927556  0.003
C  C94  1  0.27120369  0.51387856  0.49083370  1  -0.04788  -0.007027  -0.084384  -0.168189  -0.005281  3.928591  -0.006
C  C95  1  0.22879011  0.48610502  0.99084557  1  -0.047038  -0.008118  -0.084463  -0.168444  -0.005955  3.928638  -0.006
C  C96  1  0.80788883  0.57840308  0.53360971  1  0.002532  0.004349  -0.067821  -0.00703  0.003213  3.938212  0.003
C  C97  1  0.69210522  0.42158771  0.03361306  1  0.00202  -0.004418  -0.067946  -0.007155  -0.003083  3.939011  -0.003
C  C98  1  0.19221036  0.42162745  0.46638622  1  0.002487  0.003372  -0.067999  -0.007489  0.002206  3.940582  0.002
C  C99  1  0.30775327  0.57835925  0.96638901  1  0.002429  0.003266  -0.067898  -0.007272  0.002182  3.939902  0.002
C  C100  1  0.90324578  0.59396369  0.60911650  1  -0.070268  -0.005816  -0.084993  -0.13101  -0.004084  3.956686  -0.005
C  C101  1  0.59673660  0.40602288  0.10911465  1  -0.069535  0.005193  -0.084962  -0.130992  0.003867  3.956092  0.004
C  C102  1  0.09674518  0.40604654  0.39091132  1  -0.071186  -0.005276  -0.084881  -0.130586  -0.003655  3.955576  -0.004
C  C103  1  0.40320792  0.59393665  0.89091379  1  -0.070413  -0.005945  -0.084818  -0.130659  -0.004047  3.956363  -0.005
C  C104  1  0.91637651  0.51663350  0.65728200  1  0.481946  0.001241  0.047497  0.11125  0.000185  3.930961  0.001
C  C105  1  0.58359578  0.48336175  0.15728611  1  0.481874  -0.001996  0.047617  0.111253  -0.000801  3.93088  -0.001
C  C106  1  0.08357303  0.48338315  0.34271577  1  0.481796  0.001916  0.047658  0.11105  0.000927  3.930317  0.001
C  C107  1  0.41639511  0.51661746  0.84272515  1  0.481029  0.001243  0.047584  0.111073  0.000215  3.930481  0.001
N  N108  1  0.90783151  0.24859466  0.60746752  1  -0.672477  -0.068775  -0.24822  -0.193249  -0.049164  3.531823  -0.061
N  N109  1  0.59212292  0.75140886  0.10747105  1  -0.674532  0.068015  -0.248536  -0.193345  0.050117  3.532661  0.061
N  N110  1  0.09205546  0.75142914  0.39251000  1  -0.673988  -0.068359  -0.24913  -0.194018  -0.04858  3.532566  -0.061
N  N111  1  0.40789451  0.24856890  0.89251322  1  -0.673427  -0.06885  -0.248901  -0.193967  -0.049221  3.532077  -0.061
N  N112  1  0.79965816  0.25345535  0.54049691  1  -0.330407  -0.001865  -0.022505  0.29547  -0.001058  3.79592  -0.001
N  N113  1  0.70034521  0.74656165  0.04049555  1  -0.329706  0.001148  -0.022474  0.295348  0.000544  3.795036  0.0
N  N114  1  0.20033226  0.74660002  0.45949718  1  -0.329696  -0.001141  -0.022344  0.295411  -0.000463  3.793657  0.0
N  N115  1  0.29966252  0.25341683  0.95949178  1  -0.330347  -0.001891  -0.022379  0.29558  -0.001084  3.794375  -0.001
N  N116  1  0.84996241  0.20881236  0.47587383  1  -0.59632  -0.005995  -0.19637  -0.270565  -0.003973  3.10521  -0.005
N  N117  1  0.65005800  0.79121274  0.97586224  1  -0.596416  0.005796  -0.196353  -0.270398  0.004085  3.105218  0.005
N  N118  1  0.15004358  0.79125498  0.52413805  1  -0.596389  -0.005995  -0.196256  -0.270214  -0.00402  3.105594  -0.005
N  N119  1  0.34997026  0.20877911  0.02412939  1  -0.595593  -0.00586  -0.196254  -0.270357  -0.003858  3.105236  -0.005
N  N120  1  0.83713184  0.42760359  0.63419832  1  -1.220536  -0.09106  -0.332675  -0.258965  -0.062586  3.566688  -0.079
N  N121  1  0.66286596  0.57238202  0.13420066  1  -1.220881  0.090332  -0.332925  -0.259084  0.064271  3.567523  0.079
N  N122  1  0.16283966  0.57240174  0.36580251  1  -1.221138  -0.090903  -0.333077  -0.259365  -0.062337  3.568204  -0.079
N  N123  1  0.33717923  0.42759075  0.86581244  1  -1.22122  -0.091843  -0.332865  -0.259104  -0.063057  3.567049  -0.08
Cl  Cl124  1  0.96519680  0.20415760  0.78771315  1  -0.588471  -0.146197  -0.274047  -0.475855  -0.097051  1.331616  -0.114
Cl  Cl125  1  0.53494078  0.79581303  0.28767614  1  -0.588331  0.148558  -0.274212  -0.476056  0.10304  1.331707  0.114
Cl  Cl126  1  0.03494257  0.79580516  0.21235394  1  -0.58818  -0.149217  -0.274217  -0.475974  -0.099397  1.331579  -0.115
Cl  Cl127  1  0.46521224  0.20417299  0.71230629  1  -0.587993  -0.146791  -0.274061  -0.475852  -0.09744  1.3317  -0.114
Cl  Cl128  1  0.82043062  0.40081488  0.82242918  1  -0.598697  -0.138018  -0.30456  -0.506631  -0.091178  1.320051  -0.108
Cl  Cl129  1  0.67959559  0.59921793  0.32240246  1  -0.598846  0.141197  -0.304588  -0.506737  0.097632  1.319881  0.109
Cl  Cl130  1  0.17976931  0.59933398  0.17762687  1  -0.599208  -0.142069  -0.304766  -0.506783  -0.094352  1.320042  -0.109
Cl  Cl131  1  0.32021616  0.40069315  0.67761126  1  -0.598957  -0.138843  -0.304791  -0.50677  -0.091784  1.32011  -0.108
