# generated using pymatgen
data_CuH10C17N5O4
_symmetry_space_group_name_H-M   'P 1'
_cell_length_a   10.88047254
_cell_length_b   10.88047960
_cell_length_c   16.27675814
_cell_angle_alpha   105.92767496
_cell_angle_beta   105.92760766
_cell_angle_gamma   94.66328999
_symmetry_Int_Tables_number   1
_chemical_formula_structural   CuH10C17N5O4
_chemical_formula_sum   'Cu4 H40 C68 N20 O16'
_cell_volume   1756.06720239
_cell_formula_units_Z   4
loop_
 _symmetry_equiv_pos_site_id
 _symmetry_equiv_pos_as_xyz
  1  'x, y, z'
loop_
 _atom_site_type_symbol
 _atom_site_label
 _atom_site_symmetry_multiplicity
 _atom_site_fract_x
 _atom_site_fract_y
 _atom_site_fract_z
 _atom_site_occupancy
 _atom_site_pbe_bader_charge
 _atom_site_pbe_bader_spin_density
 _atom_site_pbe_cm5_charge
 _atom_site_pbe_ddec_charge
 _atom_site_pbe_ddec_spin_density
 _atom_site_pbe_ddec_sum_bond_order
 _atom_site_pbe_magmom
Cu  Cu0  1  0.46263291  0.53735099  0.24999456  1  1.027577  0.556536  0.740055  0.733368  0.719605  2.250518  0.547
Cu  Cu1  1  0.53735827  0.46264348  0.75000063  1  1.027369  0.556523  0.740028  0.733265  0.719592  2.250556  0.547
Cu  Cu2  1  0.00000294  0.99999418  0.49999992  1  1.053074  -0.561363  0.729025  0.742014  -0.772635  2.206367  -0.561
Cu  Cu3  1  0.99999683  0.00000491  0.00000372  1  1.05298  0.562146  0.728922  0.741983  0.749919  2.20631  0.562
H  H4  1  0.49991006  0.27016358  0.25554148  1  0.145737  0.001847  0.112774  0.074174  0.000955  1.068216  0.002
H  H5  1  0.72980906  0.50008941  0.24446058  1  0.143473  0.001851  0.112818  0.074236  0.000957  1.068254  0.002
H  H6  1  0.50010323  0.72982725  0.74445540  1  0.145817  0.001845  0.112794  0.074278  0.000955  1.0683  0.002
H  H7  1  0.27019177  0.49990448  0.75553573  1  0.143414  0.001851  0.112842  0.0743  0.000957  1.068227  0.002
H  H8  1  0.45988077  0.13221447  0.34897516  1  0.09175  0.001232  0.116295  0.126634  0.00065  0.988163  0.001
H  H9  1  0.86776304  0.54012024  0.15103300  1  0.091469  0.001231  0.116196  0.126404  0.00064  0.988083  0.001
H  H10  1  0.54012657  0.86777264  0.65102172  1  0.091629  0.001233  0.11626  0.126539  0.00065  0.988043  0.001
H  H11  1  0.13223752  0.45989371  0.84896588  1  0.091466  0.00123  0.116291  0.126518  0.000639  0.988108  0.001
H  H12  1  0.35147393  0.21628527  0.46505918  1  0.093555  0.000434  0.108368  0.104587  0.000331  1.041322  0.0
H  H13  1  0.78370958  0.64853176  0.03495086  1  0.093876  0.000429  0.108316  0.104458  0.000304  1.041358  0.0
H  H14  1  0.64853367  0.78371047  0.53494002  1  0.093549  0.000434  0.108372  0.104547  0.000332  1.041319  0.0
H  H15  1  0.21628323  0.35148486  0.96505196  1  0.093438  0.000429  0.108276  0.104437  0.000304  1.041312  0.0
H  H16  1  0.33845045  0.56570242  0.38812859  1  0.168559  0.001906  0.127026  0.109813  0.000967  1.001877  0.001
H  H17  1  0.43427691  0.66155195  0.11186267  1  0.16826  0.00191  0.127014  0.109732  0.000965  1.001932  0.001
H  H18  1  0.66156078  0.43428524  0.61186853  1  0.168238  0.001907  0.126987  0.109754  0.000967  1.00186  0.001
H  H19  1  0.56571483  0.33843575  0.88813870  1  0.168208  0.001911  0.127028  0.109768  0.000965  1.001862  0.001
H  H20  1  0.03066468  0.60969510  0.69486739  1  0.124662  -0.000148  0.12158  0.130003  -8.2e-05  0.96485  0.0
H  H21  1  0.39030355  0.96934901  0.80512670  1  0.12424  0.000171  0.121563  0.129977  9.2e-05  0.964917  0.0
H  H22  1  0.96934092  0.39029846  0.30513100  1  0.124372  -0.000148  0.12151  0.129957  -8.2e-05  0.96488  0.0
H  H23  1  0.60967467  0.03065907  0.19486492  1  0.124517  0.000172  0.121581  0.130017  9.2e-05  0.965015  0.0
H  H24  1  0.91524779  0.79709544  0.73468278  1  0.116557  -0.001233  0.114908  0.13088  -0.000677  0.978034  -0.001
H  H25  1  0.20290046  0.08475595  0.76530788  1  0.116503  0.00123  0.114915  0.130846  0.000646  0.977838  0.001
H  H26  1  0.08476072  0.20289944  0.26531765  1  0.116709  -0.001233  0.114889  0.130823  -0.000677  0.977992  -0.001
H  H27  1  0.79707861  0.91525214  0.23468882  1  0.116648  0.001229  0.114838  0.130779  0.000646  0.977974  0.001
H  H28  1  0.90511670  0.95928469  0.64908564  1  0.126676  -0.001611  0.122603  0.102424  -0.000759  0.993071  -0.001
H  H29  1  0.04072255  0.09489574  0.85091142  1  0.126534  0.001624  0.122573  0.102388  0.000739  0.993016  0.001
H  H30  1  0.09489185  0.04071487  0.35092061  1  0.126488  -0.00161  0.122628  0.102492  -0.000758  0.993074  -0.001
H  H31  1  0.95927337  0.90513076  0.14909882  1  0.126925  0.001625  0.122541  0.102281  0.000739  0.993191  0.001
H  H32  1  0.11751856  0.76359410  0.49553949  1  0.172356  -0.001789  0.125979  0.111842  -0.000865  1.009186  -0.002
H  H33  1  0.23640280  0.88247039  0.00444602  1  0.172168  0.001791  0.125905  0.111749  0.000837  1.009256  0.002
H  H34  1  0.88248527  0.23640306  0.50445802  1  0.172316  -0.001788  0.12592  0.111739  -0.000865  1.0093  -0.002
H  H35  1  0.76359078  0.11753595  0.99554883  1  0.172114  0.001793  0.125884  0.111724  0.000838  1.009188  0.002
H  H36  1  0.14714689  0.70171385  0.10361589  1  0.143137  0.000812  0.114552  0.133867  0.000572  0.981513  0.0
H  H37  1  0.29828698  0.85284711  0.39637683  1  0.14309  -0.00054  0.114527  0.133793  -0.000538  0.981463  0.0
H  H38  1  0.85284167  0.29829258  0.89638662  1  0.142426  0.000813  0.114532  0.133803  0.000572  0.98154  0.0
H  H39  1  0.70170901  0.14714520  0.60361641  1  0.143182  -0.000539  0.114531  0.133792  -0.000538  0.981617  0.0
H  H40  1  0.29419388  0.33764547  0.58755790  1  0.546934  -0.000156  0.328324  0.292869  -0.000136  0.954424  0.0
H  H41  1  0.66236106  0.70582049  0.91245598  1  0.547222  -0.000152  0.328375  0.292858  -0.000122  0.954383  0.0
H  H42  1  0.70580467  0.66233946  0.41243809  1  0.547017  -0.000156  0.328292  0.29284  -0.000136  0.954477  0.0
H  H43  1  0.33763848  0.29419700  0.08755076  1  0.547269  -0.000152  0.328335  0.292926  -0.000122  0.954441  0.0
C  C44  1  0.20760536  0.50161082  0.15796971  1  1.609978  0.000302  0.202773  0.58773  0.001495  4.21384  -0.001
C  C45  1  0.49840514  0.79240060  0.34202438  1  1.609132  0.000226  0.202679  0.587631  0.001459  4.214182  -0.001
C  C46  1  0.79239175  0.49839014  0.84203093  1  1.609524  0.000302  0.20273  0.587585  0.001494  4.21369  -0.001
C  C47  1  0.50160146  0.20759033  0.65796879  1  1.609961  0.000221  0.202559  0.587284  0.001459  4.214199  -0.001
C  C48  1  0.09843824  0.49529163  0.07580951  1  -0.08194  0.01305  -0.004174  -0.028658  0.009006  3.940117  0.009
C  C49  1  0.50472746  0.90156243  0.42419835  1  -0.081827  0.011561  -0.004052  -0.028608  0.008178  3.939985  0.008
C  C50  1  0.90156213  0.50471563  0.92418682  1  -0.081951  0.013053  -0.00415  -0.028684  0.009008  3.940379  0.009
C  C51  1  0.49528198  0.09843440  0.57580694  1  -0.081863  0.011558  -0.004101  -0.02848  0.008176  3.93995  0.008
C  C52  1  0.01470262  0.38115188  0.01661975  1  0.002328  0.010018  -0.015924  -0.056786  0.007058  3.972283  0.007
C  C53  1  0.61886331  0.98528747  0.48339085  1  0.002104  -0.002546  -0.016001  -0.056773  -0.002168  3.97316  -0.003
C  C54  1  0.98528867  0.61885105  0.98338445  1  0.002292  0.010016  -0.01595  -0.056864  0.007057  3.972711  0.007
C  C55  1  0.38114545  0.01471230  0.51660750  1  0.001918  -0.002547  -0.015928  -0.056898  -0.002168  3.97299  -0.003
C  C56  1  0.08265473  0.61270482  0.05831198  1  -0.043816  0.006088  -0.078376  -0.117882  0.0042  3.921556  0.003
C  C57  1  0.38730007  0.91735032  0.44168977  1  -0.043394  0.004404  -0.078391  -0.117799  0.002803  3.921469  0.002
C  C58  1  0.91734177  0.38730749  0.94169195  1  -0.042907  0.006085  -0.078412  -0.117909  0.004198  3.9216  0.003
C  C59  1  0.61270371  0.08264587  0.55830816  1  -0.043493  0.004405  -0.078441  -0.11798  0.002805  3.921705  0.002
C  C60  1  0.02992540  0.25289043  0.03188416  1  1.547051  -0.001536  0.190015  0.542692  -0.000398  4.243451  -0.003
C  C61  1  0.74711691  0.97006560  0.46813486  1  1.547615  0.002132  0.189904  0.542533  0.000576  4.24384  0.004
C  C62  1  0.97006955  0.74711282  0.96812941  1  1.547787  -0.001536  0.189932  0.542587  -0.000397  4.243718  -0.003
C  C63  1  0.25288533  0.02991595  0.53186365  1  1.547672  0.002134  0.189833  0.542496  0.000577  4.244018  0.004
C  C64  1  0.45712297  0.30530598  0.30905762  1  0.427524  0.002006  0.04652  0.093155  0.002589  3.910992  0.002
C  C65  1  0.69467879  0.54287972  0.19094990  1  0.42971  0.001984  0.046337  0.09289  0.002577  3.911223  0.002
C  C66  1  0.54289249  0.69469556  0.69094666  1  0.426904  0.002006  0.046459  0.093004  0.002589  3.911018  0.002
C  C67  1  0.30531147  0.45711559  0.80904466  1  0.430241  0.001983  0.046349  0.09284  0.002577  3.911346  0.002
C  C68  1  0.43301836  0.22839194  0.36048069  1  -0.022359  0.006293  -0.07561  -0.107021  0.004345  3.935243  0.005
C  C69  1  0.77158566  0.56697891  0.13952376  1  -0.021918  0.006291  -0.075397  -0.106587  0.00434  3.935178  0.005
C  C70  1  0.56699011  0.77159918  0.63951594  1  -0.021728  0.006291  -0.075654  -0.106953  0.004345  3.9352  0.005
C  C71  1  0.22840570  0.43302131  0.86047318  1  -0.022687  0.006293  -0.075535  -0.106792  0.00434  3.935406  0.005
C  C72  1  0.37207604  0.27519326  0.42467266  1  0.026548  -0.002725  -0.059271  -0.057603  -0.001856  3.923791  -0.002
C  C73  1  0.72479532  0.62793531  0.07533973  1  0.026572  -0.002716  -0.05942  -0.057864  -0.001866  3.923959  -0.002
C  C74  1  0.62793738  0.72480421  0.57532921  1  0.02663  -0.002725  -0.059333  -0.057644  -0.001857  3.923854  -0.002
C  C75  1  0.27520034  0.37208072  0.92466475  1  0.026924  -0.002716  -0.05927  -0.05758  -0.001866  3.923615  -0.002
C  C76  1  0.33667006  0.39833214  0.43587963  1  0.032022  0.00336  0.001485  -0.025564  0.002333  4.011549  0.003
C  C77  1  0.60165518  0.66333509  0.06412159  1  0.031752  0.003385  0.001689  -0.02519  0.002353  4.011645  0.003
C  C78  1  0.66334328  0.60166246  0.56412106  1  0.033001  0.003361  0.001588  -0.025474  0.002334  4.011771  0.003
C  C79  1  0.39833828  0.33667299  0.93588095  1  0.031929  0.003387  0.001566  -0.025405  0.002354  4.011454  0.003
C  C80  1  0.36542073  0.47040408  0.38239903  1  0.505167  -0.00254  0.064312  0.089073  -0.001779  3.862276  -0.002
C  C81  1  0.52957607  0.63457540  0.11759541  1  0.505263  -0.002531  0.064284  0.088966  -0.001771  3.86253  -0.002
C  C82  1  0.63458966  0.52958821  0.61760004  1  0.505443  -0.002541  0.064397  0.08918  -0.001778  3.86257  -0.002
C  C83  1  0.47041517  0.36542100  0.88240015  1  0.505551  -0.002531  0.064285  0.088988  -0.001771  3.862459  -0.002
C  C84  1  0.26798288  0.45396551  0.49850383  1  1.001045  0.000428  0.227614  0.274971  0.000303  4.048411  0.0
C  C85  1  0.54603096  0.73202742  0.00149774  1  1.001186  0.000363  0.227492  0.274792  0.000247  4.048422  0.0
C  C86  1  0.73203558  0.54603652  0.50149743  1  0.999854  0.000428  0.227514  0.274776  0.000303  4.048953  0.0
C  C87  1  0.45395577  0.26798163  0.99850431  1  1.000859  0.000363  0.227567  0.274884  0.000247  4.048718  0.0
C  C88  1  0.15857285  0.57105486  0.56754692  1  0.968513  -0.000531  0.207468  0.248197  -0.000396  4.104876  0.0
C  C89  1  0.42894647  0.84142303  0.93244602  1  0.968226  0.000731  0.207544  0.248352  0.000536  4.104594  0.001
C  C90  1  0.84142629  0.42894459  0.43244768  1  0.968575  -0.000531  0.207535  0.248412  -0.000396  4.104545  0.0
C  C91  1  0.57104789  0.15858047  0.06755212  1  0.968843  0.000731  0.207518  0.24839  0.000536  4.104614  0.001
C  C92  1  0.08580554  0.67428458  0.59335661  1  -0.012901  -0.00569  0.003901  -0.005628  -0.004051  3.989619  -0.005
C  C93  1  0.32572050  0.91419578  0.90663696  1  -0.012952  0.005685  0.00383  -0.005554  0.003926  3.989535  0.005
C  C94  1  0.91419546  0.32571506  0.40664145  1  -0.013158  -0.00569  0.003912  -0.005708  -0.004051  3.989734  -0.005
C  C95  1  0.67427196  0.08581028  0.09336377  1  -0.013449  0.005686  0.003827  -0.005441  0.003926  3.989614  0.005
C  C96  1  0.02664698  0.68336187  0.66079473  1  -0.07316  0.003908  -0.057035  -0.056878  0.00265  3.899102  0.002
C  C97  1  0.31664442  0.97336568  0.83920313  1  -0.073152  -0.00388  -0.057062  -0.057004  -0.002706  3.899082  -0.002
C  C98  1  0.97335969  0.31663749  0.33920867  1  -0.072462  0.003908  -0.057133  -0.057041  0.00265  3.899189  0.002
C  C99  1  0.68334917  0.02664531  0.16079876  1  -0.073512  -0.003879  -0.05707  -0.057129  -0.002705  3.899334  -0.002
C  C100  1  0.96144179  0.78665339  0.68210673  1  0.009737  -0.005836  -0.07921  -0.120959  -0.004217  3.986708  -0.005
C  C101  1  0.21334932  0.03856845  0.81789137  1  0.010182  0.005811  -0.079193  -0.120967  0.004055  3.986601  0.005
C  C102  1  0.03856464  0.21333923  0.31789594  1  0.00943  -0.005836  -0.079015  -0.120658  -0.004217  3.986325  -0.005
C  C103  1  0.78664050  0.96144861  0.18211588  1  0.010144  0.005809  -0.079118  -0.120747  0.004056  3.986602  0.005
C  C104  1  0.95542628  0.87703895  0.63532916  1  0.448594  0.000743  0.043241  0.073189  -0.000409  3.942626  0.0
C  C105  1  0.12296437  0.04458014  0.86466593  1  0.448897  -0.000722  0.043299  0.073411  0.000272  3.942669  0.0
C  C106  1  0.04458794  0.12295662  0.36467681  1  0.449153  0.000744  0.04318  0.073008  -0.000409  3.942678  0.0
C  C107  1  0.87702369  0.95543963  0.13533782  1  0.447958  -0.000718  0.043394  0.073532  0.000272  3.942762  0.0
C  C108  1  0.07418909  0.76826260  0.54890825  1  0.495879  0.001263  0.054863  0.065925  6.8e-05  3.86165  0.001
C  C109  1  0.23173888  0.92580730  0.95108190  1  0.496502  -0.001249  0.054965  0.066053  -0.00019  3.861687  -0.001
C  C110  1  0.92581868  0.23173795  0.45109190  1  0.495632  0.001259  0.055014  0.06614  6.8e-05  3.861717  0.001
C  C111  1  0.76825644  0.07419817  0.04891988  1  0.496638  -0.00125  0.055004  0.065946  -0.00019  3.861795  -0.001
N  N112  1  0.42432184  0.42448649  0.32080907  1  -1.241616  0.069243  -0.348795  -0.225395  0.046737  3.638463  0.057
N  N113  1  0.57549541  0.57567711  0.17918804  1  -1.241567  0.069297  -0.348686  -0.225153  0.046772  3.638424  0.057
N  N114  1  0.57568950  0.57550593  0.67919082  1  -1.2411  0.06925  -0.348745  -0.225334  0.046741  3.638583  0.057
N  N115  1  0.42449661  0.42431551  0.82080941  1  -1.241382  0.069298  -0.34867  -0.2251  0.046772  3.638554  0.057
N  N116  1  0.21084860  0.55833532  0.49916995  1  -1.146113  0.00014  -0.327587  -0.415048  8.6e-05  3.17486  0.0
N  N117  1  0.44165328  0.78915085  0.00082504  1  -1.146144  0.000394  -0.327408  -0.41489  0.000233  3.174712  0.0
N  N118  1  0.78916594  0.44166614  0.50083229  1  -1.146472  0.00014  -0.327525  -0.414955  8.6e-05  3.17497  0.0
N  N119  1  0.55832858  0.21085475  0.99917233  1  -1.146026  0.000394  -0.327543  -0.415002  0.000233  3.174965  0.0
N  N120  1  0.24888849  0.40648513  0.56386071  1  -0.809797  6.4e-05  -0.260318  -0.143987  6.4e-05  3.662583  0.0
N  N121  1  0.59351515  0.75112308  0.93614104  1  -0.809868  0.000418  -0.26052  -0.144075  0.000285  3.662575  0.0
N  N122  1  0.75111516  0.59350350  0.43613083  1  -0.809714  6.4e-05  -0.26045  -0.144168  6.3e-05  3.662548  0.0
N  N123  1  0.40647542  0.24888462  0.06386025  1  -0.810211  0.000418  -0.260373  -0.144079  0.000285  3.662742  0.0
N  N124  1  0.18068855  0.48052036  0.60940499  1  -0.651491  -0.00023  -0.216616  -0.246138  -0.000141  3.127252  0.0
N  N125  1  0.51949028  0.81931987  0.89059208  1  -0.651787  0.000845  -0.216571  -0.246182  0.000542  3.127112  0.001
N  N126  1  0.81930753  0.51947018  0.39058178  1  -0.651552  -0.00023  -0.21644  -0.245926  -0.000141  3.126725  0.0
N  N127  1  0.48050513  0.18068570  0.10940605  1  -0.65164  0.000845  -0.216673  -0.246325  0.000542  3.127318  0.001
N  N128  1  0.01050374  0.86729116  0.56943881  1  -1.215476  -0.089714  -0.336997  -0.226588  -0.064192  3.603828  -0.079
N  N129  1  0.13270381  0.98949259  0.93055324  1  -1.215555  0.089831  -0.337123  -0.226883  0.0623  3.603704  0.079
N  N130  1  0.98950270  0.13270146  0.43056387  1  -1.215459  -0.089715  -0.337131  -0.226707  -0.064195  3.60382  -0.079
N  N131  1  0.86728685  0.01051890  0.06945065  1  -1.215198  0.089825  -0.33714  -0.226835  0.062297  3.604146  0.079
O  O132  1  0.31199593  0.46375987  0.14047963  1  -1.118507  0.111402  -0.336576  -0.581011  0.07296  2.379737  0.099
O  O133  1  0.53621028  0.68798406  0.35950368  1  -1.117399  0.111549  -0.336567  -0.580909  0.073041  2.379741  0.099
O  O134  1  0.68799504  0.53622882  0.85951502  1  -1.118052  0.111425  -0.336523  -0.580846  0.072975  2.379819  0.099
O  O135  1  0.46378138  0.31199520  0.64048745  1  -1.118225  0.111523  -0.33649  -0.580759  0.073021  2.379794  0.099
O  O136  1  0.19982896  0.55342498  0.23382644  1  -1.148461  0.004793  -0.313998  -0.523925  0.002693  2.085458  0.004
O  O137  1  0.44666442  0.80024084  0.26617622  1  -1.148593  0.004823  -0.313913  -0.523964  0.002722  2.085764  0.004
O  O138  1  0.80018704  0.44658638  0.76617122  1  -1.148453  0.004792  -0.313996  -0.523881  0.002692  2.085064  0.004
O  O139  1  0.55335349  0.19974672  0.73382461  1  -1.148481  0.004828  -0.313858  -0.52378  0.002725  2.085287  0.004
O  O140  1  0.95448402  0.15360699  0.96789525  1  -1.116732  0.111221  -0.332195  -0.539464  0.073671  2.363019  0.1
O  O141  1  0.84639481  0.04553463  0.53210210  1  -1.1167  -0.110133  -0.332221  -0.539441  -0.075336  2.362904  -0.099
O  O142  1  0.04551500  0.84639790  0.03211327  1  -1.116795  0.111216  -0.332265  -0.539564  0.073669  2.362973  0.1
O  O143  1  0.15360391  0.95445326  0.46789142  1  -1.116789  -0.110128  -0.332231  -0.539478  -0.075331  2.362898  -0.099
O  O144  1  0.11121604  0.24424191  0.10051252  1  -1.162499  0.000355  -0.326338  -0.550996  -9.5e-05  2.122049  0.001
O  O145  1  0.75576861  0.88875371  0.39952080  1  -1.163246  0.00041  -0.326249  -0.550912  0.000376  2.122094  -0.001
O  O146  1  0.88876229  0.75576545  0.89951340  1  -1.163154  0.000355  -0.326259  -0.550885  -9.4e-05  2.122065  0.001
O  O147  1  0.24424013  0.11124231  0.60047252  1  -1.163004  0.000411  -0.326133  -0.550794  0.000377  2.122435  0.0
