# generated using pymatgen
data_CoH7C7NO6
_symmetry_space_group_name_H-M   'P 1'
_cell_length_a   7.07836882
_cell_length_b   7.24763234
_cell_length_c   9.76791035
_cell_angle_alpha   89.04641094
_cell_angle_beta   71.32624671
_cell_angle_gamma   66.31307626
_symmetry_Int_Tables_number   1
_chemical_formula_structural   CoH7C7NO6
_chemical_formula_sum   'Co2 H14 C14 N2 O12'
_cell_volume   431.09695942
_cell_formula_units_Z   2
loop_
 _symmetry_equiv_pos_site_id
 _symmetry_equiv_pos_as_xyz
  1  'x, y, z'
loop_
 _atom_site_type_symbol
 _atom_site_label
 _atom_site_symmetry_multiplicity
 _atom_site_fract_x
 _atom_site_fract_y
 _atom_site_fract_z
 _atom_site_occupancy
 _atom_site_hse06_10hf_ddec_charge
 _atom_site_hse06_10hf_ddec_spin_density
 _atom_site_hse06_10hf_ddec_sum_bond_order
 _atom_site_hse06_10hf_magmom
 _atom_site_hse06_ddec_charge
 _atom_site_hse06_ddec_spin_density
 _atom_site_hse06_ddec_sum_bond_order
 _atom_site_hse06_magmom
 _atom_site_pbe_cm5_charge
 _atom_site_pbe_ddec_charge
 _atom_site_pbe_ddec_spin_density
 _atom_site_pbe_ddec_sum_bond_order
 _atom_site_pbe_magmom
Co  Co0  1  0.00000463  0.49999816  0.49999783  1  0.927183  -2.886429  2.405466  -2.64  1.001545  -2.940527  2.33713  -2.717  0.634023  0.790529  -2.665815  2.514099  -2.447
Co  Co1  1  0.49999871  0.50000051  0.00000083  1  0.990946  1.006264  2.63608  0.893  1.0713  1.03033  2.545197  0.913  0.607782  0.959995  0.756172  2.681034  0.638
H  H2  1  0.09824123  0.66513050  0.02291570  1  0.394571  0.000134  0.928071  0.0  0.403815  -1e-05  0.915004  0.0  0.305834  0.390248  0.00021  0.934149  0.0
H  H3  1  0.90175883  0.33487121  0.97708433  1  0.394579  0.000134  0.928061  0.0  0.403823  -1e-05  0.914995  0.0  0.305838  0.390255  0.00021  0.93414  0.0
H  H4  1  0.21808305  0.47184452  0.90497344  1  0.377294  -0.000195  0.970977  -0.001  0.38925  -0.000158  0.953943  -0.001  0.291317  0.370329  -5.2e-05  0.981096  0.0
H  H5  1  0.78191985  0.52815416  0.09502702  1  0.377292  -0.000195  0.970975  -0.001  0.389247  -0.000158  0.953942  -0.001  0.291318  0.370327  -5.2e-05  0.981094  0.0
H  H6  1  0.30711243  0.27926347  0.09362951  1  0.410008  -0.000121  0.860578  0.0  0.41771  -8.2e-05  0.853871  0.0  0.331399  0.407456  -6e-05  0.86093  0.0
H  H7  1  0.69288980  0.72073667  0.90636800  1  0.410085  -0.000121  0.860471  0.0  0.417786  -8.3e-05  0.853764  0.0  0.331458  0.407535  -6e-05  0.86082  0.0
H  H8  1  0.36428401  0.37050526  0.21635359  1  0.375385  0.000505  0.979095  0.0  0.386233  0.000588  0.964073  0.0  0.295855  0.369795  0.000205  0.9863  0.0
H  H9  1  0.63571373  0.62949494  0.78364702  1  0.375388  0.000505  0.979087  0.0  0.386238  0.000588  0.964063  0.0  0.295843  0.369798  0.000205  0.986294  0.0
H  H10  1  0.29163714  0.91492084  0.76145694  1  0.149034  -0.000253  0.982401  0.0  0.155262  -0.000179  0.978061  0.0  0.118018  0.141881  -0.000273  0.988449  0.0
H  H11  1  0.70836210  0.08507935  0.23854331  1  0.149046  -0.000253  0.982406  0.0  0.155274  -0.000179  0.978067  0.0  0.118017  0.141892  -0.000273  0.988454  0.0
H  H12  1  0.35125419  0.63689167  0.57953436  1  0.126759  0.000171  1.013113  0.0  0.130959  0.000188  1.008855  0.0  0.113165  0.123272  0.000192  1.016595  0.0
H  H13  1  0.64873458  0.36310856  0.42046629  1  0.126806  0.000171  1.01299  0.0  0.131004  0.000188  1.008736  0.0  0.113207  0.123319  0.000192  1.016472  0.0
H  H14  1  0.19303079  0.08677065  0.29151550  1  0.106847  -0.000223  0.984669  -0.001  0.111883  -0.000136  0.979547  -0.001  0.124095  0.101429  -0.000282  0.989541  -0.001
H  H15  1  0.80697129  0.91322651  0.70848517  1  0.106875  -0.000223  0.984591  -0.001  0.111912  -0.000137  0.97947  -0.001  0.124115  0.101478  -0.000282  0.989439  -0.001
C  C16  1  0.20159827  0.14448412  0.62321504  1  0.086572  0.0013  3.994282  0.002  0.091639  0.001236  4.01173  0.002  0.103451  0.081436  0.006821  3.982898  0.008
C  C17  1  0.79839893  0.85552065  0.37678662  1  0.086618  0.001301  3.994329  0.002  0.091694  0.001236  4.011765  0.002  0.103431  0.08148  0.006822  3.982946  0.008
C  C18  1  0.27113883  0.94575388  0.65632084  1  -0.106552  -0.000571  3.8899  -0.001  -0.110976  -0.00063  3.902248  -0.001  -0.068369  -0.107769  -0.000559  3.890866  -0.002
C  C19  1  0.72886122  0.05424783  0.34367920  1  -0.10657  -0.000572  3.88996  -0.001  -0.110999  -0.000629  3.902309  -0.001  -0.068354  -0.107783  -0.00056  3.890924  -0.002
C  C20  1  0.30726900  0.79210452  0.55459583  1  -0.024829  0.002992  3.888574  0.003  -0.014228  0.002174  3.896558  0.002  -0.058333  -0.033911  0.008838  3.887518  0.009
C  C21  1  0.69272493  0.20789422  0.44540673  1  -0.024876  0.002993  3.88846  0.003  -0.014272  0.002174  3.896436  0.002  -0.058349  -0.033955  0.008839  3.887405  0.009
C  C22  1  0.28243313  0.84111267  0.42028908  1  -0.089037  0.000295  3.974516  -0.001  -0.101718  3e-05  3.9944  -0.001  -0.010063  -0.082162  0.000647  3.963374  -0.001
C  C23  1  0.71755834  0.15888157  0.57971619  1  -0.089069  0.000295  3.974573  -0.001  -0.101751  3e-05  3.994457  -0.001  -0.010154  -0.082204  0.000647  3.963453  -0.001
C  C24  1  0.21745772  0.04400725  0.39401073  1  0.101745  0.001771  3.907763  0.003  0.113026  0.001351  3.92044  0.002  0.058367  0.090297  0.004369  3.902643  0.005
C  C25  1  0.78253418  0.95599600  0.60599016  1  0.101719  0.00177  3.907695  0.003  0.112997  0.00135  3.920374  0.002  0.058373  0.09026  0.004367  3.902572  0.005
C  C26  1  0.14846846  0.32136086  0.72831430  1  0.559008  0.000318  4.201715  0.001  0.591878  0.000224  4.195301  0.001  0.210858  0.533657  0.003098  4.210759  0.004
C  C27  1  0.85153894  0.67863775  0.27168306  1  0.559026  0.000317  4.201854  0.001  0.591891  0.000223  4.195443  0.001  0.210877  0.533676  0.003097  4.210897  0.004
C  C28  1  0.31068058  0.68384061  0.30966369  1  0.591983  0.000448  4.164897  0.0  0.632267  -0.000127  4.154962  -0.001  0.215588  0.568648  0.000436  4.160519  0.0
C  C29  1  0.68931635  0.31615804  0.69033407  1  0.592044  0.000451  4.16473  0.0  0.632329  -0.000126  4.154796  -0.001  0.215619  0.56871  0.000438  4.160353  0.0
N  N30  1  0.17136881  0.19375911  0.49462963  1  -0.300595  -0.025313  3.637328  -0.039  -0.323422  -0.021962  3.651465  -0.033  -0.334246  -0.276386  -0.022942  3.627349  -0.037
N  N31  1  0.82863193  0.80624106  0.50536925  1  -0.300658  -0.025312  3.637323  -0.039  -0.323486  -0.021962  3.651456  -0.033  -0.33425  -0.27645  -0.022941  3.62735  -0.037
O  O32  1  0.17452692  0.28769595  0.85094752  1  -0.545782  -0.002722  2.173168  -0.004  -0.566268  -0.00146  2.160028  -0.002  -0.311693  -0.541854  -0.00201  2.18948  -0.003
O  O33  1  0.82547694  0.71230726  0.14905262  1  -0.545801  -0.002722  2.17328  -0.004  -0.566285  -0.00146  2.160145  -0.002  -0.311709  -0.541874  -0.00201  2.189591  -0.003
O  O34  1  0.07817345  0.49759734  0.68819689  1  -0.564535  -0.033608  2.322221  -0.054  -0.59798  -0.026437  2.311904  -0.042  -0.310671  -0.536618  -0.034531  2.336259  -0.055
O  O35  1  0.92183109  0.50240435  0.31180312  1  -0.564534  -0.033607  2.32228  -0.054  -0.597979  -0.026436  2.311967  -0.042  -0.310649  -0.536617  -0.03453  2.336315  -0.055
O  O36  1  0.30021210  0.51838868  0.35475956  1  -0.597698  -0.021762  2.375251  -0.031  -0.631283  -0.016801  2.36414  -0.023  -0.304965  -0.561557  -0.02208  2.380198  -0.032
O  O37  1  0.69978917  0.48160694  0.64523930  1  -0.597663  -0.021757  2.375227  -0.031  -0.631249  -0.016796  2.36412  -0.023  -0.304911  -0.561521  -0.022076  2.380167  -0.032
O  O38  1  0.34233919  0.72137148  0.17901218  1  -0.542081  0.019261  2.304831  0.028  -0.5713  0.016982  2.288745  0.024  -0.295209  -0.518257  0.016144  2.30647  0.022
O  O39  1  0.65766738  0.27862566  0.82098745  1  -0.542139  0.01926  2.304608  0.028  -0.571359  0.016981  2.288525  0.024  -0.295254  -0.518313  0.016143  2.306248  0.022
O  O40  1  0.23965435  0.58894828  0.94346830  1  -0.742442  -0.000449  2.225119  -0.002  -0.780427  -0.000709  2.193478  -0.001  -0.55425  -0.706765  -0.00097  2.237712  -0.003
O  O41  1  0.76034503  0.41105493  0.05653084  1  -0.742421  -0.000449  2.2251  -0.002  -0.780405  -0.000708  2.19346  -0.001  -0.554239  -0.706746  -0.00097  2.237695  -0.003
O  O42  1  0.42695106  0.29631196  0.11251386  1  -0.724729  -0.0019  2.199646  -0.004  -0.762752  0.001014  2.17341  0.0  -0.541071  -0.688443  -0.001327  2.207027  -0.004
O  O43  1  0.57305198  0.70368975  0.88748650  1  -0.724802  -0.0019  2.199557  -0.004  -0.762826  0.001014  2.173316  0.0  -0.541111  -0.688519  -0.001327  2.206941  -0.004
