# generated using pymatgen
data_NdH16C22NO12
_symmetry_space_group_name_H-M   'P 1'
_cell_length_a   8.91296858
_cell_length_b   10.94400755
_cell_length_c   12.47079987
_cell_angle_alpha   98.76882281
_cell_angle_beta   105.87899942
_cell_angle_gamma   94.70382132
_symmetry_Int_Tables_number   1
_chemical_formula_structural   NdH16C22NO12
_chemical_formula_sum   'Nd2 H32 C44 N2 O24'
_cell_volume   1146.51833762
_cell_formula_units_Z   2
loop_
 _symmetry_equiv_pos_site_id
 _symmetry_equiv_pos_as_xyz
  1  'x, y, z'
loop_
 _atom_site_type_symbol
 _atom_site_label
 _atom_site_symmetry_multiplicity
 _atom_site_fract_x
 _atom_site_fract_y
 _atom_site_fract_z
 _atom_site_occupancy
 _atom_site_hle17_bader_spin_density
 _atom_site_hle17_ddec_charge
 _atom_site_hle17_ddec_spin_density
 _atom_site_hle17_ddec_sum_bond_order
 _atom_site_hle17_magmom
 _atom_site_hse06_10hf_bader_spin_density
 _atom_site_hse06_10hf_ddec_charge
 _atom_site_hse06_10hf_ddec_spin_density
 _atom_site_hse06_10hf_ddec_sum_bond_order
 _atom_site_hse06_10hf_magmom
 _atom_site_hse06_bader_spin_density
 _atom_site_hse06_ddec_charge
 _atom_site_hse06_ddec_spin_density
 _atom_site_hse06_ddec_sum_bond_order
 _atom_site_hse06_magmom
 _atom_site_pbe_bader_spin_density
 _atom_site_pbe_cm5_charge
 _atom_site_pbe_ddec_charge
 _atom_site_pbe_ddec_spin_density
 _atom_site_pbe_ddec_sum_bond_order
 _atom_site_pbe_magmom
Nd  Nd0  1  0.25882363  0.54462861  0.97570699  1  0  2.315814  0  1.584351  0  0  2.150528  0  2.047997  0  0  2.251701  0  1.897664  0  0  1.478414  2.116294  0  2.082491  0
Nd  Nd1  1  0.74117652  0.45537294  0.02429162  1  0  2.315795  0  1.584389  0  0  2.150493  0  2.048052  0  0  2.251681  0  1.897705  0  0  1.478425  2.116262  0  2.082548  0
H  H2  1  0.21622886  0.67069350  0.72066858  1  0  0.42228  0  0.866338  0  0  0.39126  0  0.941735  0  0  0.403796  0  0.923889  0  0  0.314992  0.382496  0  0.954235  0
H  H3  1  0.78377114  0.32930711  0.27933068  1  0  0.42224  0  0.866399  0  0  0.391222  0  0.941789  0  0  0.403759  0  0.923942  0  0  0.314989  0.382458  0  0.954289  0
H  H4  1  0.14148120  0.65024630  0.17356978  1  0  0.435268  0  0.865952  0  0  0.40484  0  0.929208  0  0  0.415273  0  0.91438  0  0  0.298609  0.397463  0  0.939798  0
H  H5  1  0.85852098  0.34975338  0.82643057  1  0  0.43525  0  0.86598  0  0  0.40482  0  0.929241  0  0  0.415252  0  0.914414  0  0  0.29859  0.397442  0  0.939831  0
H  H6  1  0.32559650  0.68346316  0.22228015  1  0  0.410378  0  0.869281  0  0  0.388435  0  0.932231  0  0  0.395373  0  0.922698  0  0  0.30469  0.383418  0  0.939341  0
H  H7  1  0.67440436  0.31653559  0.77772063  1  0  0.410427  0  0.869241  0  0  0.388483  0  0.932173  0  0  0.395421  0  0.922637  0  0  0.304709  0.383463  0  0.939284  0
H  H8  1  0.40971383  0.79273023  0.95482716  1  0  0.446283  0  0.845466  0  0  0.417553  0  0.904265  0  0  0.42811  0  0.888972  0  0  0.304879  0.410011  0  0.91532  0
H  H9  1  0.59028733  0.20727038  0.04517313  1  0  0.446249  0  0.845515  0  0  0.417504  0  0.904339  0  0  0.428062  0  0.889045  0  0  0.304851  0.40996  0  0.915394  0
H  H10  1  0.55027497  0.73828437  0.04000707  1  0  0.449289  0  0.840442  0  0  0.42088  0  0.898936  0  0  0.431713  0  0.88318  0  0  0.306719  0.41329  0  0.910064  0
H  H11  1  0.44972604  0.26171531  0.95999226  1  0  0.449301  0  0.840428  0  0  0.420893  0  0.89892  0  0  0.431726  0  0.883164  0  0  0.306716  0.413303  0  0.910048  0
H  H12  1  0.37678333  0.32055951  0.64906784  1  0  0.107401  0  0.945388  0  0  0.119973  0  0.999909  0  0  0.123242  0  0.997668  0  0  0.106569  0.117659  0  1.00148  0
H  H13  1  0.62322120  0.67944017  0.35093617  1  0  0.107355  0  0.94537  0  0  0.119984  0  0.999836  0  0  0.123254  0  0.997594  0  0  0.106578  0.117671  0  1.001407  0
H  H14  1  0.53204776  0.24584138  0.52149467  1  0  0.095891  0  0.981869  0  0  0.102607  0  1.050148  0  0  0.105435  0  1.048621  0  0  0.098256  0.100575  0  1.05147  0
H  H15  1  0.46795662  0.75415737  0.47851000  1  0  0.095879  0  0.981986  0  0  0.102598  0  1.050261  0  0  0.105425  0  1.048737  0  0  0.098251  0.100566  0  1.051581  0
H  H16  1  0.76187911  0.38540891  0.50973183  1  0  0.093474  0  0.937969  0  0  0.107483  0  0.992037  0  0  0.110642  0  0.990133  0  0  0.103245  0.105201  0  0.993518  0
H  H17  1  0.23812059  0.61458984  0.49026953  1  0  0.093489  0  0.937997  0  0  0.107516  0  0.992045  0  0  0.110673  0  0.990142  0  0  0.103258  0.105234  0  0.993526  0
H  H18  1  0.82929023  0.59985732  0.62405224  1  0  0.100396  0  0.93606  0  0  0.113669  0  0.990843  0  0  0.116767  0  0.989327  0  0  0.105295  0.111393  0  0.992069  0
H  H19  1  0.17071078  0.40014236  0.37594789  1  0  0.100421  0  0.936044  0  0  0.113688  0  0.990833  0  0  0.116787  0  0.989317  0  0  0.105305  0.111411  0  0.992058  0
H  H20  1  0.47102187  0.77172985  0.66261624  1  0  0.094849  0  0.964264  0  0  0.10523  0  1.029189  0  0  0.107831  0  1.028263  0  0  0.099162  0.103388  0  1.029861  0
H  H21  1  0.52897900  0.22826889  0.33738534  1  0  0.094845  0  0.964251  0  0  0.105206  0  1.029199  0  0  0.107807  0  1.028273  0  0  0.099154  0.103368  0  1.029872  0
H  H22  1  0.53991182  0.99448449  0.75222553  1  0  0.09386  0  0.94054  0  0  0.103704  0  1.000603  0  0  0.10766  0  0.99717  0  0  0.101131  0.100818  0  1.003209  0
H  H23  1  0.46008701  0.00551612  0.24777431  1  0  0.093885  0  0.940526  0  0  0.103792  0  1.000531  0  0  0.107736  0  0.997109  0  0  0.101152  0.100907  0  1.003138  0
H  H24  1  0.79215124  0.06690324  0.90355823  1  0  0.103082  0  0.947549  0  0  0.114208  0  1.006052  0  0  0.117757  0  1.00382  0  0  0.105523  0.111654  0  1.007672  0
H  H25  1  0.20784876  0.93309738  0.09644263  1  0  0.103093  0  0.947558  0  0  0.114218  0  1.00606  0  0  0.117766  0  1.003829  0  0  0.10552  0.111666  0  1.007677  0
H  H26  1  0.97598127  0.90997210  0.96315344  1  0  0.08786  0  0.983162  0  0  0.099452  0  1.04681  0  0  0.101808  0  1.046032  0  0  0.101332  0.097755  0  1.047304  0
H  H27  1  0.02401990  0.09002851  0.03684845  1  0  0.087893  0  0.983136  0  0  0.099486  0  1.046775  0  0  0.101843  0  1.045995  0  0  0.10135  0.097788  0  1.047269  0
H  H28  1  0.87589818  0.22228452  0.64263385  1  0  0.125817  0  0.947444  0  0  0.128686  0  1.017622  0  0  0.132939  0  1.01362  0  0  0.119319  0.125607  0  1.020406  0
H  H29  1  0.12410195  0.77771703  0.35736235  1  0  0.12581  0  0.94743  0  0  0.12868  0  1.017601  0  0  0.132933  0  1.0136  0  0  0.11928  0.125601  0  1.020387  0
H  H30  1  0.93233052  0.83234737  0.58269553  1  0  0.131099  0  0.930203  0  0  0.136426  0  0.995085  0  0  0.14096  0  0.990744  0  0  0.121755  0.133029  0  0.998428  0
H  H31  1  0.06766683  0.16765137  0.41730217  1  0  0.131055  0  0.930294  0  0  0.136431  0  0.995102  0  0  0.140967  0  0.990762  0  0  0.121745  0.133033  0  0.998445  0
H  H32  1  0.26363588  0.08383467  0.86185810  1  0  0.122163  0  0.934038  0  0  0.129403  0  0.996977  0  0  0.134026  0  0.992548  0  0  0.120669  0.126086  0  1.000001  0
H  H33  1  0.73636380  0.91616408  0.13814005  1  0  0.122124  0  0.934052  0  0  0.129343  0  0.997019  0  0  0.133966  0  0.99259  0  0  0.120636  0.126027  0  1.000044  0
C  C34  1  0.43306378  0.53090973  0.79661341  1  0  0.721227  0  3.85234  0  0  0.666634  0  4.153213  0  0  0.701177  0  4.147434  0  0  0.234508  0.642921  0  4.160421  0
C  C35  1  0.56693872  0.46909181  0.20338966  1  0  0.721336  0  3.852102  0  0  0.666605  0  4.15319  0  0  0.701155  0  4.147398  0  0  0.234503  0.642892  0  4.160399  0
C  C36  1  0.51470671  0.50245781  0.70777745  1  0  -0.107275  0  3.741335  0  0  -0.091339  0  3.978177  0  0  -0.096833  0  3.997345  0  0  -0.010181  -0.087703  0  3.965244  0
C  C37  1  0.48529430  0.49754187  0.29222349  1  0  -0.10727  0  3.741206  0  0  -0.091294  0  3.978107  0  0  -0.096788  0  3.997269  0  0  -0.010158  -0.087658  0  3.965175  0
C  C38  1  0.47515950  0.38205393  0.64242525  1  0  -0.105482  0  3.770963  0  0  -0.122322  0  4.012119  0  0  -0.123182  0  4.030419  0  0  -0.089394  -0.121556  0  3.999435  0
C  C39  1  0.52484182  0.61794761  0.35757760  1  0  -0.105435  0  3.770806  0  0  -0.12232  0  4.011967  0  0  -0.12318  0  4.030264  0  0  -0.089376  -0.121554  0  3.999284  0
C  C40  1  0.56330300  0.33991589  0.57089438  1  0  -0.081318  0  3.788737  0  0  -0.098592  0  4.045785  0  0  -0.100434  0  4.066477  0  0  -0.093462  -0.097147  0  4.031518  0
C  C41  1  0.43669685  0.66008379  0.42910713  1  0  -0.081269  0  3.788849  0  0  -0.098563  0  4.045915  0  0  -0.100405  0  4.066608  0  0  -0.093472  -0.097119  0  4.031653  0
C  C42  1  0.69191194  0.41801959  0.56513625  1  0  -0.056288  0  3.754911  0  0  -0.07213  0  4.010508  0  0  -0.0731  0  4.030529  0  0  -0.087455  -0.071307  0  3.996536  0
C  C43  1  0.30808980  0.58197729  0.43486766  1  0  -0.056389  0  3.754882  0  0  -0.072235  0  4.010476  0  0  -0.073202  0  4.030493  0  0  -0.087479  -0.071413  0  3.996506  0
C  C44  1  0.72970697  0.53836347  0.62917761  1  0  -0.090077  0  3.700785  0  0  -0.109302  0  3.948696  0  0  -0.111448  0  3.968603  0  0  -0.079468  -0.107572  0  3.934765  0
C  C45  1  0.27029404  0.46163621  0.37082252  1  0  -0.090017  0  3.700741  0  0  -0.109232  0  3.948651  0  0  -0.111381  0  3.968561  0  0  -0.079429  -0.107502  0  3.93472  0
C  C46  1  0.64164995  0.58288398  0.70102993  1  0  0.050237  0  3.754281  0  0  0.056733  0  3.989758  0  0  0.057246  0  4.013429  0  0  0.003468  0.056407  0  3.97356  0
C  C47  1  0.35834903  0.41711757  0.29896845  1  0  0.050183  0  3.754374  0  0  0.05666  0  3.989864  0  0  0.05717  0  4.01354  0  0  0.003403  0.056335  0  3.973664  0
C  C48  1  0.68113906  0.71400562  0.76344527  1  0  0.036271  0  3.752651  0  0  0.045517  0  3.985615  0  0  0.045918  0  4.009307  0  0  -0.003731  0.045172  0  3.969468  0
C  C49  1  0.31886094  0.28599500  0.23655560  1  0  0.03625  0  3.75266  0  0  0.045519  0  3.985622  0  0  0.045911  0  4.00931  0  0  -0.003733  0.045172  0  3.969475  0
C  C50  1  0.58085758  0.80218428  0.72992744  1  0  -0.112171  0  3.732315  0  0  -0.136756  0  3.988772  0  0  -0.139613  0  4.00992  0  0  -0.093066  -0.134652  0  3.974319  0
C  C51  1  0.41914226  0.19781540  0.27007247  1  0  -0.11223  0  3.732304  0  0  -0.136804  0  3.988791  0  0  -0.139661  0  4.009935  0  0  -0.093107  -0.134708  0  3.974346  0
C  C52  1  0.62039248  0.92808329  0.77988525  1  0  -0.04151  0  3.755329  0  0  -0.058137  0  4.008526  0  0  -0.058149  0  4.027578  0  0  -0.088312  -0.058039  0  3.995418  0
C  C53  1  0.37961087  0.07191639  0.22011613  1  0  -0.041469  0  3.755262  0  0  -0.058156  0  4.008453  0  0  -0.058154  0  4.027509  0  0  -0.088301  -0.05806  0  3.995348  0
C  C54  1  0.76257627  0.96846696  0.86440016  1  0  -0.075298  0  3.758  0  0  -0.087507  0  4.006946  0  0  -0.089976  0  4.027815  0  0  -0.091831  -0.085778  0  3.992494  0
C  C55  1  0.23742605  0.03153365  0.13559794  1  0  -0.075341  0  3.758002  0  0  -0.087548  0  4.006966  0  0  -0.090017  0  4.027834  0  0  -0.091825  -0.085821  0  3.992513  0
C  C56  1  0.86401203  0.88175035  0.89777823  1  0  -0.08466  0  3.764755  0  0  -0.107823  0  4.012226  0  0  -0.109013  0  4.03422  0  0  -0.090813  -0.106623  0  3.996911  0
C  C57  1  0.13598883  0.11824839  0.10222416  1  0  -0.084688  0  3.764781  0  0  -0.107836  0  4.012257  0  0  -0.109036  0  4.034245  0  0  -0.090849  -0.106638  0  3.996945  0
C  C58  1  0.82415057  0.75519986  0.84915986  1  0  -0.099234  0  3.722065  0  0  -0.082207  0  3.953608  0  0  -0.088529  0  3.973468  0  0  -0.013212  -0.078  0  3.939697  0
C  C59  1  0.17584928  0.24479982  0.15084246  1  0  -0.099202  0  3.722021  0  0  -0.082231  0  3.95362  0  0  -0.088518  0  3.973452  0  0  -0.013199  -0.078024  0  3.939708  0
C  C60  1  0.93185540  0.66578410  0.89572190  1  0  0.728675  0  3.863572  0  0  0.68068  0  4.155943  0  0  0.716037  0  4.147939  0  0  0.235397  0.656682  0  4.163832  0
C  C61  1  0.06814329  0.33421558  0.10428099  1  0  0.728729  0  3.86363  0  0  0.680782  0  4.155941  0  0  0.716107  0  4.147976  0  0  0.235445  0.656784  0  4.163832  0
C  C62  1  0.13324221  0.29587041  0.82936716  1  0  0.651674  0  3.912538  0  0  0.603446  0  4.200899  0  0  0.636021  0  4.199729  0  0  0.209306  0.58099  0  4.204338  0
C  C63  1  0.86675879  0.70412927  0.17063217  1  0  0.651731  0  3.912413  0  0  0.60349  0  4.200797  0  0  0.636066  0  4.199625  0  0  0.209322  0.581036  0  4.204233  0
C  C64  1  0.07552996  0.16745680  0.76077844  1  0  -0.04743  0  3.717237  0  0  -0.020669  0  3.952683  0  0  -0.030578  0  3.974157  0  0  -0.003908  -0.014374  0  3.937823  0
C  C65  1  0.92446870  0.83254287  0.23921883  1  0  -0.047434  0  3.717172  0  0  -0.020699  0  3.952643  0  0  -0.030609  0  3.974116  0  0  -0.003977  -0.014407  0  3.937785  0
C  C66  1  0.94104034  0.14620648  0.66730432  1  0  -0.06196  0  3.638374  0  0  -0.100855  0  3.892985  0  0  -0.095278  0  3.907573  0  0  -0.055602  -0.103822  0  3.882464  0
C  C67  1  0.05896081  0.85379413  0.33269275  1  0  -0.061858  0  3.638214  0  0  -0.100735  0  3.892786  0  0  -0.095157  0  3.907373  0  0  -0.05548  -0.103701  0  3.882266  0
C  C68  1  0.89325175  0.02539015  0.60521173  1  0  0.064332  0  3.713338  0  0  0.050735  0  3.971942  0  0  0.044355  0  3.996457  0  0  0.076965  0.054579  0  3.955256  0
C  C69  1  0.10674824  0.97461046  0.39478672  1  0  0.064131  0  3.713415  0  0  0.050548  0  3.972015  0  0  0.044168  0  3.996529  0  0  0.076884  0.054392  0  3.95533  0
C  C70  1  0.97351724  0.92526323  0.63312345  1  0  -0.07082  0  3.665432  0  0  -0.116021  0  3.930561  0  0  -0.111766  0  3.948621  0  0  -0.061079  -0.118201  0  3.918158  0
C  C71  1  0.02647996  0.07473459  0.36687650  1  0  -0.070761  0  3.665523  0  0  -0.115999  0  3.930613  0  0  -0.111751  0  3.948683  0  0  -0.061074  -0.118179  0  3.918209  0
C  C72  1  0.10784088  0.94787953  0.72636195  1  0  -0.061186  0  3.739571  0  0  -0.037767  0  3.982435  0  0  -0.049226  0  4.006921  0  0  -0.006073  -0.030574  0  3.965936  0
C  C73  1  0.89215764  0.05211922  0.27363678  1  0  -0.061175  0  3.739676  0  0  -0.037757  0  3.982558  0  0  -0.049221  0  4.007039  0  0  -0.006057  -0.030562  0  3.966057  0
C  C74  1  0.15837181  0.06840829  0.78958204  1  0  -0.013346  0  3.618515  0  0  -0.059253  0  3.870998  0  0  -0.053394  0  3.886304  0  0  -0.047798  -0.062447  0  3.860106  0
C  C75  1  0.84162671  0.93159046  0.21041668  1  0  -0.01328  0  3.618535  0  0  -0.05916  0  3.871012  0  0  -0.053299  0  3.886316  0  0  -0.047723  -0.062354  0  3.86012  0
C  C76  1  0.20208435  0.84663764  0.76154612  1  0  0.669834  0  3.806241  0  0  0.6149  0  4.110154  0  0  0.648583  0  4.101377  0  0  0.244425  0.592028  0  4.115543  0
C  C77  1  0.79791666  0.15336204  0.23845482  1  0  0.669911  0  3.806033  0  0  0.614937  0  4.109993  0  0  0.648639  0  4.101183  0  0  0.244409  0.592062  0  4.115386  0
N  N78  1  0.75510553  0.00245351  0.50439525  1  0  0.463377  0  3.960467  0  0  0.524653  0  4.213448  0  0  0.545701  0  4.222668  0  0  0.059439  0.510601  0  4.207249  0
N  N79  1  0.24489314  0.99754617  0.49560282  1  0  0.463491  0  3.960336  0  0  0.524732  0  4.213352  0  0  0.54578  0  4.222568  0  0  0.059427  0.510678  0  4.207156  0
O  O80  1  0.50246509  0.51127710  0.89534709  1  0  -0.786909  0  2.134206  0  0  -0.726837  0  2.396673  0  0  -0.764343  0  2.385668  0  0  -0.406483  -0.708738  0  2.40322  0
O  O81  1  0.49753608  0.48872351  0.10465480  1  0  -0.786951  0  2.134086  0  0  -0.726828  0  2.39661  0  0  -0.764337  0  2.385602  0  0  -0.406471  -0.708729  0  2.403156  0
O  O82  1  0.29548596  0.56307439  0.77630492  1  0  -0.686045  0  2.018025  0  0  -0.629562  0  2.250139  0  0  -0.65931  0  2.237598  0  0  -0.336094  -0.612422  0  2.257847  0
O  O83  1  0.70451388  0.43692529  0.22369499  1  0  -0.68608  0  2.017981  0  0  -0.629537  0  2.250144  0  0  -0.65929  0  2.237601  0  0  -0.336094  -0.612398  0  2.257853  0
O  O84  1  0.04566046  0.38237566  0.81712157  1  0  -0.679252  0  2.000276  0  0  -0.624838  0  2.226469  0  0  -0.654296  0  2.218237  0  0  -0.338033  -0.607831  0  2.231641  0
O  O85  1  0.95434070  0.61762496  0.18287791  1  0  -0.679253  0  2.000205  0  0  -0.624839  0  2.226413  0  0  -0.654299  0  2.218179  0  0  -0.338016  -0.607832  0  2.231584  0
O  O86  1  0.27087882  0.31672634  0.89942320  1  0  -0.692216  0  2.048864  0  0  -0.636956  0  2.283266  0  0  -0.668016  0  2.276282  0  0  -0.351462  -0.618723  0  2.287441  0
O  O87  1  0.72912218  0.68327334  0.10057532  1  0  -0.692236  0  2.048833  0  0  -0.636967  0  2.283239  0  0  -0.66803  0  2.276257  0  0  -0.351455  -0.618734  0  2.287413  0
O  O88  1  0.69018344  0.09336868  0.47606245  1  0  -0.342193  0  1.785463  0  0  -0.335674  0  1.982388  0  0  -0.348659  0  1.979399  0  0  -0.117826  -0.327071  0  1.984717  0
O  O89  1  0.30981290  0.90663099  0.52393597  1  0  -0.342258  0  1.785445  0  0  -0.335702  0  1.982369  0  0  -0.348685  0  1.979378  0  0  -0.117813  -0.327096  0  1.984698  0
O  O90  1  0.71232257  0.89374414  0.45194970  1  0  -0.346383  0  1.772109  0  0  -0.343018  0  1.966815  0  0  -0.355602  0  1.963926  0  0  -0.123461  -0.33465  0  1.96906  0
O  O91  1  0.28767625  0.10625648  0.54804853  1  0  -0.346375  0  1.772001  0  0  -0.343021  0  1.966719  0  0  -0.355606  0  1.963834  0  0  -0.123442  -0.334653  0  1.968966  0
O  O92  1  0.15464802  0.73837728  0.68982587  1  0  -0.552308  0  2.070407  0  0  -0.505633  0  2.28736  0  0  -0.527774  0  2.268603  0  0  -0.32669  -0.490052  0  2.299739  0
O  O93  1  0.84534817  0.26162147  0.31017320  1  0  -0.552316  0  2.070396  0  0  -0.505637  0  2.287377  0  0  -0.527784  0  2.26861  0  0  -0.326743  -0.490057  0  2.299759  0
O  O94  1  0.31404644  0.86695248  0.84843115  1  0  -0.551541  0  1.994331  0  0  -0.505137  0  2.212177  0  0  -0.52716  0  2.204008  0  0  -0.264625  -0.489931  0  2.217614  0
O  O95  1  0.68594757  0.13304720  0.15156683  1  0  -0.551621  0  1.994134  0  0  -0.505167  0  2.211969  0  0  -0.5272  0  2.203794  0  0  -0.264584  -0.489958  0  2.217404  0
O  O96  1  0.87272251  0.57104632  0.92508825  1  0  -0.791541  0  2.134441  0  0  -0.739291  0  2.406343  0  0  -0.773837  0  2.393842  0  0  -0.416044  -0.721816  0  2.414195  0
O  O97  1  0.12727587  0.42895150  0.07491193  1  0  -0.791584  0  2.134496  0  0  -0.73938  0  2.40644  0  0  -0.773894  0  2.393906  0  0  -0.41606  -0.7219  0  2.41428  0
O  O98  1  0.23798992  0.68007580  0.15420502  1  0  -0.87304  0  1.85339  0  0  -0.825227  0  2.035361  0  0  -0.84954  0  2.005021  0  0  -0.624048  -0.812327  0  2.053837  0
O  O99  1  0.76201226  0.31992388  0.84579614  1  0  -0.873068  0  1.853389  0  0  -0.825254  0  2.035348  0  0  -0.849567  0  2.005009  0  0  -0.624044  -0.812352  0  2.053827  0
O  O100  1  0.43611788  0.74315874  0.01607791  1  0  -0.906229  0  1.798582  0  0  -0.854314  0  1.973749  0  0  -0.87899  0  1.937417  0  0  -0.645555  -0.841211  0  1.996144  0
O  O101  1  0.56388328  0.25684187  0.98392238  1  0  -0.906207  0  1.798591  0  0  -0.854292  0  1.973781  0  0  -0.878969  0  1.937449  0  0  -0.645537  -0.841185  0  1.996176  0
O  O102  1  0.07789541  0.68933872  0.90694695  1  0  -0.705111  0  1.972103  0  0  -0.650444  0  2.21632  0  0  -0.682012  0  2.204261  0  0  -0.388374  -0.632924  0  2.222749  0
O  O103  1  0.92210429  0.31066003  0.09305521  1  0  -0.705116  0  1.972113  0  0  -0.650461  0  2.216334  0  0  -0.682027  0  2.204293  0  0  -0.388386  -0.632942  0  2.222763  0
