# generated using pymatgen
data_CuPH12C7NO5
_symmetry_space_group_name_H-M   'P 1'
_cell_length_a   7.01627384
_cell_length_b   8.22983341
_cell_length_c   16.86420000
_cell_angle_alpha   90.00000000
_cell_angle_beta   90.00000000
_cell_angle_gamma   90.00000000
_symmetry_Int_Tables_number   1
_chemical_formula_structural   CuPH12C7NO5
_chemical_formula_sum   'Cu4 P4 H48 C28 N4 O20'
_cell_volume   973.78553451
_cell_formula_units_Z   4
loop_
 _symmetry_equiv_pos_site_id
 _symmetry_equiv_pos_as_xyz
  1  'x, y, z'
loop_
 _atom_site_type_symbol
 _atom_site_label
 _atom_site_symmetry_multiplicity
 _atom_site_fract_x
 _atom_site_fract_y
 _atom_site_fract_z
 _atom_site_occupancy
 _atom_site_hle17_ddec_charge
 _atom_site_hle17_ddec_spin_density
 _atom_site_hle17_ddec_sum_bond_order
 _atom_site_hle17_magmom
 _atom_site_hse06_10hf_ddec_charge
 _atom_site_hse06_10hf_ddec_spin_density
 _atom_site_hse06_10hf_ddec_sum_bond_order
 _atom_site_hse06_10hf_magmom
 _atom_site_hse06_ddec_charge
 _atom_site_hse06_ddec_spin_density
 _atom_site_hse06_ddec_sum_bond_order
 _atom_site_hse06_magmom
 _atom_site_pbe_bader_charge
 _atom_site_pbe_bader_spin_density
 _atom_site_pbe_cm5_charge
 _atom_site_pbe_ddec_charge
 _atom_site_pbe_ddec_spin_density
 _atom_site_pbe_ddec_sum_bond_order
 _atom_site_pbe_magmom
Cu  Cu0  1  0.77660595  0.07325057  0.00898709  1  0.950944  0.685042  1.686221  0.514  0.946698  0.782204  2.053771  0.638  1.035167  0.845318  1.99309  0.725  1.099631  0.583659  0.739838  0.889215  0.73826  2.099903  0.583
Cu  Cu1  1  0.72339394  0.92675144  0.50898590  1  0.950989  0.685056  1.686205  0.514  0.946775  0.782209  2.053733  0.638  1.03522  0.845327  1.993067  0.725  1.099742  0.583671  0.739846  0.889274  0.738279  2.099898  0.583
Cu  Cu2  1  0.22339635  0.57325219  0.49101647  1  0.950947  0.685054  1.68626  0.514  0.946751  0.782226  2.053787  0.638  1.035193  0.845336  1.993168  0.725  1.0996  0.583686  0.739825  0.889271  0.738303  2.099922  0.583
Cu  Cu3  1  0.27660551  0.42675469  0.99101410  1  0.950912  0.685055  1.68629  0.514  0.946669  0.782206  2.053832  0.638  1.035138  0.845335  1.993155  0.725  1.099627  0.583658  0.739787  0.889219  0.738264  2.09991  0.583
P  P4  1  0.06958964  0.82311144  0.04373110  1  1.467399  0.003719  4.791563  0.002  1.325113  0.005278  5.29047  0.004  1.376145  0.003739  5.251401  0.003  3.3721  0.004743  0.347806  1.289536  0.006534  5.316902  0.004
P  P5  1  0.43040794  0.17689179  0.54373110  1  1.467381  0.00371  4.791579  0.002  1.325089  0.005279  5.290493  0.004  1.376121  0.003738  5.251421  0.003  3.372223  0.004741  0.347774  1.289515  0.006535  5.316923  0.004
P  P6  1  0.93041266  0.32310982  0.45627187  1  1.467367  0.003714  4.791627  0.002  1.325052  0.00528  5.290553  0.004  1.376079  0.003738  5.251482  0.003  3.372034  0.004743  0.347756  1.289477  0.006535  5.316983  0.004
P  P7  1  0.56959293  0.67689584  0.95626890  1  1.467394  0.003711  4.791651  0.002  1.32511  0.00528  5.290576  0.004  1.376143  0.003739  5.251507  0.003  3.372123  0.00474  0.347833  1.289531  0.006533  5.317015  0.004
H  H8  1  0.78795528  0.75990238  0.11657772  1  0.138056  0.000146  0.924233  0.0  0.152158  0.000147  0.978154  0.0  0.154483  0.000109  0.976925  0.0  0.096975  0.000408  0.124104  0.150291  0.000169  0.979343  0.0
H  H9  1  0.71204604  0.24009599  0.61657416  1  0.138047  0.000143  0.92426  0.0  0.152151  0.000147  0.978173  0.0  0.154476  0.000109  0.976946  0.0  0.096961  0.000408  0.124112  0.150285  0.000169  0.979362  0.0
H  H10  1  0.21204845  0.25990927  0.38342347  1  0.137984  0.000144  0.924267  0.0  0.152113  0.000147  0.978161  0.0  0.154436  0.000109  0.976932  0.0  0.09702  0.000408  0.124097  0.150247  0.000169  0.97935  0.0
H  H11  1  0.28795341  0.74009153  0.88342406  1  0.138028  0.000146  0.92429  0.0  0.152132  0.000147  0.978215  0.0  0.154457  0.000109  0.976988  0.0  0.097016  0.000407  0.124109  0.150265  0.000169  0.979403  0.0
H  H12  1  0.97074746  0.81872496  0.18426430  1  0.117991  0.002325  0.946271  0.003  0.131537  0.001533  1.007975  0.002  0.133271  0.000983  1.007727  0.001  0.070006  0.003785  0.11105  0.130091  0.001928  1.008498  0.002
H  H13  1  0.52925386  0.18127463  0.68426489  1  0.117989  0.002321  0.94629  0.003  0.131546  0.001532  1.007984  0.002  0.133283  0.000982  1.007733  0.001  0.07  0.003783  0.111053  0.130102  0.001927  1.008505  0.002
H  H14  1  0.02925342  0.31872820  0.31573451  1  0.117984  0.002324  0.946217  0.003  0.131537  0.001533  1.007908  0.002  0.13327  0.000983  1.007657  0.001  0.070042  0.003784  0.111055  0.130094  0.001927  1.00843  0.002
H  H15  1  0.47074987  0.68127503  0.81573155  1  0.117928  0.002323  0.94629  0.003  0.131503  0.001532  1.007969  0.002  0.133239  0.000982  1.00772  0.001  0.069961  0.003783  0.111036  0.130057  0.001927  1.008492  0.002
H  H16  1  0.08858548  0.12808765  0.12227796  1  0.091837  0.000133  0.961415  0.001  0.102433  0.000111  1.028363  0.0  0.103377  1.1e-05  1.028087  0.0  0.141645  0.000719  0.111123  0.101549  0.000183  1.028702  0.001
H  H17  1  0.41141068  0.87191072  0.62227855  1  0.091923  0.000135  0.961334  0.001  0.102448  0.000111  1.028334  0.0  0.10339  1.1e-05  1.028059  0.0  0.141709  0.00072  0.11112  0.101564  0.000183  1.028673  0.001
H  H18  1  0.91141112  0.62809534  0.37772500  1  0.091907  0.00013  0.961334  0.001  0.10244  0.000111  1.028354  0.0  0.103382  1.1e-05  1.028078  0.0  0.141594  0.00072  0.111086  0.101556  0.000183  1.028696  0.001
H  H19  1  0.58859162  0.37190668  0.87772560  1  0.091917  0.00013  0.961371  0.001  0.102456  0.000111  1.028375  0.0  0.103397  1.1e-05  1.0281  0.0  0.141581  0.000719  0.111109  0.101571  0.000182  1.028713  0.001
H  H20  1  0.99607429  0.09827781  0.21970683  1  0.053945  0.004942  0.920484  0.006  0.072449  0.003177  0.982035  0.003  0.071687  0.002142  0.982703  0.002  9.9e-05  0.007786  0.096121  0.072636  0.003902  0.98194  0.004
H  H21  1  0.50392560  0.90172542  0.71970683  1  0.053966  0.004944  0.920483  0.006  0.072457  0.003176  0.982018  0.003  0.071697  0.002142  0.982685  0.002  8.6e-05  0.007786  0.096119  0.072647  0.003902  0.981922  0.004
H  H22  1  0.00391946  0.59828186  0.28029613  1  0.054017  0.004942  0.920527  0.006  0.072498  0.003176  0.982086  0.003  0.071727  0.002142  0.982766  0.002  8.6e-05  0.007785  0.096157  0.072707  0.003902  0.981967  0.004
H  H23  1  0.49608241  0.40171652  0.78029494  1  0.054018  0.004939  0.920512  0.006  0.072514  0.003175  0.98205  0.003  0.071745  0.002141  0.982729  0.002  5.9e-05  0.007784  0.096147  0.0727  0.003901  0.98195  0.004
H  H24  1  0.85670117  0.34403977  0.09465198  1  0.09407  -0.000433  0.94148  0.0  0.105145  -0.000421  1.009174  0.0  0.106655  -0.000481  1.007812  0.0  0.069859  -0.000215  0.097152  0.103762  -0.000352  1.010511  0.0
H  H25  1  0.64330015  0.65595860  0.59465436  1  0.094073  -0.000438  0.941427  0.0  0.105159  -0.000421  1.009123  0.0  0.10667  -0.000481  1.007764  0.0  0.069905  -0.000214  0.097162  0.103774  -0.000351  1.010461  0.0
H  H26  1  0.14329971  0.84405111  0.40534742  1  0.094053  -0.000432  0.941449  0.0  0.105101  -0.000421  1.009188  0.0  0.106612  -0.000482  1.007824  0.0  0.069877  -0.000214  0.097149  0.103719  -0.000351  1.010523  0.0
H  H27  1  0.35669645  0.15595212  0.90534742  1  0.094075  -0.000435  0.941419  0.0  0.105146  -0.000421  1.009114  0.0  0.106658  -0.000482  1.007748  0.0  0.06983  -0.000215  0.097158  0.103762  -0.000352  1.01045  0.0
H  H28  1  0.98442423  0.38891067  0.18078118  1  0.077912  -4.8e-05  0.935087  0.0  0.096114  0.00011  0.996888  0.0  0.097646  2.2e-05  0.995977  0.0  0.044713  0.00025  0.092026  0.094919  0.000185  0.99768  0.0
H  H29  1  0.51556711  0.61108770  0.68078177  1  0.078007  -5.1e-05  0.935004  0.0  0.096199  0.00011  0.996811  0.0  0.097728  2.2e-05  0.995905  0.0  0.044906  0.000251  0.092072  0.095006  0.000185  0.9976  0.0
H  H30  1  0.01556809  0.88891593  0.31922000  1  0.077942  -4.5e-05  0.935019  0.0  0.096144  0.00011  0.996814  0.0  0.097673  2.2e-05  0.99591  0.0  0.044919  0.000251  0.092064  0.094952  0.000185  0.997602  0.0
H  H31  1  0.48443662  0.11108123  0.81922356  1  0.078018  -4.6e-05  0.934925  0.0  0.096177  0.00011  0.996757  0.0  0.097705  2.2e-05  0.995854  0.0  0.04492  0.000251  0.092095  0.094985  0.000185  0.997543  0.0
H  H32  1  0.62496278  0.43621782  0.19518329  1  0.081068  0.000162  0.929308  0.0  0.101547  0.000122  0.98464  0.0  0.102443  7.8e-05  0.985041  0.0  0.051254  0.000334  0.095213  0.100793  0.00014  0.984556  0.0
H  H33  1  0.87503141  0.56378055  0.69518744  1  0.081037  0.000163  0.92942  0.0  0.101534  0.000121  0.984723  0.0  0.102427  7.8e-05  0.985128  0.0  0.051041  0.000334  0.095232  0.100784  0.000141  0.984635  0.0
H  H34  1  0.37503097  0.93622551  0.30481197  1  0.081062  0.000162  0.929341  0.0  0.101532  0.000121  0.984667  0.0  0.102425  7.8e-05  0.98507  0.0  0.050977  0.000334  0.095224  0.100781  0.00014  0.984581  0.0
H  H35  1  0.12497089  0.06377407  0.80481256  1  0.081019  0.00016  0.929352  0.0  0.101512  0.000121  0.984658  0.0  0.102406  7.8e-05  0.985062  0.0  0.051082  0.000334  0.095215  0.100761  0.00014  0.984571  0.0
H  H36  1  0.71555360  0.29826242  0.26667438  1  0.077225  0.000485  0.942807  0.0  0.094525  0.000387  1.006097  0.0  0.095574  0.000243  1.00615  0.0  0.049026  0.00094  0.090839  0.093717  0.000498  1.006173  0.0
H  H37  1  0.78444059  0.70173595  0.76667793  1  0.077215  0.000486  0.942754  0.0  0.094523  0.000387  1.006044  0.0  0.095571  0.000243  1.006101  0.0  0.048938  0.00094  0.090837  0.093718  0.000498  1.006117  0.0
H  H38  1  0.28443873  0.79826646  0.23332385  1  0.077235  0.000483  0.942759  0.0  0.09455  0.000387  1.006034  0.0  0.095597  0.000243  1.00609  0.0  0.048991  0.00094  0.090825  0.093744  0.000498  1.006108  0.0
H  H39  1  0.21557026  0.20172826  0.73332147  1  0.077218  0.000482  0.942769  0.0  0.09454  0.000386  1.006049  0.0  0.095589  0.000243  1.006103  0.0  0.048918  0.00094  0.090801  0.093732  0.000498  1.006123  0.0
H  H40  1  0.42878173  0.17865611  0.21685879  1  0.085024  -0.000272  0.912137  0.0  0.100427  5.4e-05  0.963914  0.0  0.102214  -5.2e-05  0.963843  0.0  0.025213  0.000298  0.10854  0.099209  0.000168  0.964007  0.0
H  H41  1  0.07121586  0.82134105  0.71685998  1  0.085052  -0.000275  0.912101  0.0  0.100451  5.4e-05  0.963877  0.0  0.102239  -5.2e-05  0.963804  0.0  0.024788  0.000299  0.108537  0.099231  0.000168  0.963979  0.0
H  H42  1  0.57121630  0.67866380  0.28313884  1  0.085021  -0.000276  0.912097  0.0  0.100412  5.4e-05  0.963875  0.0  0.102207  -5.2e-05  0.963794  0.0  0.025089  0.000298  0.108526  0.099193  0.000167  0.963976  0.0
H  H43  1  0.92878501  0.32133457  0.78313647  1  0.085037  -0.000274  0.912067  0.0  0.100455  5.4e-05  0.96383  0.0  0.102245  -5.2e-05  0.963755  0.0  0.024647  0.000299  0.10854  0.099233  0.000168  0.963934  0.0
H  H44  1  0.67992928  0.98322768  0.23703348  1  0.076986  0.005636  0.90692  0.007  0.090403  0.003506  0.972753  0.004  0.090276  0.002325  0.972682  0.003  0.026779  0.008529  0.106386  0.09023  0.004341  0.972977  0.005
H  H45  1  0.82006776  0.01677798  0.73703348  1  0.077015  0.005637  0.907001  0.007  0.090463  0.003504  0.972788  0.004  0.090333  0.002324  0.972716  0.003  0.026736  0.008525  0.106421  0.090293  0.004339  0.973007  0.005
H  H46  1  0.32006447  0.48322849  0.26296711  1  0.076997  0.005639  0.906978  0.007  0.090452  0.003504  0.97278  0.004  0.090331  0.002324  0.972694  0.003  0.026771  0.008526  0.106419  0.090275  0.004339  0.973007  0.005
H  H47  1  0.17994024  0.51677109  0.76296593  1  0.076984  0.005636  0.907015  0.007  0.090466  0.003503  0.972787  0.004  0.09034  0.002323  0.9727  0.003  0.026706  0.008525  0.106412  0.090286  0.004338  0.973009  0.005
H  H48  1  0.54678453  0.92337106  0.15173504  1  0.093327  0.000334  0.941674  0.001  0.106012  0.000196  1.005425  0.001  0.106173  0.0001  1.005758  0.0  0.080362  0.000875  0.113496  0.105639  0.00026  1.005433  0.001
H  H49  1  0.95321394  0.07662124  0.65173504  1  0.093338  0.000337  0.941604  0.001  0.105938  0.000196  1.005477  0.001  0.1061  0.0001  1.005797  0.0  0.080446  0.000876  0.113468  0.105565  0.00026  1.005484  0.001
H  H50  1  0.45321350  0.42338403  0.34826615  1  0.093302  0.00034  0.941616  0.001  0.105895  0.000196  1.005514  0.001  0.106044  0.0001  1.005858  0.0  0.080492  0.000876  0.113465  0.105522  0.00026  1.005521  0.001
H  H51  1  0.04678837  0.57661799  0.84826022  1  0.093272  0.000338  0.94164  0.001  0.105857  0.000196  1.005554  0.001  0.106015  0.0001  1.005877  0.0  0.080503  0.000875  0.11343  0.105482  0.00026  1.00556  0.001
H  H52  1  0.38512180  0.86362745  0.03996513  1  0.435125  -2.9e-05  0.87032  0.0  0.40312  2.7e-05  0.937535  0.0  0.415043  3e-05  0.920473  0.0  0.665572  -2e-05  0.304146  0.394724  1.5e-05  0.949513  0.0
H  H53  1  0.11487436  0.13637579  0.53996691  1  0.435135  -2.9e-05  0.870272  0.0  0.403098  2.7e-05  0.937577  0.0  0.415021  3e-05  0.920514  0.0  0.665576  -2e-05  0.304108  0.394701  1.5e-05  0.949554  0.0
H  H54  1  0.61488336  0.36363069  0.46003605  1  0.435096  -2.9e-05  0.870389  0.0  0.40306  2.7e-05  0.937644  0.0  0.414982  3e-05  0.920581  0.0  0.665583  -2e-05  0.304089  0.394663  1.5e-05  0.949622  0.0
H  H55  1  0.88512081  0.63637497  0.96003309  1  0.435135  -2.9e-05  0.870288  0.0  0.403092  2.7e-05  0.937589  0.0  0.415015  3.1e-05  0.920526  0.0  0.665588  -2e-05  0.304113  0.394695  1.5e-05  0.949567  0.0
C  C56  1  0.90356080  0.84751047  0.12689306  1  -0.35654  -0.004451  3.629398  -0.005  -0.394003  -0.00125  3.886911  -0.002  -0.398013  -0.001924  3.896942  -0.002  -0.263817  0.000119  -0.07882  -0.390977  -0.000547  3.880578  -0.002
C  C57  1  0.59643909  0.15249154  0.62689306  1  -0.356548  -0.004432  3.629346  -0.005  -0.394008  -0.001249  3.886828  -0.002  -0.398024  -0.001923  3.896869  -0.002  -0.263787  0.000121  -0.078858  -0.390981  -0.000547  3.880495  -0.002
C  C58  1  0.09643723  0.34751372  0.37310872  1  -0.356449  -0.004444  3.629326  -0.005  -0.393939  -0.00125  3.886827  -0.002  -0.397935  -0.001923  3.896836  -0.002  -0.263793  0.00012  -0.078838  -0.390913  -0.000547  3.880494  -0.002
C  C59  1  0.40356321  0.65248830  0.87310575  1  -0.356441  -0.004443  3.629329  -0.005  -0.393953  -0.001251  3.886893  -0.002  -0.397969  -0.001924  3.896936  -0.002  -0.263763  0.00012  -0.078843  -0.390929  -0.000547  3.880563  -0.002
C  C60  1  0.95909598  0.13432957  0.15821266  1  -0.025476  -0.003804  3.619424  -0.004  -0.081625  -0.00063  3.888503  -0.001  -0.076991  -0.001552  3.901638  -0.002  0.20424  0.000499  -0.077905  -0.084374  0.000237  3.879698  -0.001
C  C61  1  0.54090107  0.86567001  0.65821266  1  -0.025653  -0.003822  3.619586  -0.004  -0.081673  -0.000629  3.888555  -0.001  -0.07704  -0.001552  3.901689  -0.002  0.203893  0.0005  -0.077912  -0.08442  0.000238  3.879748  -0.001
C  C62  1  0.04089920  0.63433605  0.34178912  1  -0.025809  -0.003793  3.619733  -0.004  -0.081866  -0.00063  3.888752  -0.001  -0.077227  -0.001552  3.901888  -0.002  0.204015  0.0005  -0.077988  -0.084626  0.000238  3.879947  -0.001
C  C63  1  0.45910551  0.36566232  0.84178852  1  -0.025835  -0.003782  3.619855  -0.004  -0.081911  -0.000629  3.888855  -0.001  -0.077275  -0.001552  3.901996  -0.002  0.204049  0.000499  -0.077998  -0.084653  0.000237  3.88004  -0.001
C  C64  1  0.87692700  0.30549343  0.15649838  1  -0.137205  0.000137  3.68982  0.001  -0.180659  6e-05  3.957631  0.001  -0.181648  -0.000236  3.969638  0.0  -0.035109  0.0008  -0.171404  -0.17972  0.000314  3.949269  0.001
C  C65  1  0.62306719  0.69450616  0.65650075  1  -0.137288  0.000156  3.689791  0.001  -0.180759  5.8e-05  3.957597  0.001  -0.181747  -0.000236  3.9696  0.0  -0.03526  0.0008  -0.171482  -0.179818  0.000314  3.949237  0.001
C  C66  1  0.12307102  0.80549869  0.34350221  1  -0.137051  0.000129  3.689769  0.001  -0.18048  5.9e-05  3.957563  0.001  -0.181462  -0.000235  3.969557  0.0  -0.035102  0.0008  -0.171404  -0.179543  0.000314  3.949207  0.001
C  C67  1  0.37693369  0.19450090  0.84350162  1  -0.137148  0.000135  3.689664  0.001  -0.180549  5.9e-05  3.957455  0.001  -0.181534  -0.000236  3.969457  0.0  -0.035338  0.000799  -0.171447  -0.179611  0.000314  3.949094  0.001
C  C68  1  0.69040350  0.31582535  0.20273538  1  -0.121084  -0.000209  3.648011  0.0  -0.166817  0.000285  3.906445  0.0  -0.167359  0.000111  3.920562  0.0  -0.060883  0.000578  -0.162997  -0.166215  0.000427  3.896532  0.0
C  C69  1  0.80959069  0.68417181  0.70273835  1  -0.121035  -0.000222  3.647903  0.0  -0.16681  0.000285  3.906387  0.0  -0.16735  0.000111  3.920499  0.0  -0.060335  0.000578  -0.162992  -0.166209  0.000428  3.896474  0.0
C  C70  1  0.30959168  0.81583304  0.29726343  1  -0.121102  -0.000204  3.647895  0.0  -0.166854  0.000285  3.906354  0.0  -0.167395  0.000111  3.920467  0.0  -0.06052  0.000578  -0.162967  -0.166254  0.000428  3.896445  0.0
C  C71  1  0.19041304  0.18416533  0.79726106  1  -0.121054  -0.000192  3.647853  0.0  -0.166834  0.000285  3.906343  0.0  -0.167375  0.00011  3.920457  0.0  -0.060418  0.000578  -0.162941  -0.166233  0.000428  3.896434  0.0
C  C72  1  0.54902361  0.18323336  0.17511593  1  -0.131018  0.007106  3.641291  0.009  -0.136843  0.004575  3.88274  0.006  -0.144558  0.002936  3.896682  0.004  0.041627  0.008677  -0.084154  -0.131632  0.005898  3.873057  0.007
C  C73  1  0.95096915  0.81676380  0.67511533  1  -0.131116  0.007118  3.641316  0.009  -0.136878  0.004574  3.882731  0.006  -0.144599  0.002935  3.896672  0.004  0.041885  0.008677  -0.084135  -0.131667  0.005898  3.873046  0.007
C  C74  1  0.45097299  0.68324105  0.32488467  1  -0.131067  0.007123  3.641304  0.009  -0.136801  0.004574  3.882635  0.006  -0.144521  0.002935  3.896578  0.004  0.041769  0.008677  -0.084137  -0.131595  0.005898  3.872953  0.007
C  C75  1  0.04902887  0.31675611  0.82488230  1  -0.131042  0.007108  3.641501  0.009  -0.136839  0.004573  3.882956  0.006  -0.144563  0.002935  3.896895  0.004  0.042166  0.008675  -0.084126  -0.131631  0.005896  3.873272  0.007
C  C76  1  0.64374483  0.01605014  0.17512601  1  -0.029198  -0.003586  3.605334  -0.004  -0.089059  -0.000172  3.870256  -0.001  -0.083721  -0.001267  3.884291  -0.002  0.275622  0.001121  -0.06868  -0.092186  0.000822  3.860739  -0.001
C  C77  1  0.85625079  0.98394701  0.67512838  1  -0.029225  -0.003604  3.605388  -0.004  -0.089085  -0.000171  3.870373  -0.001  -0.08373  -0.001267  3.884385  -0.002  0.275616  0.001122  -0.06872  -0.092214  0.000822  3.860867  -0.001
C  C78  1  0.35624892  0.51606026  0.32487281  1  -0.029094  -0.003623  3.605381  -0.004  -0.088991  -0.000171  3.870396  -0.001  -0.083645  -0.001266  3.88444  -0.002  0.27545  0.001121  -0.068693  -0.092114  0.000822  3.860877  -0.001
C  C79  1  0.14375294  0.48393689  0.82486984  1  -0.02903  -0.003602  3.605388  -0.004  -0.08893  -0.000172  3.870417  -0.001  -0.083564  -0.001267  3.884421  -0.002  0.275508  0.001121  -0.068645  -0.092048  0.000822  3.860891  -0.001
C  C80  1  0.46551490  0.23286863  0.09547444  1  0.674026  -0.012887  3.768226  -0.012  0.633912  -0.002734  4.071452  -0.004  0.674317  -0.003161  4.06346  -0.003  1.550745  -0.001962  0.219435  0.606271  -0.002085  4.075727  -0.004
C  C81  1  0.03449267  0.76712731  0.59547740  1  0.674228  -0.012895  3.768367  -0.012  0.634044  -0.002732  4.071736  -0.004  0.67445  -0.003161  4.063739  -0.003  1.551108  -0.00196  0.21948  0.606403  -0.002083  4.076011  -0.004
C  C82  1  0.53449738  0.73287389  0.40452260  1  0.674026  -0.012909  3.768296  -0.012  0.633901  -0.002731  4.07153  -0.004  0.674305  -0.003158  4.063535  -0.003  1.550203  -0.001961  0.21939  0.606261  -0.002082  4.075804  -0.004
C  C83  1  0.96549538  0.26712084  0.90451726  1  0.674014  -0.012887  3.768442  -0.012  0.633819  -0.00273  4.071774  -0.004  0.674221  -0.003158  4.063788  -0.003  1.550359  -0.001962  0.219416  0.606178  -0.002082  4.076046  -0.004
N  N84  1  0.82053667  0.01292493  0.12725240  1  -0.158567  0.099217  3.318227  0.131  -0.096652  0.062128  3.591645  0.088  -0.128629  0.046971  3.623689  0.073  -0.981702  0.108197  -0.345366  -0.077056  0.070381  3.571074  0.094
N  N85  1  0.67946179  0.98707101  0.62725240  1  -0.158516  0.099196  3.31821  0.131  -0.096581  0.062116  3.59155  0.088  -0.128555  0.046961  3.623587  0.073  -0.981667  0.108176  -0.345307  -0.076981  0.070367  3.570972  0.094
N  N86  1  0.17945993  0.51293019  0.37274819  1  -0.158559  0.099206  3.31826  0.131  -0.096604  0.062121  3.591605  0.088  -0.128581  0.046964  3.623643  0.073  -0.981676  0.108183  -0.345282  -0.077009  0.070371  3.571033  0.094
N  N87  1  0.32053909  0.48706940  0.87274641  1  -0.158588  0.099182  3.318216  0.131  -0.096628  0.062113  3.591596  0.088  -0.128608  0.046957  3.623635  0.073  -0.981616  0.108175  -0.345301  -0.077036  0.070367  3.57101  0.094
O  O88  1  0.31534260  0.31986674  0.09759372  1  -0.563373  0.074242  2.00515  0.101  -0.52999  0.049331  2.269548  0.073  -0.569077  0.036376  2.259864  0.059  -1.118455  0.091268  -0.307939  -0.503396  0.058119  2.275936  0.082
O  O89  1  0.18464787  0.68013770  0.59759550  1  -0.563476  0.074209  2.005597  0.101  -0.530104  0.049315  2.270072  0.073  -0.569176  0.036367  2.260387  0.059  -1.118815  0.09123  -0.308023  -0.50351  0.058096  2.276474  0.081
O  O90  1  0.68465401  0.81986957  0.40240569  1  -0.563446  0.07422  2.005442  0.101  -0.530014  0.049319  2.269775  0.073  -0.56909  0.03637  2.260084  0.059  -1.117998  0.091244  -0.307939  -0.503417  0.058103  2.276175  0.081
O  O91  1  0.81535159  0.18012880  0.90240332  1  -0.563437  0.074194  2.005699  0.101  -0.529934  0.049307  2.270014  0.073  -0.569006  0.036362  2.260325  0.059  -1.118268  0.09122  -0.307933  -0.503344  0.058089  2.276412  0.081
O  O92  1  0.54574124  0.19675611  0.02986623  1  -0.588022  0.07532  2.113751  0.106  -0.568821  0.047775  2.413609  0.074  -0.611911  0.034113  2.402266  0.057  -1.116917  0.091845  -0.313246  -0.539145  0.057908  2.421218  0.084
O  O93  1  0.95425437  0.80323983  0.52986326  1  -0.588106  0.075351  2.113488  0.106  -0.568898  0.047789  2.413402  0.074  -0.611988  0.034122  2.402057  0.057  -1.117014  0.091874  -0.313248  -0.539214  0.057924  2.421015  0.084
O  O94  1  0.45425964  0.69675772  0.47013437  1  -0.588  0.075342  2.113542  0.106  -0.568855  0.047781  2.413467  0.074  -0.611941  0.034117  2.402129  0.057  -1.116842  0.091855  -0.313213  -0.539173  0.057913  2.421077  0.084
O  O95  1  0.04573938  0.30324915  0.97013200  1  -0.588053  0.075351  2.113256  0.106  -0.568828  0.04779  2.413134  0.074  -0.611926  0.034122  2.401802  0.057  -1.116618  0.09188  -0.313273  -0.53915  0.057929  2.420726  0.084
O  O96  1  0.00527916  0.94757568  0.98193629  1  -0.810448  0.060781  2.003147  0.082  -0.758246  0.040647  2.284925  0.058  -0.794056  0.031615  2.266087  0.048  -1.388042  0.074761  -0.391527  -0.734582  0.045523  2.298451  0.061
O  O97  1  0.49471558  0.05242998  0.48193273  1  -0.810496  0.060776  2.00312  0.082  -0.758275  0.040644  2.284876  0.058  -0.794079  0.031611  2.266033  0.048  -1.388116  0.074758  -0.391534  -0.734608  0.04552  2.298407  0.061
O  O98  1  0.99473170  0.44756556  0.51807142  1  -0.810485  0.060779  2.003196  0.082  -0.758254  0.040644  2.284951  0.058  -0.794057  0.031613  2.266122  0.048  -1.38808  0.074756  -0.391507  -0.734589  0.045519  2.298482  0.061
O  O99  1  0.50528387  0.55243281  0.01806964  1  -0.810477  0.060777  2.003047  0.082  -0.758239  0.040645  2.28479  0.058  -0.794047  0.031612  2.265953  0.048  -1.3881  0.074763  -0.391547  -0.734581  0.045522  2.29831  0.061
O  O100  1  0.05957293  0.64817351  0.01382633  1  -0.84546  0.00517  1.970672  0.009  -0.783182  0.002622  2.230643  0.006  -0.811792  0.000793  2.208489  0.003  -1.453467  0.008321  -0.371017  -0.762517  0.004573  2.245389  0.008
O  O101  1  0.44042466  0.35182608  0.51382870  1  -0.845488  0.005168  1.970735  0.009  -0.783233  0.00262  2.230726  0.006  -0.811837  0.000792  2.208573  0.003  -1.453567  0.008319  -0.37103  -0.762567  0.00457  2.245478  0.008
O  O102  1  0.94042510  0.14817311  0.48617308  1  -0.845428  0.005169  1.970672  0.009  -0.783194  0.002621  2.230695  0.006  -0.8118  0.000793  2.208539  0.003  -1.453416  0.008321  -0.371034  -0.762524  0.004573  2.245445  0.008
O  O103  1  0.55957765  0.85182526  0.98617070  1  -0.845487  0.005165  1.970841  0.009  -0.783274  0.002619  2.230877  0.006  -0.811882  0.000792  2.208719  0.003  -1.453452  0.008316  -0.37106  -0.762608  0.00457  2.245627  0.008
O  O104  1  0.27111257  0.86632495  0.07963793  1  -0.748484  0.000848  2.026899  0.001  -0.675653  0.000941  2.251008  0.001  -0.696681  0.000662  2.225429  0.001  -1.447018  0.002626  -0.384187  -0.660758  0.001125  2.268361  0.002
O  O105  1  0.22888645  0.13367221  0.57963912  1  -0.748449  0.000848  2.026765  0.001  -0.675595  0.000941  2.250905  0.001  -0.696621  0.000662  2.225322  0.001  -1.447058  0.002628  -0.384121  -0.660697  0.001126  2.268256  0.002
O  O106  1  0.72889116  0.36633791  0.42036563  1  -0.748443  0.000849  2.026883  0.001  -0.675551  0.00094  2.250949  0.001  -0.696576  0.000661  2.22537  0.001  -1.447024  0.002627  -0.384086  -0.660653  0.001125  2.268303  0.002
O  O107  1  0.77111443  0.63366896  0.92036088  1  -0.748446  0.000848  2.026788  0.001  -0.675583  0.000941  2.250911  0.001  -0.69661  0.000661  2.225332  0.001  -1.44714  0.002626  -0.384138  -0.660687  0.001125  2.268264  0.002
