# generated using pymatgen
data_HgH18C14(NCl)2
_symmetry_space_group_name_H-M   'P 1'
_cell_length_a   3.97077112
_cell_length_b   13.98673402
_cell_length_c   13.98639996
_cell_angle_alpha   90.00009805
_cell_angle_beta   90.00136190
_cell_angle_gamma   90.00031165
_symmetry_Int_Tables_number   1
_chemical_formula_structural   HgH18C14(NCl)2
_chemical_formula_sum   'Hg2 H36 C28 N4 Cl4'
_cell_volume   776.77835264
_cell_formula_units_Z   2
loop_
 _symmetry_equiv_pos_site_id
 _symmetry_equiv_pos_as_xyz
  1  'x, y, z'
loop_
 _atom_site_type_symbol
 _atom_site_label
 _atom_site_symmetry_multiplicity
 _atom_site_fract_x
 _atom_site_fract_y
 _atom_site_fract_z
 _atom_site_occupancy
 _atom_site_pbe_bader_charge
 _atom_site_pbe_bader_spin_density
 _atom_site_pbe_cm5_charge
 _atom_site_pbe_ddec_charge
 _atom_site_pbe_ddec_spin_density
 _atom_site_pbe_ddec_sum_bond_order
 _atom_site_pbe_magmom
Hg  Hg0  1  0.50004639  0.49999678  0.99999772  1  0.90321  0  0.532641  0.571815  0  2.542482  0
Hg  Hg1  1  0.50003309  0.00000040  0.50000018  1  0.903209  0  0.532576  0.571717  0  2.542556  0
H  H2  1  0.72076758  0.52368399  0.21257270  1  0.154954  0  0.102203  0.092364  0  1.03695  0
H  H3  1  0.72073721  0.47631709  0.78742988  1  0.154949  0  0.102265  0.092456  0  1.037048  0
H  H4  1  0.27926196  0.21256712  0.47629928  1  0.155207  0  0.102226  0.092472  0  1.037346  0
H  H5  1  0.27921284  0.78743924  0.52370046  1  0.154964  0  0.102214  0.092395  0  1.03721  0
H  H6  1  0.72075176  0.02368631  0.28743288  1  0.155028  0  0.102186  0.092306  0  1.037118  0
H  H7  1  0.72073289  0.97631477  0.71257184  1  0.154966  0  0.102223  0.092377  0  1.037128  0
H  H8  1  0.27928642  0.71256283  0.02369357  1  0.15479  0  0.102308  0.09255  0  1.037275  0
H  H9  1  0.27926141  0.28743495  0.97630116  1  0.155208  0  0.10227  0.092515  0  1.03731  0
H  H10  1  0.49998687  0.81024789  0.31025660  1  0.100948  0  0.089429  0.11738  0  1.052628  0
H  H11  1  0.50000922  0.18975118  0.68974670  1  0.100939  0  0.089431  0.117455  0  1.052638  0
H  H12  1  0.49998516  0.31024848  0.18974056  1  0.100874  0  0.089473  0.117492  0  1.052713  0
H  H13  1  0.49998323  0.68975131  0.81026060  1  0.100847  0  0.089483  0.117532  0  1.052708  0
H  H14  1  0.76519425  0.70231224  0.41993366  1  0.095055  0  0.088879  0.134602  0  1.026004  0
H  H15  1  0.76516985  0.29768681  0.58006634  1  0.095074  0  0.088879  0.134593  0  1.026016  0
H  H16  1  0.23479739  0.41993477  0.29768633  1  0.095048  0  0.088842  0.134557  0  1.026064  0
H  H17  1  0.23481558  0.58006504  0.70231169  1  0.095064  0  0.088856  0.134585  0  1.026066  0
H  H18  1  0.76519049  0.20231598  0.08006525  1  0.095005  0  0.088865  0.134602  0  1.026008  0
H  H19  1  0.76517866  0.79768522  0.91993690  1  0.094981  0  0.088866  0.134573  0  1.026003  0
H  H20  1  0.23481483  0.91993091  0.20230192  1  0.09522  0  0.088878  0.134552  0  1.026238  0
H  H21  1  0.23480821  0.08006890  0.79768966  1  0.09515  0  0.088818  0.134568  0  1.026124  0
H  H22  1  0.02257021  0.61251591  0.36776090  1  0.041339  0  0.091194  0.13144  0  1.016787  0
H  H23  1  0.02256098  0.38748477  0.63224147  1  0.041412  0  0.09121  0.131425  0  1.016768  0
H  H24  1  0.97745288  0.36775891  0.38747827  1  0.041101  0  0.09122  0.131454  0  1.016867  0
H  H25  1  0.97744085  0.63223784  0.61251238  1  0.04138  0  0.091221  0.131458  0  1.016748  0
H  H26  1  0.02257353  0.11251591  0.13224386  1  0.041393  0  0.091187  0.131431  0  1.016811  0
H  H27  1  0.02255010  0.88748407  0.86776423  1  0.041427  0  0.091181  0.131425  0  1.016831  0
H  H28  1  0.97745743  0.86775483  0.11250512  1  0.041432  0  0.091212  0.131421  0  1.016743  0
H  H29  1  0.97746150  0.13223977  0.88748338  1  0.041081  0  0.091232  0.131461  0  1.016842  0
H  H30  1  0.61322791  0.58260927  0.40743573  1  0.048693  0  0.086017  0.114254  0  1.024713  0
H  H31  1  0.61319775  0.41739582  0.59256544  1  0.049081  0  0.085987  0.114229  0  1.024665  0
H  H32  1  0.38677811  0.40742874  0.41738528  1  0.048644  0  0.085997  0.11426  0  1.024731  0
H  H33  1  0.38680352  0.59257433  0.58260728  1  0.049297  0  0.086003  0.114285  0  1.02462  0
H  H34  1  0.61321013  0.08260599  0.09256375  1  0.04857  0  0.085979  0.11424  0  1.024645  0
H  H35  1  0.61320546  0.91739195  0.90744100  1  0.048594  0  0.085981  0.114227  0  1.024656  0
H  H36  1  0.38680522  0.90742507  0.08260261  1  0.049188  0  0.086015  0.114284  0  1.024718  0
H  H37  1  0.38679908  0.09257156  0.91738853  1  0.048532  0  0.085985  0.114231  0  1.024714  0
C  C38  1  0.62116708  0.59591583  0.20320017  1  0.395589  0  0.035403  -0.003369  0  3.913609  0
C  C39  1  0.62114718  0.40408571  0.79679962  1  0.395553  0  0.035323  -0.003493  0  3.913653  0
C  C40  1  0.37883640  0.20320658  0.40408734  1  0.39448  0  0.035257  -0.003663  0  3.912729  0
C  C41  1  0.37880878  0.79679647  0.59591805  1  0.394707  0  0.035198  -0.003526  0  3.912638  0
C  C42  1  0.62115963  0.09591610  0.29679998  1  0.395484  0  0.035476  -0.003099  0  3.913563  0
C  C43  1  0.62114456  0.90408544  0.70320410  1  0.395573  0  0.035417  -0.003306  0  3.913782  0
C  C44  1  0.37883194  0.70320304  0.09590908  1  0.394284  0  0.035113  -0.00389  0  3.912959  0
C  C45  1  0.37883087  0.29679357  0.90408630  1  0.394424  0  0.03521  -0.003792  0  3.912702  0
C  C46  1  0.62627025  0.66407008  0.27619371  1  0.018309  0  -0.00475  0.138746  0  3.975998  0
C  C47  1  0.62624859  0.33592861  0.72381112  1  0.018324  0  -0.00473  0.138762  0  3.976076  0
C  C48  1  0.37370617  0.27618394  0.33591227  1  0.018107  0  -0.004952  0.138699  0  3.976362  0
C  C49  1  0.37368156  0.72382053  0.66408951  1  0.018215  0  -0.004841  0.138765  0  3.976587  0
C  C50  1  0.62626144  0.16407388  0.22381100  1  0.018053  0  -0.004738  0.138694  0  3.976017  0
C  C51  1  0.62623221  0.83593410  0.77619240  1  0.018095  0  -0.004743  0.138767  0  3.976002  0
C  C52  1  0.37374545  0.77618111  0.16408074  1  0.017632  0  -0.004781  0.138956  0  3.976455  0
C  C53  1  0.37372035  0.22381477  0.83591531  1  0.017635  0  -0.00492  0.138741  0  3.976444  0
C  C54  1  0.49998682  0.75512037  0.25511394  1  0.009154  0  -0.070347  -0.148472  0  3.847149  0
C  C55  1  0.49998913  0.24487585  0.74488579  1  0.009097  0  -0.070334  -0.148493  0  3.847187  0
C  C56  1  0.49999245  0.25512725  0.24488432  1  0.009411  0  -0.070371  -0.148513  0  3.847251  0
C  C57  1  0.49999609  0.74487540  0.75512184  1  0.009216  0  -0.070415  -0.148651  0  3.847316  0
C  C58  1  0.76332337  0.63932088  0.37330572  1  -0.116985  0  -0.238388  -0.409338  0  3.950538  0
C  C59  1  0.76330091  0.36068103  0.62669570  1  -0.117482  0  -0.23839  -0.409308  0  3.950416  0
C  C60  1  0.23667874  0.37329948  0.36067268  1  -0.117084  0  -0.238424  -0.409379  0  3.950609  0
C  C61  1  0.23668917  0.62670105  0.63932249  1  -0.118011  0  -0.238457  -0.409466  0  3.950445  0
C  C62  1  0.76332117  0.13932153  0.12669361  1  -0.116874  0  -0.238361  -0.409357  0  3.950326  0
C  C63  1  0.76330815  0.86068038  0.87331138  1  -0.116895  0  -0.238377  -0.409319  0  3.950342  0
C  C64  1  0.23670326  0.87329640  0.13931448  1  -0.117638  0  -0.238516  -0.409469  0  3.950722  0
C  C65  1  0.23669235  0.12670056  0.86067712  1  -0.11659  0  -0.238397  -0.409357  0  3.950695  0
N  N66  1  0.50002816  0.61594419  0.11595925  1  -1.212008  0  -0.308042  -0.151804  0  3.626528  0
N  N67  1  0.49999564  0.38405846  0.88403977  1  -1.212449  0  -0.308041  -0.151764  0  3.626238  0
N  N68  1  0.50000569  0.11594394  0.38403713  1  -1.21247  0  -0.308064  -0.151992  0  3.626564  0
N  N69  1  0.49996019  0.88406228  0.61596332  1  -1.212442  0  -0.308017  -0.151919  0  3.626373  0
Cl  Cl70  1  0.00002822  0.40019902  0.09979841  1  -0.621572  0  -0.298118  -0.500124  0  1.239112  0
Cl  Cl71  1  0.00002356  0.59979732  0.90019882  1  -0.621593  0  -0.298123  -0.500129  0  1.239068  0
Cl  Cl72  1  0.00001649  0.09980197  0.59979803  1  -0.621556  0  -0.298105  -0.500095  0  1.23907  0
Cl  Cl73  1  0.00000255  0.90020509  0.40020349  1  -0.621552  0  -0.298086  -0.500025  0  1.239114  0
