# generated using pymatgen
data_Zn4C12O13
_symmetry_space_group_name_H-M   'P 1'
_cell_length_a   15.96340286
_cell_length_b   16.06064261
_cell_length_c   15.99427392
_cell_angle_alpha   120.06898294
_cell_angle_beta   119.81454859
_cell_angle_gamma   90.00826311
_symmetry_Int_Tables_number   1
_chemical_formula_structural   Zn4C12O13
_chemical_formula_sum   'Zn8 C24 O26'
_cell_volume   2904.47354451
_cell_formula_units_Z   2
loop_
 _symmetry_equiv_pos_site_id
 _symmetry_equiv_pos_as_xyz
  1  'x, y, z'
loop_
 _atom_site_type_symbol
 _atom_site_label
 _atom_site_symmetry_multiplicity
 _atom_site_fract_x
 _atom_site_fract_y
 _atom_site_fract_z
 _atom_site_occupancy
 _atom_site_pbe_bader_charge
 _atom_site_pbe_bader_spin_density
 _atom_site_pbe_cm5_charge
 _atom_site_pbe_ddec_charge
 _atom_site_pbe_ddec_spin_density
 _atom_site_pbe_ddec_sum_bond_order
 _atom_site_pbe_magmom
Zn  Zn0  1  0.04660880  0.92672187  0.87803614  1  1.315404  0  0.68266  0.969749  0  2.344066  0
Zn  Zn1  1  0.05495722  0.93069154  0.08583384  1  1.313692  0  0.682316  0.968426  0  2.352141  0
Zn  Zn2  1  0.84995140  0.93041811  0.88824476  1  1.318684  0  0.682379  0.969022  0  2.349745  0
Zn  Zn3  1  0.05216002  0.12978556  0.08356063  1  1.303912  0  0.682125  0.968066  0  2.353439  0
Zn  Zn4  1  0.44531703  0.52758532  0.07999026  1  1.316055  0  0.682735  0.969727  0  2.346568  0
Zn  Zn5  1  0.45432905  0.53016958  0.88421993  1  1.31856  0  0.682263  0.967992  0  2.353356  0
Zn  Zn6  1  0.45192098  0.32920713  0.88243229  1  1.311796  0  0.682045  0.967767  0  2.354746  0
Zn  Zn7  1  0.65207294  0.53065760  0.08903547  1  1.311833  0  0.682563  0.96951  0  2.348056  0
C  C8  1  0.15792183  0.81781917  0.97664056  1  1.668007  0  0.244685  0.676299  0  4.220367  0
C  C9  1  0.22068245  0.75270649  0.97443602  1  -0.123219  0  -0.00977  -0.101264  0  3.9015  0
C  C10  1  0.27398433  0.69885349  0.97478749  1  0.017592  0  -0.008728  -0.099534  0  3.902872  0
C  C11  1  0.33855716  0.63559212  0.97690176  1  1.647096  0  0.244079  0.674766  0  4.222487  0
C  C12  1  0.83357841  0.82023268  0.66517346  1  1.687451  0  0.244265  0.675522  0  4.221072  0
C  C13  1  0.76735363  0.75627315  0.53734974  1  0.129696  0  -0.009379  -0.100798  0  3.900487  0
C  C14  1  0.71362896  0.70260589  0.43023287  1  -0.258361  0  -0.009519  -0.099834  0  3.900809  0
C  C15  1  0.65187055  0.63854843  0.30238663  1  1.653883  0  0.244339  0.674492  0  4.221702  0
C  C16  1  0.15494588  0.13455948  0.97466999  1  1.658418  0  0.244828  0.675322  0  4.222606  0
C  C17  1  0.21783301  0.19767649  0.97278148  1  -0.307646  0  -0.009782  -0.100582  0  3.902418  0
C  C18  1  0.27145215  0.25190087  0.97345781  1  0.186932  0  -0.009282  -0.10046  0  3.901846  0
C  C19  1  0.33643303  0.31703064  0.97569499  1  1.658097  0  0.244723  0.676461  0  4.220939  0
C  C20  1  0.84756316  0.82197626  0.99156408  1  1.690503  0  0.244996  0.676727  0  4.220285  0
C  C21  1  0.78529323  0.75774504  0.99292812  1  0.119107  0  -0.00928  -0.100575  0  3.901561  0
C  C22  1  0.73198738  0.70376745  0.99281798  1  -0.28864  0  -0.009129  -0.100363  0  3.900573  0
C  C23  1  0.66653269  0.63935373  0.99082146  1  1.652962  0  0.244644  0.676259  0  4.220861  0
C  C24  1  0.16665183  0.14026775  0.30265246  1  1.64543  0  0.245372  0.677932  0  4.219188  0
C  C25  1  0.23187572  0.20469978  0.43042523  1  -0.2414  0  -0.009538  -0.100422  0  3.902283  0
C  C26  1  0.28555819  0.25849217  0.53752788  1  0.050711  0  -0.008955  -0.100512  0  3.90323  0
C  C27  1  0.34834225  0.32203685  0.66533033  1  1.704167  0  0.245148  0.676337  0  4.221481  0
C  C28  1  0.84331941  0.14043629  0.99106713  1  1.636673  0  0.24522  0.675931  0  4.221143  0
C  C29  1  0.77994234  0.20490854  0.99198116  1  -0.156355  0  -0.009326  -0.100722  0  3.902424  0
C  C30  1  0.72661370  0.25873728  0.99171578  1  0.049093  0  -0.009324  -0.099846  0  3.901637  0
C  C31  1  0.66233400  0.32229941  0.99009994  1  1.666001  0  0.244923  0.676136  0  4.222229  0
O  O32  1  0.00095540  0.97930991  0.98378021  1  -1.197287  0  -0.568321  -1.042849  0  2.519966  0
O  O33  1  0.13835449  0.84626122  0.05308528  1  -1.133543  0  -0.297721  -0.523493  0  2.276858  0
O  O34  1  0.12912864  0.83965505  0.90229784  1  -1.14571  0  -0.297568  -0.524057  0  2.269819  0
O  O35  1  0.36890074  0.61427471  0.91062119  1  -1.140074  0  -0.297908  -0.523386  0  2.275875  0
O  O36  1  0.35830683  0.60817777  0.04510451  1  -1.142579  0  -0.297627  -0.52368  0  2.273818  0
O  O37  1  0.78940877  0.84634995  0.71791825  1  -1.141522  0  -0.297459  -0.523543  0  2.272561  0
O  O38  1  0.92931579  0.84349035  0.71116134  1  -1.150909  0  -0.297846  -0.523841  0  2.27453  0
O  O39  1  0.70136212  0.61417974  0.25589571  1  -1.140297  0  -0.298182  -0.523739  0  2.275612  0
O  O40  1  0.55520158  0.61347143  0.25017993  1  -1.130803  0  -0.296975  -0.522955  0  2.271249  0
O  O41  1  0.13229369  0.18229168  0.04822671  1  -1.133949  0  -0.297307  -0.522947  0  2.276717  0
O  O42  1  0.12927087  0.03847198  0.90311869  1  -1.138488  0  -0.29814  -0.523983  0  2.27158  0
O  O43  1  0.36300445  0.27176369  0.90556761  1  -1.127369  0  -0.297787  -0.524053  0  2.274109  0
O  O44  1  0.36022038  0.41262942  0.04778869  1  -1.147295  0  -0.297537  -0.523826  0  2.275131  0
O  O45  1  0.79875769  0.84625940  0.92024777  1  -1.136245  0  -0.298292  -0.524454  0  2.275029  0
O  O46  1  0.94410973  0.84719965  0.06144098  1  -1.129753  0  -0.297499  -0.523769  0  2.27344  0
O  O47  1  0.71141271  0.61523786  0.06302438  1  -1.123784  0  -0.297844  -0.524038  0  2.270168  0
O  O48  1  0.57071519  0.61370237  0.91668607  1  -1.134725  0  -0.297741  -0.523728  0  2.276947  0
O  O49  1  0.14185613  0.04451318  0.25411148  1  -1.115675  0  -0.298057  -0.524188  0  2.273009  0
O  O50  1  0.14080631  0.18618704  0.25246955  1  -1.143966  0  -0.297964  -0.524948  0  2.274617  0
O  O51  1  0.37245800  0.41797438  0.71515270  1  -1.118  0  -0.297967  -0.523688  0  2.273641  0
O  O52  1  0.37244290  0.27506022  0.71424561  1  -1.132597  0  -0.298347  -0.52408  0  2.274819  0
O  O53  1  0.79606364  0.04469960  0.92212280  1  -1.138812  0  -0.298257  -0.524219  0  2.273112  0
O  O54  1  0.93958159  0.18635126  0.05899767  1  -1.133785  0  -0.298029  -0.523536  0  2.274294  0
O  O55  1  0.70856972  0.41820504  0.06370508  1  -1.134898  0  -0.297948  -0.524288  0  2.272496  0
O  O56  1  0.56634123  0.27525273  0.91494739  1  -1.139148  0  -0.297456  -0.523295  0  2.277188  0
O  O57  1  0.50106194  0.47968567  0.98436721  1  -1.204922  0  -0.568516  -1.042948  0  2.52034  0
