# generated using pymatgen
data_AgH10C6N2O2F3
_symmetry_space_group_name_H-M   'P 1'
_cell_length_a   7.73445968
_cell_length_b   8.55748339
_cell_length_c   8.70942782
_cell_angle_alpha   106.37266854
_cell_angle_beta   113.24695413
_cell_angle_gamma   104.52616852
_symmetry_Int_Tables_number   1
_chemical_formula_structural   AgH10C6N2O2F3
_chemical_formula_sum   'Ag2 H20 C12 N4 O4 F6'
_cell_volume   463.33298834
_cell_formula_units_Z   2
loop_
 _symmetry_equiv_pos_site_id
 _symmetry_equiv_pos_as_xyz
  1  'x, y, z'
loop_
 _atom_site_type_symbol
 _atom_site_label
 _atom_site_symmetry_multiplicity
 _atom_site_fract_x
 _atom_site_fract_y
 _atom_site_fract_z
 _atom_site_occupancy
 _atom_site_hle17_bader_spin_density
 _atom_site_hle17_ddec_charge
 _atom_site_hle17_ddec_spin_density
 _atom_site_hle17_ddec_sum_bond_order
 _atom_site_hle17_magmom
 _atom_site_hse06_10hf_bader_spin_density
 _atom_site_hse06_10hf_ddec_charge
 _atom_site_hse06_10hf_ddec_spin_density
 _atom_site_hse06_10hf_ddec_sum_bond_order
 _atom_site_hse06_10hf_magmom
 _atom_site_hse06_bader_spin_density
 _atom_site_hse06_ddec_charge
 _atom_site_hse06_ddec_spin_density
 _atom_site_hse06_ddec_sum_bond_order
 _atom_site_hse06_magmom
 _atom_site_pbe_bader_spin_density
 _atom_site_pbe_cm5_charge
 _atom_site_pbe_ddec_charge
 _atom_site_pbe_ddec_spin_density
 _atom_site_pbe_ddec_sum_bond_order
 _atom_site_pbe_magmom
Ag  Ag0  1  0.47502512  0.84714784  0.14889725  1  0  0.50529  0  1.336102  0  0  0.358549  0  1.752618  0  0  0.389545  0  1.708905  0  0  0.444504  0.336743  0  1.782828  0
Ag  Ag1  1  0.52497569  0.15285440  0.85110088  1  0  0.505321  0  1.336087  0  0  0.358601  0  1.752639  0  0  0.389695  0  1.70874  0  0  0.444507  0.336795  0  1.782853  0
H  H2  1  0.72046813  0.77618050  0.03622782  1  0  0.263139  0  0.928874  0  0  0.255149  0  0.978055  0  0  0.26158  0  0.974336  0  0  0.286531  0.250493  0  0.980874  0
H  H3  1  0.27953616  0.22382308  0.96377533  1  0  0.263144  0  0.928726  0  0  0.255156  0  0.977918  0  0  0.261616  0  0.974145  0  0  0.286522  0.250502  0  0.980734  0
H  H4  1  0.24136889  0.00650618  0.24235380  1  0  0.267644  0  0.923605  0  0  0.257597  0  0.978649  0  0  0.26365  0  0.975318  0  0  0.287865  0.253197  0  0.981157  0
H  H5  1  0.75863867  0.99350141  0.75764816  1  0  0.267677  0  0.923561  0  0  0.257649  0  0.978603  0  0  0.263722  0  0.975236  0  0  0.287895  0.253248  0  0.981112  0
H  H6  1  0.52965010  0.47614341  0.78020287  1  0  0.04214  0  0.96283  0  0  0.05245  0  1.048158  0  0  0.053557  0  1.045276  0  0  0.085803  0.051458  0  1.050398  0
H  H7  1  0.47035370  0.52385617  0.21979899  1  0  0.042218  0  0.962871  0  0  0.052528  0  1.048163  0  0  0.053692  0  1.045177  0  0  0.085841  0.051531  0  1.050405  0
H  H8  1  0.37834691  0.60537756  0.76100118  1  0  0.084036  0  0.934983  0  0  0.099299  0  0.999889  0  0  0.100205  0  0.999317  0  0  0.103985  0.098529  0  1.000426  0
H  H9  1  0.62165953  0.39462468  0.23899775  1  0  0.084041  0  0.935066  0  0  0.099338  0  0.999896  0  0  0.100231  0  0.999346  0  0  0.104002  0.098568  0  1.000433  0
H  H10  1  0.81945325  0.70363542  0.29048238  1  0  0.073257  0  0.914885  0  0  0.094791  0  0.97019  0  0  0.09469  0  0.970722  0  0  0.107251  0.094694  0  0.970059  0
H  H11  1  0.18054947  0.29637082  0.70951868  1  0  0.073308  0  0.914811  0  0  0.094813  0  0.970164  0  0  0.094702  0  0.970704  0  0  0.107249  0.094715  0  0.970034  0
H  H12  1  0.79020535  0.53408976  0.09512485  1  0  0.049681  0  0.94909  0  0  0.060936  0  1.03084  0  0  0.062076  0  1.028144  0  0  0.089018  0.060087  0  1.032786  0
H  H13  1  0.20979956  0.46591515  0.90487774  1  0  0.049682  0  0.949083  0  0  0.060948  0  1.030824  0  0  0.062067  0  1.028145  0  0  0.088999  0.060098  0  1.032771  0
H  H14  1  0.48120067  0.23312924  0.54573770  1  0  0.040992  0  0.960188  0  0  0.053365  0  1.042279  0  0  0.054364  0  1.039442  0  0  0.086597  0.052491  0  1.044438  0
H  H15  1  0.51880563  0.76687567  0.45426423  1  0  0.040964  0  0.960215  0  0  0.05334  0  1.042291  0  0  0.054344  0  1.039444  0  0  0.086551  0.052467  0  1.044449  0
H  H16  1  0.59142402  0.23139107  0.39947710  1  0  0.085876  0  0.929653  0  0  0.101815  0  0.991644  0  0  0.102266  0  0.9919  0  0  0.105088  0.101334  0  0.991703  0
H  H17  1  0.40858355  0.76861652  0.60052601  1  0  0.085857  0  0.92966  0  0  0.1018  0  0.99163  0  0  0.102245  0  0.991897  0  0  0.105088  0.101318  0  0.991689  0
H  H18  1  0.16578705  0.74526908  0.29439043  1  0  0.075979  0  0.930606  0  0  0.091263  0  0.996312  0  0  0.091627  0  0.996138  0  0  0.103106  0.090882  0  0.996566  0
H  H19  1  0.83421771  0.25473851  0.70561170  1  0  0.075981  0  0.930673  0  0  0.091256  0  0.996359  0  0  0.091618  0  0.996192  0  0  0.10311  0.090882  0  0.996598  0
H  H20  1  0.22530605  0.94236483  0.48163148  1  0  0.049961  0  0.933986  0  0  0.068078  0  1.0027  0  0  0.068779  0  1.000973  0  0  0.093326  0.067427  0  1.004094  0
H  H21  1  0.77470215  0.05764409  0.51837222  1  0  0.049982  0  0.933997  0  0  0.068079  0  1.002705  0  0  0.06878  0  1.00098  0  0  0.093332  0.067428  0  1.004097  0
C  C22  1  0.45307843  0.54157101  0.84354688  1  0  -0.000725  0  3.665439  0  0  -0.065568  0  3.929393  0  0  -0.061763  0  3.943198  0  0  -0.084615  -0.068003  0  3.919953  0
C  C23  1  0.54692226  0.45843390  0.15645425  1  0  -0.000893  0  3.665671  0  0  -0.065685  0  3.929493  0  0  -0.061872  0  3.943309  0  0  -0.084676  -0.068118  0  3.920058  0
C  C24  1  0.70695303  0.59797357  0.15076386  1  0  0.005234  0  3.662147  0  0  -0.057288  0  3.924405  0  0  -0.053535  0  3.93892  0  0  -0.078586  -0.059657  0  3.914131  0
C  C25  1  0.29304982  0.40203001  0.84923535  1  0  0.005143  0  3.66208  0  0  -0.057336  0  3.924385  0  0  -0.053529  0  3.938822  0  0  -0.078585  -0.059706  0  3.914116  0
C  C26  1  0.53585505  0.15561114  0.46534350  1  0  -0.001678  0  3.666121  0  0  -0.06479  0  3.929725  0  0  -0.060917  0  3.943206  0  0  -0.08533  -0.06731  0  3.920454  0
C  C27  1  0.46414792  0.84438976  0.53465271  1  0  -0.001676  0  3.66608  0  0  -0.064735  0  3.929705  0  0  -0.060866  0  3.943191  0  0  -0.085322  -0.067257  0  3.920437  0
C  C28  1  0.28953269  0.87397559  0.40473689  1  0  0.002294  0  3.663833  0  0  -0.057675  0  3.921659  0  0  -0.054245  0  3.9364  0  0  -0.080739  -0.059831  0  3.911366  0
C  C29  1  0.71047629  0.12603200  0.59526670  1  0  0.002307  0  3.663915  0  0  -0.057571  0  3.921705  0  0  -0.054136  0  3.936439  0  0  -0.080736  -0.059725  0  3.911411  0
C  C30  1  0.90822390  0.13420166  0.19236256  1  0  0.48142  0  4.071239  0  0  0.432377  0  4.377756  0  0  0.461504  0  4.372189  0  0  0.182988  0.412754  0  4.381067  0
C  C31  1  0.09176241  0.86579656  0.80763863  1  0  0.481246  0  4.071339  0  0  0.432406  0  4.37769  0  0  0.461461  0  4.372238  0  0  0.183056  0.412779  0  4.381006  0
C  C32  1  0.07350117  0.32031521  0.24902287  1  0  0.666851  0  3.615878  0  0  0.591221  0  3.965916  0  0  0.619432  0  3.938192  0  0  0.29209  0.570983  0  3.985863  0
C  C33  1  0.92649133  0.67967234  0.75097518  1  0  0.667119  0  3.615258  0  0  0.591085  0  3.965869  0  0  0.619047  0  3.938603  0  0  0.29209  0.570858  0  3.985813  0
N  N34  1  0.60640713  0.67963996  0.03315912  1  0  -0.395659  0  3.276169  0  0  -0.294305  0  3.516541  0  0  -0.316446  0  3.530211  0  0  -0.501588  -0.278846  0  3.506584  0
N  N35  1  0.39359368  0.32036228  0.96683901  1  0  -0.395628  0  3.27606  0  0  -0.294342  0  3.516493  0  0  -0.316468  0  3.530105  0  0  -0.501552  -0.278889  0  3.506553  0
N  N36  1  0.36384082  0.98250905  0.31971443  1  0  -0.397672  0  3.248253  0  0  -0.299983  0  3.493371  0  0  -0.321934  0  3.506824  0  0  -0.500397  -0.284664  0  3.483629  0
N  N37  1  0.63616611  0.01749720  0.68028694  1  0  -0.397737  0  3.248166  0  0  -0.300161  0  3.493349  0  0  -0.322072  0  3.506709  0  0  -0.500431  -0.284841  0  3.483606  0
O  O38  1  0.73840102  0.13701369  0.17125469  1  0  -0.587109  0  2.057135  0  0  -0.541513  0  2.32136  0  0  -0.565255  0  2.308739  0  0  -0.330645  -0.52495  0  2.329638  0
O  O39  1  0.26157985  0.86297918  0.82873049  1  0  -0.587026  0  2.057134  0  0  -0.541494  0  2.321291  0  0  -0.565224  0  2.308746  0  0  -0.330632  -0.524919  0  2.329552  0
O  O40  1  0.96242269  0.00653206  0.17173166  1  0  -0.551552  0  1.993623  0  0  -0.521526  0  2.218067  0  0  -0.543047  0  2.211152  0  0  -0.315283  -0.506551  0  2.22237  0
O  O41  1  0.03755651  0.99345682  0.82828053  1  0  -0.551514  0  1.993674  0  0  -0.521531  0  2.21801  0  0  -0.542973  0  2.211047  0  0  -0.315327  -0.506562  0  2.222328  0
F  F42  1  0.03134235  0.36151222  0.10004710  1  0  -0.265274  0  1.160507  0  0  -0.222189  0  1.334531  0  0  -0.233276  0  1.318732  0  0  -0.103058  -0.214262  0  1.345484  0
F  F43  1  0.96865654  0.63847400  0.89995050  1  0  -0.265372  0  1.160469  0  0  -0.222154  0  1.334595  0  0  -0.233091  0  1.318781  0  0  -0.1031  -0.214238  0  1.345558  0
F  F44  1  0.26921940  0.32887508  0.31549380  1  0  -0.247766  0  1.207129  0  0  -0.194275  0  1.370427  0  0  -0.204809  0  1.355253  0  0  -0.091117  -0.186688  0  1.380943  0
F  F45  1  0.73076180  0.67110044  0.68449928  1  0  -0.247854  0  1.206831  0  0  -0.194266  0  1.370247  0  0  -0.204801  0  1.355205  0  0  -0.091148  -0.186681  0  1.380761  0
F  F46  1  0.07950092  0.45566244  0.38218404  1  0  -0.246306  0  1.184156  0  0  -0.197774  0  1.342483  0  0  -0.208135  0  1.327541  0  0  -0.096771  -0.1903  0  1.352822  0
F  F47  1  0.92049905  0.54432912  0.61781083  1  0  -0.246346  0  1.183998  0  0  -0.19773  0  1.34247  0  0  -0.208098  0  1.327662  0  0  -0.096759  -0.190261  0  1.352809  0
