# generated using pymatgen
data_ZnPH13C11N2O5
_symmetry_space_group_name_H-M   'P 1'
_cell_length_a   5.14759174
_cell_length_b   9.22700424
_cell_length_c   13.74955276
_cell_angle_alpha   99.90921212
_cell_angle_beta   89.99998299
_cell_angle_gamma   89.99973662
_symmetry_Int_Tables_number   1
_chemical_formula_structural   ZnPH13C11N2O5
_chemical_formula_sum   'Zn2 P2 H26 C22 N4 O10'
_cell_volume   643.31788516
_cell_formula_units_Z   2
loop_
 _symmetry_equiv_pos_site_id
 _symmetry_equiv_pos_as_xyz
  1  'x, y, z'
loop_
 _atom_site_type_symbol
 _atom_site_label
 _atom_site_symmetry_multiplicity
 _atom_site_fract_x
 _atom_site_fract_y
 _atom_site_fract_z
 _atom_site_occupancy
 _atom_site_hle17_bader_spin_density
 _atom_site_hle17_ddec_charge
 _atom_site_hle17_ddec_spin_density
 _atom_site_hle17_ddec_sum_bond_order
 _atom_site_hle17_magmom
 _atom_site_hse06_10hf_bader_spin_density
 _atom_site_hse06_10hf_ddec_charge
 _atom_site_hse06_10hf_ddec_spin_density
 _atom_site_hse06_10hf_ddec_sum_bond_order
 _atom_site_hse06_10hf_magmom
 _atom_site_hse06_bader_spin_density
 _atom_site_hse06_ddec_charge
 _atom_site_hse06_ddec_spin_density
 _atom_site_hse06_ddec_sum_bond_order
 _atom_site_hse06_magmom
 _atom_site_pbe_bader_spin_density
 _atom_site_pbe_cm5_charge
 _atom_site_pbe_ddec_charge
 _atom_site_pbe_ddec_spin_density
 _atom_site_pbe_ddec_sum_bond_order
 _atom_site_pbe_magmom
Zn  Zn0  1  0.04806923  0.66547398  0.09039621  1  0  1.198551  0  1.764835  0  0  1.026131  0  2.245909  0  0  1.071781  0  2.182203  0  0  0.703963  0.995117  0  2.289105  0
Zn  Zn1  1  0.54807664  0.33452138  0.90960336  1  0  1.198608  0  1.764723  0  0  1.026152  0  2.245795  0  0  1.071807  0  2.182089  0  0  0.703998  0.995146  0  2.28899  0
P  P2  1  0.54609897  0.49394415  0.13190219  1  0  1.42754  0  4.927092  0  0  1.24307  0  5.421358  0  0  1.293227  0  5.385871  0  0  0.28369  1.207763  0  5.445761  0
P  P3  1  0.04610136  0.50605121  0.86809956  1  0  1.427378  0  4.927363  0  0  1.242872  0  5.421655  0  0  1.293046  0  5.386175  0  0  0.283689  1.207549  0  5.446074  0
H  H4  1  0.39473507  0.10557126  0.12476301  1  0  0.088803  0  0.916347  0  0  0.093811  0  0.982892  0  0  0.096248  0  0.981794  0  0  0.120317  0.091793  0  0.984144  0
H  H5  1  0.89475056  0.89442126  0.87524304  1  0  0.088799  0  0.916293  0  0  0.093821  0  0.982876  0  0  0.096269  0  0.981764  0  0  0.120273  0.091802  0  0.984126  0
H  H6  1  0.06048492  0.38648550  0.45119896  1  0  0.089936  0  0.972002  0  0  0.100712  0  1.034704  0  0  0.102816  0  1.034914  0  0  0.095373  0.099463  0  1.033986  0
H  H7  1  0.56048810  0.61352413  0.54880592  1  0  0.089994  0  0.972031  0  0  0.100832  0  1.034663  0  0  0.102937  0  1.034872  0  0  0.095395  0.099578  0  1.033945  0
H  H8  1  0.56779179  0.95838253  0.23942829  1  0  0.116752  0  0.964761  0  0  0.124638  0  1.028029  0  0  0.128126  0  1.025085  0  0  0.116077  0.121947  0  1.030467  0
H  H9  1  0.06782302  0.04161499  0.76057010  1  0  0.116713  0  0.96484  0  0  0.124614  0  1.028095  0  0  0.128102  0  1.025151  0  0  0.116084  0.121924  0  1.030534  0
H  H10  1  0.80758294  0.96622936  0.39983600  1  0  0.280203  0  0.921322  0  0  0.266341  0  0.980364  0  0  0.271519  0  0.97872  0  0  0.308706  0.262761  0  0.981431  0
H  H11  1  0.30759788  0.03376885  0.60015902  1  0  0.280372  0  0.921096  0  0  0.26647  0  0.980203  0  0  0.271651  0  0.978556  0  0  0.308725  0.262883  0  0.981274  0
H  H12  1  0.14679203  0.17190522  0.00128127  1  0  0.345412  0  0.868011  0  0  0.321965  0  0.936141  0  0  0.330558  0  0.92902  0  0  0.312563  0.315808  0  0.941364  0
H  H13  1  0.64679180  0.82809325  0.99872092  1  0  0.345396  0  0.868046  0  0  0.321936  0  0.936208  0  0  0.330526  0  0.929094  0  0  0.312547  0.315775  0  0.941437  0
H  H14  1  0.16849765  0.31452835  0.25284301  1  0  0.091395  0  0.928479  0  0  0.109807  0  0.987675  0  0  0.110671  0  0.987579  0  0  0.101318  0.109139  0  0.987828  0
H  H15  1  0.66852979  0.68546790  0.74715675  1  0  0.091472  0  0.928449  0  0  0.109823  0  0.987702  0  0  0.110688  0  0.987607  0  0  0.101329  0.109159  0  0.987846  0
H  H16  1  0.94554709  0.17792630  0.27155655  1  0  0.084635  0  0.946985  0  0  0.097563  0  1.014958  0  0  0.098719  0  1.015232  0  0  0.093946  0.096564  0  1.014927  0
H  H17  1  0.44557247  0.82207164  0.72844581  1  0  0.084767  0  0.947096  0  0  0.09774  0  1.01498  0  0  0.098898  0  1.015248  0  0  0.093979  0.096741  0  1.014945  0
H  H18  1  0.14885404  0.32320374  0.09163376  1  0  0.32584  0  0.894882  0  0  0.30556  0  0.958664  0  0  0.31289  0  0.953522  0  0  0.308824  0.300828  0  0.962185  0
H  H19  1  0.64885599  0.67679254  0.90836745  1  0  0.3258  0  0.89491  0  0  0.305507  0  0.958704  0  0  0.31284  0  0.953559  0  0  0.308786  0.300778  0  0.962213  0
H  H20  1  0.56011016  0.34143222  0.69612423  1  0  0.082552  0  0.98457  0  0  0.092325  0  1.05106  0  0  0.095479  0  1.048773  0  0  0.088877  0.090023  0  1.052666  0
H  H21  1  0.06008385  0.65856972  0.30387176  1  0  0.082586  0  0.984585  0  0  0.092345  0  1.051074  0  0  0.095499  0  1.048787  0  0  0.088879  0.090044  0  1.052685  0
H  H22  1  0.63603797  0.46062656  0.22239301  1  0  -0.140412  0  0.887098  0  0  -0.102512  0  0.961283  0  0  -0.107205  0  0.958465  0  0  0.094256  -0.099192  0  0.963269  0
H  H23  1  0.13604260  0.53936974  0.77760819  1  0  -0.140375  0  0.887074  0  0  -0.102491  0  0.961291  0  0  -0.107216  0  0.958504  0  0  0.094232  -0.099169  0  0.963276  0
H  H24  1  0.88223836  0.22007845  0.07246735  1  0  0.343832  0  0.856833  0  0  0.323008  0  0.918535  0  0  0.330962  0  0.91207  0  0  0.315299  0.317078  0  0.923711  0
H  H25  1  0.38224335  0.77992512  0.92753125  1  0  0.343829  0  0.856869  0  0  0.322998  0  0.918565  0  0  0.330953  0  0.912097  0  0  0.315315  0.317069  0  0.923736  0
H  H26  1  0.80336901  0.13704179  0.59442225  1  0  0.106328  0  0.991255  0  0  0.111881  0  1.059307  0  0  0.114518  0  1.059141  0  0  0.09824  0.110167  0  1.059232  0
H  H27  1  0.30336125  0.86295973  0.40557023  1  0  0.106256  0  0.991122  0  0  0.111803  0  1.05921  0  0  0.11444  0  1.059044  0  0  0.098228  0.11009  0  1.05913  0
H  H28  1  0.18872253  0.46201509  0.62500456  1  0  0.078311  0  0.973267  0  0  0.088136  0  1.037289  0  0  0.090773  0  1.036517  0  0  0.089086  0.086303  0  1.037863  0
H  H29  1  0.68870245  0.53799212  0.37499941  1  0  0.078297  0  0.97324  0  0  0.088131  0  1.037252  0  0  0.090778  0  1.03647  0  0  0.089072  0.086296  0  1.03783  0
C  C30  1  0.05009181  0.97192078  0.11643033  1  0  0.653119  0  3.850817  0  0  0.59989  0  4.15716  0  0  0.633348  0  4.15041  0  0  0.217411  0.577253  0  4.160655  0
C  C31  1  0.55012004  0.02807787  0.88357036  1  0  0.652913  0  3.851033  0  0  0.599768  0  4.157281  0  0  0.63323  0  4.150531  0  0  0.217316  0.57713  0  4.160778  0
C  C32  1  0.18683577  0.12099598  0.14111547  1  0  0.065372  0  3.518874  0  0  0.044931  0  3.76075  0  0  0.043633  0  3.772081  0  0  0.012162  0.046  0  3.752874  0
C  C33  1  0.68685348  0.87900242  0.85888675  1  0  0.065557  0  3.518828  0  0  0.044939  0  3.760897  0  0  0.043634  0  3.772229  0  0  0.012262  0.046006  0  3.753019  0
C  C34  1  0.14776043  0.19464787  0.24906075  1  0  -0.155124  0  3.68751  0  0  -0.201511  0  3.935898  0  0  -0.201688  0  3.948799  0  0  -0.15242  -0.201374  0  3.927392  0
C  C35  1  0.64778354  0.80535391  0.75094256  1  0  -0.155549  0  3.687768  0  0  -0.201849  0  3.936169  0  0  -0.202026  0  3.94908  0  0  -0.152515  -0.201714  0  3.927663  0
C  C36  1  0.33596883  0.14670023  0.32037520  1  0  -0.047001  0  3.802634  0  0  -0.036551  0  4.06597  0  0  -0.04134  0  4.092493  0  0  -0.048444  -0.033666  0  4.048191  0
C  C37  1  0.83598611  0.85330011  0.67962300  1  0  -0.046838  0  3.802614  0  0  -0.036445  0  4.06601  0  0  -0.041236  0  4.09254  0  0  -0.048529  -0.033567  0  4.048246  0
C  C38  1  0.35734510  0.21601965  0.42214280  1  0  -0.052101  0  3.833361  0  0  -0.040113  0  4.068757  0  0  -0.042697  0  4.094286  0  0  -0.030284  -0.038211  0  4.051386  0
C  C39  1  0.85735798  0.78398615  0.57785968  1  0  -0.052212  0  3.83348  0  0  -0.040197  0  4.068902  0  0  -0.042781  0  4.094432  0  0  -0.030276  -0.038301  0  4.051535  0
C  C40  1  0.22123794  0.33091433  0.48103326  1  0  -0.092034  0  3.765954  0  0  -0.10965  0  4.011031  0  0  -0.109819  0  4.031611  0  0  -0.096426  -0.109078  0  3.996336  0
C  C41  1  0.72123299  0.66909171  0.51896914  1  0  -0.092169  0  3.765642  0  0  -0.109855  0  4.010738  0  0  -0.110029  0  4.031322  0  0  -0.09646  -0.109271  0  3.996034  0
C  C42  1  0.29456099  0.37308111  0.57916021  1  0  -0.104318  0  3.828542  0  0  -0.118509  0  4.084926  0  0  -0.122336  0  4.107903  0  0  -0.110707  -0.116174  0  4.069247  0
C  C43  1  0.79455521  0.62692372  0.42083847  1  0  -0.10425  0  3.828339  0  0  -0.118437  0  4.084744  0  0  -0.122275  0  4.107721  0  0  -0.110682  -0.116106  0  4.06907  0
C  C44  1  0.50237294  0.30354815  0.61970571  1  0  -0.088765  0  3.811041  0  0  -0.104228  0  4.062881  0  0  -0.105377  0  4.083918  0  0  -0.110522  -0.103005  0  4.048329  0
C  C45  1  0.00236125  0.69645500  0.38029183  1  0  -0.08888  0  3.811179  0  0  -0.104339  0  4.063027  0  0  -0.10549  0  4.084067  0  0  -0.110511  -0.103123  0  4.048488  0
C  C46  1  0.64064616  0.18881178  0.56322214  1  0  -0.184737  0  3.788286  0  0  -0.196698  0  4.037925  0  0  -0.199534  0  4.056444  0  0  -0.107517  -0.194973  0  4.025126  0
C  C47  1  0.14063289  0.81118892  0.43677377  1  0  -0.18453  0  3.788092  0  0  -0.19649  0  4.03773  0  0  -0.199324  0  4.056247  0  0  -0.107565  -0.194761  0  4.024925  0
C  C48  1  0.56546982  0.14549290  0.46458421  1  0  0.174297  0  3.806643  0  0  0.163476  0  4.05609  0  0  0.169495  0  4.076564  0  0  0.085581  0.159393  0  4.04238  0
C  C49  1  0.06546902  0.85450794  0.53541165  1  0  0.174417  0  3.806678  0  0  0.163585  0  4.05609  0  0  0.169605  0  4.076564  0  0  0.085685  0.159505  0  4.04237  0
C  C50  1  0.52444981  0.03829407  0.30500509  1  0  -0.0205  0  3.701354  0  0  -0.065093  0  3.972366  0  0  -0.058708  0  3.986938  0  0  -0.003674  -0.069227  0  3.962634  0
C  C51  1  0.02447398  0.96170574  0.69499208  1  0  -0.020449  0  3.701434  0  0  -0.065053  0  3.972443  0  0  -0.058669  0  3.98702  0  0  -0.003678  -0.069187  0  3.96271  0
N  N52  1  0.08321620  0.21536006  0.07255369  1  0  -0.518996  0  3.226367  0  0  -0.476577  0  3.432418  0  0  -0.491274  0  3.430278  0  0  -0.619318  -0.467167  0  3.434547  0
N  N53  1  0.58322080  0.78463963  0.92744641  1  0  -0.518976  0  3.22633  0  0  -0.47649  0  3.432415  0  0  -0.491189  0  3.430279  0  0  -0.619304  -0.467083  0  3.434538  0
N  N54  1  0.66211000  0.03799619  0.39145044  1  0  -0.325204  0  3.463713  0  0  -0.264801  0  3.699945  0  0  -0.28132  0  3.716304  0  0  -0.401237  -0.253797  0  3.688749  0
N  N55  1  0.16211729  0.96200558  0.60854633  1  0  -0.325478  0  3.463743  0  0  -0.265052  0  3.699964  0  0  -0.281569  0  3.716308  0  0  -0.40126  -0.254039  0  3.688768  0
O  O56  1  0.18055913  0.86294837  0.13786601  1  0  -0.640359  0  2.047763  0  0  -0.563178  0  2.317374  0  0  -0.592431  0  2.302369  0  0  -0.316914  -0.542819  0  2.326283  0
O  O57  1  0.68058250  0.13704894  0.86213607  1  0  -0.640286  0  2.048041  0  0  -0.563076  0  2.317572  0  0  -0.59233  0  2.302567  0  0  -0.316822  -0.54271  0  2.32648  0
O  O58  1  0.67898765  0.63453038  0.11266771  1  0  -0.843398  0  2.048261  0  0  -0.74784  0  2.355102  0  0  -0.775171  0  2.327862  0  0  -0.379765  -0.728957  0  2.374126  0
O  O59  1  0.17898940  0.36546804  0.88733450  1  0  -0.843387  0  2.048397  0  0  -0.747805  0  2.355229  0  0  -0.775132  0  2.327983  0  0  -0.379782  -0.728919  0  2.374258  0
O  O60  1  0.60935866  0.35554422  0.05521004  1  0  -0.869014  0  2.055821  0  0  -0.768803  0  2.351133  0  0  -0.796377  0  2.325969  0  0  -0.38275  -0.749459  0  2.36875  0
O  O61  1  0.10936103  0.64445323  0.94479055  1  0  -0.868993  0  2.055798  0  0  -0.768767  0  2.351097  0  0  -0.796337  0  2.325922  0  0  -0.382789  -0.749414  0  2.368709  0
O  O62  1  0.24836349  0.51389294  0.14315244  1  0  -0.857425  0  2.056022  0  0  -0.756811  0  2.349502  0  0  -0.785623  0  2.32428  0  0  -0.37754  -0.736584  0  2.365606  0
O  O63  1  0.74836971  0.48610645  0.85685067  1  0  -0.857339  0  2.056087  0  0  -0.756693  0  2.349536  0  0  -0.785504  0  2.324307  0  0  -0.377498  -0.736463  0  2.365643  0
O  O64  1  0.82725733  0.96727444  0.07916804  1  0  -0.613505  0  1.962647  0  0  -0.560363  0  2.192814  0  0  -0.583852  0  2.183667  0  0  -0.308161  -0.543708  0  2.198771  0
O  O65  1  0.32727004  0.03272702  0.92083319  1  0  -0.613432  0  1.962454  0  0  -0.5603  0  2.192542  0  0  -0.583807  0  2.183411  0  0  -0.308133  -0.543657  0  2.198508  0
