# generated using pymatgen
data_DyH6C6(NO4)2
_symmetry_space_group_name_H-M   'P 1'
_cell_length_a   7.75312665
_cell_length_b   8.43975943
_cell_length_c   17.27703126
_cell_angle_alpha   89.99964143
_cell_angle_beta   89.99996675
_cell_angle_gamma   107.59764293
_symmetry_Int_Tables_number   1
_chemical_formula_structural   DyH6C6(NO4)2
_chemical_formula_sum   'Dy4 H24 C24 N8 O32'
_cell_volume   1077.60975444
_cell_formula_units_Z   4
loop_
 _symmetry_equiv_pos_site_id
 _symmetry_equiv_pos_as_xyz
  1  'x, y, z'
loop_
 _atom_site_type_symbol
 _atom_site_label
 _atom_site_symmetry_multiplicity
 _atom_site_fract_x
 _atom_site_fract_y
 _atom_site_fract_z
 _atom_site_occupancy
 _atom_site_hle17_bader_spin_density
 _atom_site_hle17_ddec_charge
 _atom_site_hle17_ddec_spin_density
 _atom_site_hle17_ddec_sum_bond_order
 _atom_site_hle17_magmom
 _atom_site_hse06_10hf_bader_spin_density
 _atom_site_hse06_10hf_ddec_charge
 _atom_site_hse06_10hf_ddec_spin_density
 _atom_site_hse06_10hf_ddec_sum_bond_order
 _atom_site_hse06_10hf_magmom
 _atom_site_hse06_bader_spin_density
 _atom_site_hse06_ddec_charge
 _atom_site_hse06_ddec_spin_density
 _atom_site_hse06_ddec_sum_bond_order
 _atom_site_hse06_magmom
 _atom_site_pbe_bader_spin_density
 _atom_site_pbe_cm5_charge
 _atom_site_pbe_ddec_charge
 _atom_site_pbe_ddec_spin_density
 _atom_site_pbe_ddec_sum_bond_order
 _atom_site_pbe_magmom
Dy  Dy0  1  0.25688818  0.23625552  0.47666599  1  0  2.285542  0  1.626385  0  0  2.136613  0  2.103789  0  0  2.263385  0  1.911847  0  0  1.502028  2.10138  0  2.134931  0
Dy  Dy1  1  0.24311510  0.76374568  0.97666659  1  0  2.285521  0  1.626619  0  0  2.136667  0  2.103942  0  0  2.263361  0  1.912098  0  0  1.501991  2.101441  0  2.135096  0
Dy  Dy2  1  0.74310544  0.76374601  0.52333401  1  0  2.285545  0  1.62658  0  0  2.136599  0  2.104008  0  0  2.263374  0  1.912044  0  0  1.502025  2.101359  0  2.135177  0
Dy  Dy3  1  0.75689177  0.23626079  0.02333514  1  0  2.285543  0  1.626367  0  0  2.136637  0  2.103743  0  0  2.263389  0  1.911824  0  0  1.501997  2.10138  0  2.134897  0
H  H4  1  0.36486526  0.39822542  0.22888705  1  0  0.306305  0  0.838374  0  0  0.293385  0  0.886722  0  0  0.301118  0  0.88012  0  0  0.3553  0.287883  0  0.891438  0
H  H5  1  0.13513307  0.60177938  0.72888470  1  0  0.306296  0  0.838328  0  0  0.293395  0  0.886665  0  0  0.301128  0  0.880061  0  0  0.35526  0.287896  0  0.891383  0
H  H6  1  0.63513144  0.60176987  0.77111122  1  0  0.30623  0  0.838383  0  0  0.293193  0  0.886884  0  0  0.300923  0  0.880292  0  0  0.355253  0.287698  0  0.891595  0
H  H7  1  0.86486515  0.39823209  0.27111414  1  0  0.306213  0  0.838479  0  0  0.293181  0  0.88695  0  0  0.300916  0  0.880357  0  0  0.355248  0.287681  0  0.891658  0
H  H8  1  0.65315414  0.89132138  0.28880743  1  0  0.147312  0  0.929295  0  0  0.157144  0  0.985797  0  0  0.16139  0  0.982803  0  0  0.12091  0.154143  0  0.987836  0
H  H9  1  0.84685398  0.10867655  0.78881464  1  0  0.147323  0  0.929206  0  0  0.157147  0  0.98573  0  0  0.161394  0  0.982734  0  0  0.120895  0.154145  0  0.987773  0
H  H10  1  0.34686142  0.10867634  0.71118216  1  0  0.14736  0  0.92915  0  0  0.157181  0  0.985668  0  0  0.161425  0  0.982674  0  0  0.120891  0.154175  0  0.987712  0
H  H11  1  0.15313908  0.89133494  0.21118710  1  0  0.147381  0  0.929116  0  0  0.157177  0  0.985666  0  0  0.161424  0  0.982669  0  0  0.120888  0.154173  0  0.987704  0
H  H12  1  0.02352649  0.17501687  0.34898735  1  0  0.414358  0  0.847485  0  0  0.397143  0  0.903775  0  0  0.40564  0  0.894375  0  0  0.315266  0.39102  0  0.910943  0
H  H13  1  0.47647015  0.82496006  0.84898886  1  0  0.414435  0  0.847489  0  0  0.397212  0  0.903771  0  0  0.405708  0  0.8943  0  0  0.315345  0.391093  0  0.910941  0
H  H14  1  0.97645866  0.82497473  0.65101265  1  0  0.414392  0  0.847501  0  0  0.397204  0  0.903732  0  0  0.405705  0  0.894296  0  0  0.315309  0.391082  0  0.910907  0
H  H15  1  0.52353230  0.17502153  0.15100940  1  0  0.4144  0  0.847503  0  0  0.397192  0  0.903778  0  0  0.405692  0  0.894318  0  0  0.31531  0.391064  0  0.910956  0
H  H16  1  0.88245490  0.15548272  0.41636169  1  0  0.436678  0  0.862782  0  0  0.405144  0  0.926944  0  0  0.417455  0  0.909095  0  0  0.296742  0.396521  0  0.939578  0
H  H17  1  0.61755416  0.84451460  0.91635918  1  0  0.436731  0  0.862707  0  0  0.405162  0  0.926928  0  0  0.417475  0  0.909076  0  0  0.296746  0.396538  0  0.939566  0
H  H18  1  0.11754056  0.84450885  0.58364526  1  0  0.436635  0  0.862816  0  0  0.405066  0  0.927056  0  0  0.417383  0  0.909194  0  0  0.296646  0.396442  0  0.939691  0
H  H19  1  0.38245404  0.15548813  0.08363734  1  0  0.436688  0  0.862762  0  0  0.405158  0  0.926914  0  0  0.41747  0  0.909065  0  0  0.296774  0.396537  0  0.939547  0
H  H20  1  0.29015786  0.59547422  0.51829817  1  0  0.440519  0  0.846883  0  0  0.412441  0  0.905023  0  0  0.422645  0  0.89032  0  0  0.308157  0.405247  0  0.915628  0
H  H21  1  0.20983208  0.40451625  0.01829474  1  0  0.440485  0  0.846952  0  0  0.412393  0  0.905114  0  0  0.4226  0  0.890408  0  0  0.308127  0.405197  0  0.915723  0
H  H22  1  0.70985255  0.40452352  0.48170878  1  0  0.440509  0  0.846894  0  0  0.412416  0  0.905057  0  0  0.42262  0  0.890354  0  0  0.308116  0.405218  0  0.91567  0
H  H23  1  0.79015432  0.59547908  0.98169773  1  0  0.440478  0  0.846942  0  0  0.412397  0  0.905086  0  0  0.422602  0  0.890382  0  0  0.308166  0.4052  0  0.915696  0
H  H24  1  0.12846929  0.47016806  0.56240144  1  0  0.409635  0  0.900156  0  0  0.369762  0  0.979992  0  0  0.380944  0  0.963864  0  0  0.295372  0.361739  0  0.991727  0
H  H25  1  0.37152157  0.52982923  0.06239701  1  0  0.409777  0  0.899974  0  0  0.369917  0  0.979788  0  0  0.381099  0  0.963659  0  0  0.295443  0.361897  0  0.991517  0
H  H26  1  0.87153500  0.52983841  0.43760493  1  0  0.409765  0  0.899976  0  0  0.369875  0  0.979833  0  0  0.381061  0  0.9637  0  0  0.295423  0.361857  0  0.991557  0
H  H27  1  0.62847812  0.47016730  0.93759315  1  0  0.409547  0  0.900252  0  0  0.369686  0  0.980073  0  0  0.380868  0  0.963946  0  0  0.295345  0.361663  0  0.991805  0
C  C28  1  0.48094845  0.55819167  0.36782790  1  0  0.717347  0  3.914427  0  0  0.671853  0  4.205963  0  0  0.709214  0  4.195523  0  0  0.240295  0.646893  0  4.215199  0
C  C29  1  0.01905084  0.44180489  0.86783245  1  0  0.717555  0  3.914225  0  0  0.672066  0  4.205704  0  0  0.709425  0  4.195262  0  0  0.240443  0.647109  0  4.214941  0
C  C30  1  0.51903583  0.44180118  0.63216805  1  0  0.717271  0  3.914544  0  0  0.671763  0  4.20607  0  0  0.709124  0  4.195631  0  0  0.240257  0.646801  0  4.215328  0
C  C31  1  0.98095000  0.55820283  0.13217219  1  0  0.717249  0  3.914802  0  0  0.671936  0  4.205954  0  0  0.709296  0  4.195514  0  0  0.240385  0.64696  0  4.215219  0
C  C32  1  0.50337142  0.62241596  0.28786209  1  0  0.039564  0  3.71683  0  0  0.025405  0  3.984902  0  0  0.024886  0  4.00085  0  0  0.091083  0.026122  0  3.972761  0
C  C33  1  0.99663533  0.37758945  0.78786439  1  0  0.039376  0  3.716925  0  0  0.025285  0  3.984923  0  0  0.024766  0  4.000871  0  0  0.091056  0.025995  0  3.97279  0
C  C34  1  0.49662141  0.37757935  0.71213559  1  0  0.039628  0  3.716918  0  0  0.025551  0  3.984886  0  0  0.025034  0  4.000831  0  0  0.091148  0.02626  0  3.972761  0
C  C35  1  0.00337011  0.62242822  0.21213850  1  0  0.039651  0  3.717018  0  0  0.025602  0  3.984775  0  0  0.025087  0  4.000723  0  0  0.091204  0.026318  0  3.97264  0
C  C36  1  0.58292028  0.77982317  0.25710714  1  0  -0.172281  0  3.670414  0  0  -0.212157  0  3.936158  0  0  -0.214818  0  3.953697  0  0  -0.08757  -0.210081  0  3.923498  0
C  C37  1  0.91707810  0.22018023  0.75711110  1  0  -0.172206  0  3.670289  0  0  -0.212109  0  3.936009  0  0  -0.214769  0  3.953549  0  0  -0.087552  -0.21002  0  3.923335  0
C  C38  1  0.41707421  0.22017711  0.74289171  1  0  -0.172298  0  3.670514  0  0  -0.212195  0  3.936213  0  0  -0.214855  0  3.953753  0  0  -0.087525  -0.210111  0  3.923553  0
C  C39  1  0.08292057  0.77982875  0.24289354  1  0  -0.172291  0  3.670616  0  0  -0.212208  0  3.936298  0  0  -0.21487  0  3.953836  0  0  -0.087584  -0.210129  0  3.923637  0
C  C40  1  0.54562710  0.76186821  0.17715246  1  0  0.021745  0  3.756015  0  0  0.022612  0  4.019979  0  0  0.019779  0  4.036568  0  0  0.08956  0.024799  0  4.007543  0
C  C41  1  0.95437227  0.23813013  0.67715578  1  0  0.021778  0  3.755769  0  0  0.022657  0  4.019705  0  0  0.019831  0  4.036297  0  0  0.089605  0.024841  0  4.007279  0
C  C42  1  0.45437480  0.23812334  0.82284465  1  0  0.021639  0  3.755862  0  0  0.022542  0  4.019765  0  0  0.019713  0  4.036351  0  0  0.089521  0.024724  0  4.007327  0
C  C43  1  0.04562940  0.76188009  0.32284654  1  0  0.021478  0  3.756156  0  0  0.022354  0  4.020069  0  0  0.019525  0  4.03665  0  0  0.089469  0.024535  0  4.007634  0
C  C44  1  0.58183992  0.88914163  0.11532914  1  0  0.698528  0  3.908657  0  0  0.65354  0  4.197122  0  0  0.689701  0  4.189446  0  0  0.231843  0.629217  0  4.205272  0
C  C45  1  0.91816069  0.11085636  0.61532880  1  0  0.698382  0  3.908652  0  0  0.653374  0  4.197149  0  0  0.689526  0  4.189494  0  0  0.231803  0.629053  0  4.20531  0
C  C46  1  0.41816497  0.11085115  0.88467260  1  0  0.698576  0  3.908504  0  0  0.653563  0  4.196983  0  0  0.689734  0  4.189291  0  0  0.231942  0.629239  0  4.205144  0
C  C47  1  0.08183881  0.88915511  0.38466599  1  0  0.698517  0  3.908485  0  0  0.65354  0  4.196923  0  0  0.689712  0  4.189228  0  0  0.231808  0.629229  0  4.20506  0
C  C48  1  0.42708772  0.94109804  0.52599686  1  0  0.583948  0  3.880145  0  0  0.538233  0  4.174693  0  0  0.568659  0  4.171022  0  0  0.227607  0.51758  0  4.180654  0
C  C49  1  0.07291059  0.05890598  0.02599337  1  0  0.583898  0  3.88035  0  0  0.538176  0  4.174993  0  0  0.568599  0  4.171316  0  0  0.227531  0.51752  0  4.180947  0
C  C50  1  0.57291271  0.05890845  0.47401125  1  0  0.583963  0  3.880498  0  0  0.538257  0  4.175046  0  0  0.568683  0  4.171373  0  0  0.227607  0.517591  0  4.181021  0
C  C51  1  0.92709807  0.94109425  0.97400895  1  0  0.584125  0  3.880344  0  0  0.538311  0  4.175083  0  0  0.568734  0  4.171408  0  0  0.227658  0.51766  0  4.181041  0
N  N52  1  0.42905740  0.52243619  0.22669897  1  0  -0.134346  0  3.492624  0  0  -0.086644  0  3.742141  0  0  -0.095999  0  3.756728  0  0  -0.251763  -0.080185  0  3.731526  0
N  N53  1  0.07094314  0.47756366  0.72669934  1  0  -0.134281  0  3.492645  0  0  -0.086643  0  3.74214  0  0  -0.095992  0  3.756731  0  0  -0.251741  -0.080186  0  3.731534  0
N  N54  1  0.57094063  0.47755537  0.77329814  1  0  -0.134204  0  3.492481  0  0  -0.086497  0  3.742093  0  0  -0.095846  0  3.756681  0  0  -0.251779  -0.080052  0  3.731492  0
N  N55  1  0.92905594  0.52244656  0.27330182  1  0  -0.134305  0  3.4926  0  0  -0.086584  0  3.742125  0  0  -0.095943  0  3.756714  0  0  -0.251816  -0.080125  0  3.731518  0
N  N56  1  0.45179548  0.60299803  0.15959530  1  0  -0.169231  0  2.974323  0  0  -0.151493  0  3.240394  0  0  -0.15439  0  3.252987  0  0  -0.183826  -0.148998  0  3.231486  0
N  N57  1  0.04820980  0.39700029  0.65959592  1  0  -0.16924  0  2.974139  0  0  -0.151478  0  3.240192  0  0  -0.154384  0  3.252793  0  0  -0.183827  -0.148981  0  3.23129  0
N  N58  1  0.54820987  0.39699226  0.84040180  1  0  -0.169283  0  2.974021  0  0  -0.151469  0  3.240011  0  0  -0.15438  0  3.252615  0  0  -0.183832  -0.148953  0  3.231088  0
N  N59  1  0.95180217  0.60300989  0.34040581  1  0  -0.169026  0  2.973998  0  0  -0.151248  0  3.239977  0  0  -0.154154  0  3.252577  0  0  -0.183732  -0.148752  0  3.231065  0
O  O60  1  0.38465122  0.40745637  0.37575485  1  0  -0.718563  0  2.004847  0  0  -0.672189  0  2.258606  0  0  -0.70726  0  2.239092  0  0  -0.406589  -0.65544  0  2.268336  0
O  O61  1  0.11534314  0.59255254  0.87575544  1  0  -0.718655  0  2.004552  0  0  -0.672293  0  2.25829  0  0  -0.707354  0  2.238781  0  0  -0.406672  -0.655545  0  2.268027  0
O  O62  1  0.61532606  0.59254646  0.62423820  1  0  -0.718542  0  2.004748  0  0  -0.672139  0  2.258474  0  0  -0.707215  0  2.23896  0  0  -0.406592  -0.655388  0  2.26822  0
O  O63  1  0.88467307  0.40746260  0.12424167  1  0  -0.718518  0  2.005132  0  0  -0.672224  0  2.258788  0  0  -0.707292  0  2.239275  0  0  -0.406616  -0.655468  0  2.268532  0
O  O64  1  0.55508059  0.65635022  0.42171952  1  0  -0.755074  0  2.113091  0  0  -0.705502  0  2.377601  0  0  -0.743872  0  2.361974  0  0  -0.402048  -0.687429  0  2.385501  0
O  O65  1  0.94493101  0.34364701  0.92172136  1  0  -0.755165  0  2.113218  0  0  -0.705597  0  2.377719  0  0  -0.743972  0  2.362112  0  0  -0.402093  -0.687521  0  2.385617  0
O  O66  1  0.44490415  0.34364014  0.57828221  1  0  -0.755096  0  2.113357  0  0  -0.70553  0  2.377885  0  0  -0.743896  0  2.362252  0  0  -0.402056  -0.687456  0  2.385796  0
O  O67  1  0.05509241  0.65637433  0.07828559  1  0  -0.755154  0  2.113204  0  0  -0.705635  0  2.377541  0  0  -0.743999  0  2.361931  0  0  -0.402106  -0.687555  0  2.385447  0
O  O68  1  0.70351808  0.02741436  0.12600068  1  0  -0.716523  0  1.969153  0  0  -0.669759  0  2.20158  0  0  -0.702205  0  2.185496  0  0  -0.375263  -0.653311  0  2.2099  0
O  O69  1  0.79647823  0.97257850  0.62600816  1  0  -0.716474  0  1.969044  0  0  -0.66973  0  2.201501  0  0  -0.702176  0  2.185418  0  0  -0.375255  -0.653282  0  2.209828  0
O  O70  1  0.29648340  0.97257594  0.87399527  1  0  -0.716467  0  1.968988  0  0  -0.669727  0  2.201432  0  0  -0.702167  0  2.185342  0  0  -0.375307  -0.653286  0  2.209765  0
O  O71  1  0.20351925  0.02742301  0.37399300  1  0  -0.716463  0  1.969188  0  0  -0.669735  0  2.201622  0  0  -0.702184  0  2.185528  0  0  -0.375248  -0.653296  0  2.20994  0
O  O72  1  0.48458926  0.85399598  0.05477193  1  0  -0.761973  0  2.138061  0  0  -0.709657  0  2.40271  0  0  -0.749777  0  2.389766  0  0  -0.418389  -0.691577  0  2.410691  0
O  O73  1  0.01539972  0.14598402  0.55477217  1  0  -0.761885  0  2.138271  0  0  -0.709506  0  2.402819  0  0  -0.749631  0  2.389882  0  0  -0.418323  -0.691425  0  2.410806  0
O  O74  1  0.51540202  0.14598690  0.94522923  1  0  -0.761998  0  2.138214  0  0  -0.709618  0  2.402767  0  0  -0.749746  0  2.389815  0  0  -0.418368  -0.691529  0  2.410747  0
O  O75  1  0.98457963  0.85402503  0.44522262  1  0  -0.76204  0  2.137979  0  0  -0.709592  0  2.402339  0  0  -0.749728  0  2.389389  0  0  -0.418346  -0.691518  0  2.410314  0
O  O76  1  0.29075745  0.98862352  0.54189653  1  0  -0.663191  0  2.13379  0  0  -0.606759  0  2.368746  0  0  -0.640711  0  2.358099  0  0  -0.337973  -0.588882  0  2.374254  0
O  O77  1  0.20925194  0.01137899  0.04189141  1  0  -0.663242  0  2.133809  0  0  -0.60681  0  2.368757  0  0  -0.640748  0  2.358111  0  0  -0.337943  -0.58894  0  2.374272  0
O  O78  1  0.70924914  0.01137050  0.45810290  1  0  -0.66322  0  2.133611  0  0  -0.60679  0  2.368536  0  0  -0.64074  0  2.357887  0  0  -0.337921  -0.588908  0  2.374053  0
O  O79  1  0.79075944  0.98861003  0.95810280  1  0  -0.663157  0  2.133761  0  0  -0.6067  0  2.368763  0  0  -0.640644  0  2.358123  0  0  -0.337887  -0.588823  0  2.374271  0
O  O80  1  0.45349353  0.80782901  0.54830413  1  0  -0.653574  0  2.073998  0  0  -0.602886  0  2.310759  0  0  -0.634428  0  2.297396  0  0  -0.353765  -0.586758  0  2.317736  0
O  O81  1  0.04650782  0.19216099  0.04830430  1  0  -0.653473  0  2.074194  0  0  -0.602767  0  2.310956  0  0  -0.634305  0  2.297598  0  0  -0.353664  -0.586642  0  2.317929  0
O  O82  1  0.54651693  0.19216500  0.45170629  1  0  -0.653487  0  2.074585  0  0  -0.602805  0  2.311346  0  0  -0.634343  0  2.297986  0  0  -0.35372  -0.586675  0  2.318324  0
O  O83  1  0.95351078  0.80783423  0.95170381  1  0  -0.653686  0  2.074217  0  0  -0.602957  0  2.311026  0  0  -0.634489  0  2.297665  0  0  -0.353823  -0.586837  0  2.31801  0
O  O84  1  0.99441276  0.23473409  0.39296459  1  0  -0.861153  0  1.823244  0  0  -0.81935  0  2.007104  0  0  -0.845702  0  1.973251  0  0  -0.617154  -0.80655  0  2.02672  0
O  O85  1  0.50558664  0.76525738  0.89297046  1  0  -0.861296  0  1.823243  0  0  -0.819468  0  2.007194  0  0  -0.845804  0  1.973249  0  0  -0.617228  -0.806666  0  2.026813  0
O  O86  1  0.00557795  0.76525874  0.60703715  1  0  -0.861153  0  1.823298  0  0  -0.819366  0  2.007109  0  0  -0.845706  0  1.973179  0  0  -0.617087  -0.806563  0  2.026733  0
O  O87  1  0.49442124  0.23473663  0.10703069  1  0  -0.861219  0  1.823311  0  0  -0.819418  0  2.007157  0  0  -0.845769  0  1.97324  0  0  -0.617238  -0.806617  0  2.026778  0
O  O88  1  0.19563233  0.48825966  0.51229789  1  0  -0.895581  0  1.900125  0  0  -0.846951  0  2.094439  0  0  -0.875739  0  2.057288  0  0  -0.639884  -0.833396  0  2.116248  0
O  O89  1  0.30436063  0.51173213  0.01229411  1  0  -0.8957  0  1.900092  0  0  -0.84707  0  2.094378  0  0  -0.875815  0  2.057166  0  0  -0.639932  -0.833515  0  2.116179  0
O  O90  1  0.80436593  0.51174807  0.48770616  1  0  -0.895683  0  1.90006  0  0  -0.847031  0  2.094393  0  0  -0.875802  0  2.057205  0  0  -0.639874  -0.833475  0  2.116197  0
O  O91  1  0.69563091  0.48826319  0.98769836  1  0  -0.895424  0  1.900227  0  0  -0.846826  0  2.09455  0  0  -0.875599  0  2.057374  0  0  -0.639885  -0.833271  0  2.116354  0
