# generated using pymatgen
data_CdH28C28(N5O3)2
_symmetry_space_group_name_H-M   'P 1'
_cell_length_a   8.87477281
_cell_length_b   8.84552740
_cell_length_c   10.02091410
_cell_angle_alpha   70.54904662
_cell_angle_beta   84.97036391
_cell_angle_gamma   76.68254809
_symmetry_Int_Tables_number   1
_chemical_formula_structural   CdH28C28(N5O3)2
_chemical_formula_sum   'Cd1 H28 C28 N10 O6'
_cell_volume   721.76646892
_cell_formula_units_Z   1
loop_
 _symmetry_equiv_pos_site_id
 _symmetry_equiv_pos_as_xyz
  1  'x, y, z'
loop_
 _atom_site_type_symbol
 _atom_site_label
 _atom_site_symmetry_multiplicity
 _atom_site_fract_x
 _atom_site_fract_y
 _atom_site_fract_z
 _atom_site_occupancy
 _atom_site_hle17_bader_spin_density
 _atom_site_hle17_ddec_charge
 _atom_site_hle17_ddec_spin_density
 _atom_site_hle17_ddec_sum_bond_order
 _atom_site_hle17_magmom
 _atom_site_hse06_10hf_bader_spin_density
 _atom_site_hse06_10hf_ddec_charge
 _atom_site_hse06_10hf_ddec_spin_density
 _atom_site_hse06_10hf_ddec_sum_bond_order
 _atom_site_hse06_10hf_magmom
 _atom_site_hse06_bader_spin_density
 _atom_site_hse06_ddec_charge
 _atom_site_hse06_ddec_spin_density
 _atom_site_hse06_ddec_sum_bond_order
 _atom_site_hse06_magmom
 _atom_site_pbe_bader_spin_density
 _atom_site_pbe_cm5_charge
 _atom_site_pbe_ddec_charge
 _atom_site_pbe_ddec_spin_density
 _atom_site_pbe_ddec_sum_bond_order
 _atom_site_pbe_magmom
Cd  Cd0  1  0.00000005  0.99999909  0.00000074  1  0  1.052073  0  1.778907  0  0  0.84662  0  2.227823  0  0  0.898462  0  2.184022  0  0  0.7886  0.809015  0  2.258085  0
H  H1  1  0.81711950  0.33458149  0.10257315  1  0  0.102212  0  0.982959  0  0  0.103766  0  1.059609  0  0  0.107379  0  1.054944  0  0  0.12914  0.100957  0  1.063518  0
H  H2  1  0.18288162  0.66541699  0.89742761  1  0  0.102217  0  0.982953  0  0  0.103769  0  1.059603  0  0  0.107382  0  1.054938  0  0  0.129141  0.100961  0  1.063512  0
H  H3  1  0.39396596  0.17525034  0.16765824  1  0  0.119204  0  0.972355  0  0  0.128066  0  1.035538  0  0  0.130276  0  1.035375  0  0  0.119879  0.125791  0  1.037313  0
H  H4  1  0.60603214  0.82475182  0.83234066  1  0  0.119168  0  0.97239  0  0  0.128027  0  1.035579  0  0  0.130238  0  1.035416  0  0  0.119844  0.125751  0  1.037354  0
H  H5  1  0.61921942  0.95839487  0.06758712  1  0  0.103217  0  0.973693  0  0  0.111854  0  1.037743  0  0  0.114363  0  1.036604  0  0  0.11379  0.110528  0  1.037421  0
H  H6  1  0.38077844  0.04160851  0.93240945  1  0  0.103224  0  0.973681  0  0  0.111865  0  1.037729  0  0  0.114374  0  1.036591  0  0  0.113799  0.110545  0  1.037393  0
H  H7  1  0.42876132  0.51806775  0.11754293  1  0  0.087803  0  0.932488  0  0  0.102059  0  0.993293  0  0  0.102684  0  0.993452  0  0  0.112438  0.101596  0  0.993142  0
H  H8  1  0.57124043  0.48193319  0.88245605  1  0  0.087787  0  0.932475  0  0  0.102051  0  0.993287  0  0  0.102675  0  0.993446  0  0  0.112434  0.101587  0  0.993135  0
H  H9  1  0.60706346  0.49959154  0.19409094  1  0  0.098595  0  0.939772  0  0  0.107352  0  1.011425  0  0  0.109396  0  1.009261  0  0  0.116288  0.106157  0  1.012267  0
H  H10  1  0.39293766  0.50040694  0.80590881  1  0  0.098601  0  0.939733  0  0  0.107366  0  1.011392  0  0  0.109409  0  1.009228  0  0  0.116287  0.10617  0  1.012233  0
H  H11  1  0.20935819  0.46144442  0.24598245  1  0  0.102182  0  0.969519  0  0  0.105894  0  1.042472  0  0  0.10985  0  1.039251  0  0  0.100971  0.102815  0  1.045615  0
H  H12  1  0.79064243  0.53855651  0.75401762  1  0  0.102182  0  0.969525  0  0  0.105901  0  1.042476  0  0  0.109857  0  1.039252  0  0  0.100976  0.102821  0  1.045618  0
H  H13  1  0.07120887  0.36961021  0.47313147  1  0  0.094625  0  0.947889  0  0  0.105534  0  1.007909  0  0  0.108158  0  1.007253  0  0  0.10164  0.102863  0  1.009981  0
H  H14  1  0.92879288  0.63039073  0.52686852  1  0  0.094639  0  0.947888  0  0  0.105539  0  1.007917  0  0  0.108163  0  1.007262  0  0  0.101636  0.102861  0  1.009995  0
H  H15  1  0.22188804  0.22846246  0.69739189  1  0  0.093052  0  0.971  0  0  0.100152  0  1.038146  0  0  0.102232  0  1.03795  0  0  0.099364  0.099033  0  1.03783  0
H  H16  1  0.77811243  0.77154461  0.30260739  1  0  0.093098  0  0.971016  0  0  0.100175  0  1.0382  0  0  0.102251  0  1.038006  0  0  0.099371  0.099056  0  1.037884  0
H  H17  1  0.50724767  0.19179243  0.69076256  1  0  0.093556  0  0.962913  0  0  0.104415  0  1.023844  0  0  0.106883  0  1.023856  0  0  0.101065  0.10278  0  1.024098  0
H  H18  1  0.49275280  0.80821465  0.30923772  1  0  0.093581  0  0.962922  0  0  0.104449  0  1.023829  0  0  0.106916  0  1.023839  0  0  0.10107  0.102815  0  1.024082  0
H  H19  1  0.74746292  0.26811593  0.36375641  1  0  0.089536  0  0.943485  0  0  0.102051  0  1.009894  0  0  0.103088  0  1.008961  0  0  0.115876  0.101537  0  1.010406  0
H  H20  1  0.25253869  0.73188010  0.63624603  1  0  0.089517  0  0.943528  0  0  0.102045  0  1.009923  0  0  0.103083  0  1.008989  0  0  0.115877  0.101532  0  1.010435  0
H  H21  1  0.72418308  0.40403306  0.46124447  1  0  0.087684  0  0.948255  0  0  0.101906  0  1.015388  0  0  0.101455  0  1.017994  0  0  0.113491  0.101661  0  1.014837  0
H  H22  1  0.27581993  0.59596174  0.53875722  1  0  0.087659  0  0.948257  0  0  0.101858  0  1.015423  0  0  0.101405  0  1.018032  0  0  0.113463  0.101615  0  1.014871  0
H  H23  1  0.82474054  0.29137424  0.70932263  1  0  0.095953  0  0.980104  0  0  0.101584  0  1.052578  0  0  0.103772  0  1.050159  0  0  0.128361  0.099244  0  1.055675  0
H  H24  1  0.17525593  0.70861930  0.29068090  1  0  0.095938  0  0.980052  0  0  0.101558  0  1.052549  0  0  0.103748  0  1.050127  0  0  0.128355  0.099217  0  1.055647  0
H  H25  1  0.76924449  0.94765792  0.51810340  1  0  0.11623  0  0.971866  0  0  0.128656  0  1.027905  0  0  0.130774  0  1.02825  0  0  0.118856  0.126386  0  1.029221  0
H  H26  1  0.23075665  0.05234057  0.48189436  1  0  0.116277  0  0.971852  0  0  0.128695  0  1.027899  0  0  0.130813  0  1.028246  0  0  0.118864  0.126425  0  1.029215  0
H  H27  1  0.92048826  0.78198381  0.77480095  1  0  0.113083  0  0.973955  0  0  0.119207  0  1.039959  0  0  0.121579  0  1.038802  0  0  0.114249  0.117323  0  1.041473  0
H  H28  1  0.07951540  0.21801346  0.22519598  1  0  0.113073  0  0.973981  0  0  0.119186  0  1.039994  0  0  0.121561  0  1.038842  0  0  0.114257  0.117304  0  1.041506  0
C  C29  1  0.73584024  0.25873143  0.10492628  1  0  0.143667  0  3.670228  0  0  0.082717  0  3.93966  0  0  0.096104  0  3.951834  0  0  0.130368  0.073682  0  3.932572  0
C  C30  1  0.26416000  0.74126582  0.89507490  1  0  0.143681  0  3.670163  0  0  0.082747  0  3.939595  0  0  0.096132  0  3.951773  0  0  0.130388  0.07371  0  3.932513  0
C  C31  1  0.51478939  0.17367607  0.13971819  1  0  -0.054011  0  3.654391  0  0  -0.093803  0  3.908796  0  0  -0.091627  0  3.927232  0  0  -0.001153  -0.095488  0  3.89786  0
C  C32  1  0.48521011  0.82632486  0.86027997  1  0  -0.053916  0  3.654269  0  0  -0.093683  0  3.908672  0  0  -0.091504  0  3.927107  0  0  -0.001078  -0.095365  0  3.897735  0
C  C33  1  0.62602004  0.06885580  0.08942419  1  0  -0.010131  0  3.760205  0  0  -0.042012  0  4.024233  0  0  -0.040592  0  4.044466  0  0  -0.008523  -0.042272  0  4.009283  0
C  C34  1  0.37397556  0.93114757  0.91057353  1  0  -0.01023  0  3.760042  0  0  -0.042128  0  4.024101  0  0  -0.04071  0  4.044334  0  0  -0.008564  -0.042385  0  4.009154  0
C  C35  1  0.51495591  0.43459744  0.19580211  1  0  -0.043329  0  3.637779  0  0  -0.107657  0  3.884992  0  0  -0.102806  0  3.89476  0  0  -0.048325  -0.110707  0  3.877677  0
C  C36  1  0.48504583  0.56540350  0.80419787  1  0  -0.04328  0  3.637589  0  0  -0.107645  0  3.884866  0  0  -0.102791  0  3.894634  0  0  -0.048335  -0.110687  0  3.87754  0
C  C37  1  0.43671162  0.38202759  0.33859543  1  0  0.016517  0  3.730609  0  0  0.033069  0  3.964519  0  0  0.030899  0  3.99003  0  0  -0.015318  0.034882  0  3.947853  0
C  C38  1  0.56329099  0.61797458  0.66140513  1  0  0.016523  0  3.730634  0  0  0.033084  0  3.964528  0  0  0.030908  0  3.990043  0  0  -0.015301  0.034896  0  3.947859  0
C  C39  1  0.27529678  0.40376679  0.34379976  1  0  -0.125196  0  3.762602  0  0  -0.142999  0  4.013131  0  0  -0.145674  0  4.034478  0  0  -0.094103  -0.142189  0  4.000885  0
C  C40  1  0.72470584  0.59623538  0.65619980  1  0  -0.125261  0  3.762752  0  0  -0.143084  0  4.01329  0  0  -0.145756  0  4.034635  0  0  -0.094159  -0.142272  0  4.001037  0
C  C41  1  0.19693837  0.35168466  0.47223608  1  0  -0.073321  0  3.778961  0  0  -0.089021  0  4.031821  0  0  -0.09086  0  4.052059  0  0  -0.093609  -0.086794  0  4.018992  0
C  C42  1  0.80306286  0.64831874  0.52776323  1  0  -0.073269  0  3.778988  0  0  -0.088951  0  4.031828  0  0  -0.090792  0  4.052067  0  0  -0.093557  -0.08672  0  4.018997  0
C  C43  1  0.28110072  0.27403022  0.59694126  1  0  -0.069649  0  3.773881  0  0  -0.084211  0  4.028178  0  0  -0.084982  0  4.048787  0  0  -0.093572  -0.083028  0  4.012976  0
C  C44  1  0.71889939  0.72597317  0.40305813  1  0  -0.069671  0  3.773899  0  0  -0.084237  0  4.028193  0  0  -0.085004  0  4.0488  0  0  -0.093589  -0.083055  0  4.012988  0
C  C45  1  0.44234446  0.25259359  0.59278843  1  0  -0.123671  0  3.759618  0  0  -0.146101  0  4.011874  0  0  -0.149138  0  4.033923  0  0  -0.096431  -0.143888  0  3.997263  0
C  C46  1  0.55765425  0.74741102  0.40721369  1  0  -0.12369  0  3.759724  0  0  -0.146137  0  4.011958  0  0  -0.149173  0  4.034005  0  0  -0.096405  -0.143925  0  3.997347  0
C  C47  1  0.52169271  0.30655455  0.46485352  1  0  0.033399  0  3.706524  0  0  0.047852  0  3.946638  0  0  0.047394  0  3.970626  0  0  -0.009735  0.048407  0  3.930737  0
C  C48  1  0.47830763  0.69344761  0.53514820  1  0  0.033358  0  3.706634  0  0  0.047855  0  3.946677  0  0  0.047399  0  3.970663  0  0  -0.009733  0.04841  0  3.930777  0
C  C49  1  0.69584064  0.28944972  0.46103184  1  0  -0.04021  0  3.652518  0  0  -0.106514  0  3.899003  0  0  -0.101811  0  3.909325  0  0  -0.045423  -0.109494  0  3.892143  0
C  C50  1  0.30415822  0.71054875  0.53896908  1  0  -0.040155  0  3.652488  0  0  -0.106483  0  3.898979  0  0  -0.101777  0  3.909292  0  0  -0.045429  -0.109466  0  3.892128  0
C  C51  1  0.83034198  0.17391436  0.69529677  1  0  0.152369  0  3.666546  0  0  0.094343  0  3.926769  0  0  0.10784  0  3.94012  0  0  0.133043  0.085627  0  3.918661  0
C  C52  1  0.16965373  0.82608286  0.30470674  1  0  0.15233  0  3.666611  0  0  0.094307  0  3.926853  0  0  0.107807  0  3.940197  0  0  0.133012  0.085593  0  3.918744  0
C  C53  1  0.80390867  0.99219167  0.59651787  1  0  -0.070694  0  3.679513  0  0  -0.112959  0  3.936784  0  0  -0.111505  0  3.956239  0  0  -0.004621  -0.114096  0  3.925319  0
C  C54  1  0.19608857  0.00780926  0.40347946  1  0  -0.070815  0  3.679321  0  0  -0.113076  0  3.936587  0  0  -0.111623  0  3.956045  0  0  -0.004643  -0.114213  0  3.925124  0
C  C55  1  0.87786815  0.91246599  0.72396017  1  0  -0.003348  0  3.749397  0  0  -0.035667  0  4.018943  0  0  -0.033875  0  4.039042  0  0  -0.007902  -0.037245  0  4.006644  0
C  C56  1  0.12212759  0.08753124  0.27603935  1  0  -0.003308  0  3.749272  0  0  -0.035619  0  4.01883  0  0  -0.033836  0  4.038939  0  0  -0.007922  -0.037196  0  4.006528  0
N  N57  1  0.76290985  0.12306644  0.06876256  1  0  -0.383287  0  3.278189  0  0  -0.306739  0  3.560906  0  0  -0.327593  0  3.579432  0  0  -0.365153  -0.292041  0  3.548223  0
N  N58  1  0.23708788  0.87693203  0.93123744  1  0  -0.383264  0  3.278031  0  0  -0.306714  0  3.560746  0  0  -0.327564  0  3.579271  0  0  -0.365164  -0.292016  0  3.548067  0
N  N59  1  0.58627901  0.29305829  0.14897658  1  0  -0.06412  0  3.565464  0  0  0.031031  0  3.781533  0  0  0.016214  0  3.80759  0  0  -0.245141  0.040998  0  3.763834  0
N  N60  1  0.41372048  0.70694264  0.85102258  1  0  -0.064145  0  3.56552  0  0  0.030974  0  3.781641  0  0  0.016156  0  3.807697  0  0  -0.245149  0.040939  0  3.763942  0
N  N61  1  0.77501000  0.15756401  0.57987429  1  0  -0.059558  0  3.60139  0  0  0.035876  0  3.816341  0  0  0.021599  0  3.841642  0  0  -0.245922  0.045376  0  3.799407  0
N  N62  1  0.22498709  0.84243199  0.42012848  1  0  -0.059537  0  3.601317  0  0  0.035914  0  3.816235  0  0  0.021637  0  3.841531  0  0  -0.245885  0.045415  0  3.799304  0
N  N63  1  0.89341954  0.02745610  0.78445076  1  0  -0.382075  0  3.238849  0  0  -0.30869  0  3.5199  0  0  -0.329164  0  3.537644  0  0  -0.357977  -0.294573  0  3.507374  0
N  N64  1  0.10657782  0.97253868  0.21555035  1  0  -0.381993  0  3.238766  0  0  -0.308618  0  3.519828  0  0  -0.329092  0  3.537572  0  0  -0.35794  -0.294501  0  3.507306  0
N  N65  1  0.10461864  0.37926413  0.87498895  1  0  0.694082  0  4.168661  0  0  0.726474  0  4.463431  0  0  0.754229  0  4.469336  0  0  0.096144  0.707938  0  4.458601  0
N  N66  1  0.89538311  0.62073681  0.12501004  1  0  0.693749  0  4.168764  0  0  0.72619  0  4.4635  0  0  0.753941  0  4.469416  0  0  0.096  0.707654  0  4.458668  0
O  O67  1  0.00459411  0.29492482  0.87504001  1  0  -0.515353  0  1.806886  0  0  -0.489244  0  2.049712  0  0  -0.507548  0  2.041009  0  0  -0.211475  -0.475859  0  2.055637  0
O  O68  1  0.99540650  0.70507611  0.12496006  1  0  -0.515219  0  1.806976  0  0  -0.489109  0  2.049767  0  0  -0.507415  0  2.041068  0  0  -0.211379  -0.475719  0  2.055675  0
O  O69  1  0.07915320  0.52896989  0.79961676  1  0  -0.47381  0  1.749679  0  0  -0.462926  0  1.964132  0  0  -0.477025  0  1.958639  0  0  -0.196209  -0.452859  0  1.967865  0
O  O70  1  0.92085080  0.47103106  0.20038306  1  0  -0.473722  0  1.749625  0  0  -0.462841  0  1.964053  0  0  -0.47693  0  1.958548  0  0  -0.196171  -0.452778  0  1.967784  0
O  O71  1  0.22562070  0.31304338  0.94727433  1  0  -0.471254  0  1.732602  0  0  -0.468623  0  1.94905  0  0  -0.481198  0  1.943668  0  0  -0.198676  -0.459565  0  1.952346  0
O  O72  1  0.77437991  0.68695756  0.05272574  1  0  -0.471145  0  1.73263  0  0  -0.468541  0  1.949068  0  0  -0.481118  0  1.943692  0  0  -0.198667  -0.45948  0  1.952364  0
