# generated using pymatgen
data_HoH8C6NO7
_symmetry_space_group_name_H-M   'P 1'
_cell_length_a   7.56308562
_cell_length_b   9.03436445
_cell_length_c   13.76728521
_cell_angle_alpha   90.00000154
_cell_angle_beta   90.00019915
_cell_angle_gamma   89.99960134
_symmetry_Int_Tables_number   1
_chemical_formula_structural   HoH8C6NO7
_chemical_formula_sum   'Ho4 H32 C24 N4 O28'
_cell_volume   940.68654583
_cell_formula_units_Z   4
loop_
 _symmetry_equiv_pos_site_id
 _symmetry_equiv_pos_as_xyz
  1  'x, y, z'
loop_
 _atom_site_type_symbol
 _atom_site_label
 _atom_site_symmetry_multiplicity
 _atom_site_fract_x
 _atom_site_fract_y
 _atom_site_fract_z
 _atom_site_occupancy
 _atom_site_hle17_bader_spin_density
 _atom_site_hle17_ddec_charge
 _atom_site_hle17_ddec_spin_density
 _atom_site_hle17_ddec_sum_bond_order
 _atom_site_hle17_magmom
 _atom_site_hse06_10hf_bader_spin_density
 _atom_site_hse06_10hf_ddec_charge
 _atom_site_hse06_10hf_ddec_spin_density
 _atom_site_hse06_10hf_ddec_sum_bond_order
 _atom_site_hse06_10hf_magmom
 _atom_site_hse06_bader_spin_density
 _atom_site_hse06_ddec_charge
 _atom_site_hse06_ddec_spin_density
 _atom_site_hse06_ddec_sum_bond_order
 _atom_site_hse06_magmom
 _atom_site_pbe_bader_spin_density
 _atom_site_pbe_cm5_charge
 _atom_site_pbe_ddec_charge
 _atom_site_pbe_ddec_spin_density
 _atom_site_pbe_ddec_sum_bond_order
 _atom_site_pbe_magmom
Ho  Ho0  1  0.25520768  0.70657802  0.81249304  1  0  2.209624  0  1.693582  0  0  2.048215  0  2.189915  0  0  2.187064  0  1.980194  0  0  1.524308  2.00936  0  2.222949  0
Ho  Ho1  1  0.24478744  0.29342114  0.31249249  1  0  2.209748  0  1.693427  0  0  2.048363  0  2.189732  0  0  2.187209  0  1.980016  0  0  1.524307  2.009521  0  2.222738  0
Ho  Ho2  1  0.74478995  0.20658126  0.68750880  1  0  2.209708  0  1.693303  0  0  2.048278  0  2.189663  0  0  2.18716  0  1.979886  0  0  1.524365  2.009429  0  2.222678  0
Ho  Ho3  1  0.75521157  0.79342383  0.18750755  1  0  2.209661  0  1.693425  0  0  2.048305  0  2.189696  0  0  2.187117  0  1.980029  0  0  1.524308  2.009393  0  2.222808  0
H  H4  1  0.43586756  0.31947555  0.98037889  1  0  0.090619  0  0.94352  0  0  0.101046  0  1.010221  0  0  0.10368  0  1.007582  0  0  0.105976  0.099371  0  1.011544  0
H  H5  1  0.06413524  0.68051919  0.48037873  1  0  0.090684  0  0.943518  0  0  0.101113  0  1.010196  0  0  0.10375  0  1.007553  0  0  0.106001  0.099437  0  1.01152  0
H  H6  1  0.56413839  0.81947271  0.51962296  1  0  0.090685  0  0.943497  0  0  0.101116  0  1.010183  0  0  0.103747  0  1.007547  0  0  0.105996  0.09944  0  1.011506  0
H  H7  1  0.93585941  0.18052462  0.01961986  1  0  0.090659  0  0.943499  0  0  0.101094  0  1.010185  0  0  0.103728  0  1.007546  0  0  0.105986  0.099418  0  1.011509  0
H  H8  1  0.52663666  0.50089148  0.98523759  1  0  0.131193  0  0.910663  0  0  0.145546  0  0.964829  0  0  0.148657  0  0.962669  0  0  0.129926  0.143629  0  0.965953  0
H  H9  1  0.97336808  0.49910365  0.48523966  1  0  0.13119  0  0.910674  0  0  0.145531  0  0.96484  0  0  0.148644  0  0.962683  0  0  0.129915  0.143615  0  0.965964  0
H  H10  1  0.47336399  0.00089077  0.51476279  1  0  0.13126  0  0.91064  0  0  0.145609  0  0.964804  0  0  0.148719  0  0.962645  0  0  0.129942  0.143694  0  0.965926  0
H  H11  1  0.02663452  0.99910396  0.01475821  1  0  0.131198  0  0.910639  0  0  0.145542  0  0.96482  0  0  0.148656  0  0.96266  0  0  0.129907  0.143627  0  0.965943  0
H  H12  1  0.33207640  0.62082742  0.06843211  1  0  0.141546  0  0.937851  0  0  0.152389  0  0.996523  0  0  0.156891  0  0.992701  0  0  0.129082  0.149317  0  0.999081  0
H  H13  1  0.16792906  0.37916620  0.56842886  1  0  0.141584  0  0.93779  0  0  0.152415  0  0.996461  0  0  0.156914  0  0.992641  0  0  0.129109  0.149334  0  0.999032  0
H  H14  1  0.66792668  0.12082226  0.43156938  1  0  0.141614  0  0.937851  0  0  0.15242  0  0.996541  0  0  0.156922  0  0.992717  0  0  0.129092  0.149357  0  0.999091  0
H  H15  1  0.83207639  0.87916955  0.93156863  1  0  0.141571  0  0.93782  0  0  0.152402  0  0.996484  0  0  0.156901  0  0.992662  0  0  0.129095  0.149338  0  0.999034  0
H  H16  1  0.16806594  0.48510834  0.09436445  1  0  0.114019  0  0.917219  0  0  0.123033  0  0.982898  0  0  0.126121  0  0.980828  0  0  0.117098  0.120393  0  0.985364  0
H  H17  1  0.33193572  0.51488750  0.59436369  1  0  0.114032  0  0.917234  0  0  0.123038  0  0.982922  0  0  0.12612  0  0.980862  0  0  0.117097  0.120395  0  0.985395  0
H  H18  1  0.83193148  0.98510173  0.40563851  1  0  0.114069  0  0.917288  0  0  0.12305  0  0.982954  0  0  0.126136  0  0.980884  0  0  0.117116  0.120414  0  0.985421  0
H  H19  1  0.66807142  0.01489119  0.90563307  1  0  0.114024  0  0.91732  0  0  0.123016  0  0.982984  0  0  0.1261  0  0.980916  0  0  0.11711  0.120379  0  0.985453  0
H  H20  1  0.00401696  0.40408820  0.96352476  1  0  0.114283  0  0.901812  0  0  0.133815  0  0.952598  0  0  0.135889  0  0.950859  0  0  0.127922  0.132621  0  0.953345  0
H  H21  1  0.49598309  0.59591319  0.46351742  1  0  0.114155  0  0.901962  0  0  0.133746  0  0.952648  0  0  0.135829  0  0.950909  0  0  0.12789  0.132552  0  0.953397  0
H  H22  1  0.99598564  0.90409721  0.53648072  1  0  0.114275  0  0.901839  0  0  0.133839  0  0.952594  0  0  0.13588  0  0.950887  0  0  0.127901  0.132643  0  0.953343  0
H  H23  1  0.50401491  0.09590787  0.03647535  1  0  0.114258  0  0.901885  0  0  0.133794  0  0.952663  0  0  0.135864  0  0.950921  0  0  0.127905  0.132599  0  0.953411  0
H  H24  1  0.16881393  0.27093501  0.93868414  1  0  0.105822  0  0.920529  0  0  0.119222  0  0.982018  0  0  0.122125  0  0.979116  0  0  0.115065  0.11778  0  0.982996  0
H  H25  1  0.33118464  0.72906416  0.43868376  1  0  0.105838  0  0.920484  0  0  0.119175  0  0.982038  0  0  0.122083  0  0.979141  0  0  0.115059  0.117738  0  0.983005  0
H  H26  1  0.83120168  0.77093725  0.56132206  1  0  0.10578  0  0.920434  0  0  0.119135  0  0.982001  0  0  0.122034  0  0.979089  0  0  0.115057  0.117695  0  0.982974  0
H  H27  1  0.66880696  0.22906451  0.06131338  1  0  0.105801  0  0.920564  0  0  0.119205  0  0.982042  0  0  0.122102  0  0.979139  0  0  0.115087  0.117764  0  0.983016  0
H  H28  1  0.12346005  0.01721392  0.80798512  1  0  0.441301  0  0.845329  0  0  0.413381  0  0.903909  0  0  0.424319  0  0.888126  0  0  0.305218  0.405272  0  0.915949  0
H  H29  1  0.37653504  0.98278524  0.30798338  1  0  0.441261  0  0.845364  0  0  0.41333  0  0.903978  0  0  0.42427  0  0.88819  0  0  0.305207  0.40522  0  0.916016  0
H  H30  1  0.87653781  0.51722032  0.69201381  1  0  0.441263  0  0.845364  0  0  0.413339  0  0.903957  0  0  0.424279  0  0.888171  0  0  0.305155  0.405231  0  0.915995  0
H  H31  1  0.62346241  0.48278587  0.19201449  1  0  0.441305  0  0.84529  0  0  0.413386  0  0.903893  0  0  0.424324  0  0.888107  0  0  0.305227  0.405278  0  0.915929  0
H  H32  1  0.33480630  0.01740811  0.80004984  1  0  0.432155  0  0.860414  0  0  0.40427  0  0.918541  0  0  0.415436  0  0.902454  0  0  0.301042  0.396238  0  0.930421  0
H  H33  1  0.16519006  0.98258994  0.30004334  1  0  0.432079  0  0.860508  0  0  0.404211  0  0.918607  0  0  0.415377  0  0.902521  0  0  0.301009  0.396176  0  0.93049  0
H  H34  1  0.66519420  0.51740911  0.69995345  1  0  0.43212  0  0.860471  0  0  0.404242  0  0.91858  0  0  0.415407  0  0.902496  0  0  0.301015  0.39621  0  0.930461  0
H  H35  1  0.83480474  0.48259155  0.19995307  1  0  0.432122  0  0.860459  0  0  0.40425  0  0.91856  0  0  0.415414  0  0.902476  0  0  0.301023  0.396219  0  0.930438  0
C  C36  1  0.43528919  0.42846385  0.94506110  1  0  -0.178443  0  3.651008  0  0  -0.231514  0  3.900349  0  0  -0.233716  0  3.90897  0  0  -0.066459  -0.230259  0  3.896242  0
C  C37  1  0.06471339  0.57153200  0.44506094  1  0  -0.178639  0  3.651124  0  0  -0.231661  0  3.900426  0  0  -0.233868  0  3.909059  0  0  -0.066493  -0.230387  0  3.896337  0
C  C38  1  0.56471718  0.92846322  0.55493857  1  0  -0.178706  0  3.651163  0  0  -0.231787  0  3.900511  0  0  -0.233984  0  3.909144  0  0  -0.066567  -0.230534  0  3.896408  0
C  C39  1  0.93528349  0.07153301  0.05493764  1  0  -0.178608  0  3.651212  0  0  -0.231701  0  3.900561  0  0  -0.2339  0  3.90919  0  0  -0.066532  -0.230439  0  3.896461  0
C  C40  1  0.50650985  0.41399334  0.84188760  1  0  0.738268  0  3.805549  0  0  0.695916  0  4.097641  0  0  0.730684  0  4.093171  0  0  0.232569  0.672398  0  4.103899  0
C  C41  1  0.99349397  0.58599958  0.34188970  1  0  0.738246  0  3.805582  0  0  0.695861  0  4.097706  0  0  0.73063  0  4.093237  0  0  0.232508  0.672344  0  4.10396  0
C  C42  1  0.49349664  0.91399423  0.65811352  1  0  0.737964  0  3.805872  0  0  0.695636  0  4.097935  0  0  0.730398  0  4.093481  0  0  0.232432  0.672119  0  4.104189  0
C  C43  1  0.00649882  0.08600493  0.15811179  1  0  0.738083  0  3.805843  0  0  0.69578  0  4.097847  0  0  0.73053  0  4.093408  0  0  0.232486  0.672261  0  4.104098  0
C  C44  1  0.21405196  0.56491681  0.03947132  1  0  -0.202236  0  3.640737  0  0  -0.257175  0  3.894712  0  0  -0.25975  0  3.901051  0  0  -0.067712  -0.255831  0  3.892456  0
C  C45  1  0.28595200  0.43508124  0.53947047  1  0  -0.202336  0  3.640609  0  0  -0.257264  0  3.894569  0  0  -0.259822  0  3.900905  0  0  -0.067773  -0.255898  0  3.892333  0
C  C46  1  0.78594365  0.06490874  0.46053017  1  0  -0.202433  0  3.640975  0  0  -0.257242  0  3.894825  0  0  -0.259805  0  3.901169  0  0  -0.06775  -0.255917  0  3.892592  0
C  C47  1  0.71405432  0.93508528  0.96052702  1  0  -0.202324  0  3.640951  0  0  -0.257177  0  3.894839  0  0  -0.259741  0  3.901183  0  0  -0.067748  -0.255844  0  3.892608  0
C  C48  1  0.07527605  0.68370366  0.02347312  1  0  0.760625  0  3.799263  0  0  0.717318  0  4.092286  0  0  0.752882  0  4.086092  0  0  0.241262  0.693756  0  4.098755  0
C  C49  1  0.42473574  0.31629439  0.52347471  1  0  0.760586  0  3.799457  0  0  0.717326  0  4.092385  0  0  0.752878  0  4.086206  0  0  0.241247  0.693777  0  4.098838  0
C  C50  1  0.92471990  0.18369810  0.47652983  1  0  0.760803  0  3.798932  0  0  0.717423  0  4.09202  0  0  0.752982  0  4.085834  0  0  0.241343  0.693868  0  4.098487  0
C  C51  1  0.57526759  0.81629703  0.97652423  1  0  0.760422  0  3.799275  0  0  0.717061  0  4.09236  0  0  0.75262  0  4.086168  0  0  0.241153  0.693505  0  4.098825  0
C  C52  1  0.12435932  0.38359387  0.92046264  1  0  -0.182937  0  3.654744  0  0  -0.237214  0  3.908846  0  0  -0.239269  0  3.917615  0  0  -0.06358  -0.235937  0  3.904041  0
C  C53  1  0.37564045  0.61640751  0.42045944  1  0  -0.182836  0  3.654778  0  0  -0.237034  0  3.908807  0  0  -0.239126  0  3.917636  0  0  -0.063527  -0.235736  0  3.904017  0
C  C54  1  0.87564742  0.88359917  0.57954211  1  0  -0.182764  0  3.654627  0  0  -0.23701  0  3.908735  0  0  -0.239014  0  3.91747  0  0  -0.063473  -0.235728  0  3.903938  0
C  C55  1  0.62435473  0.11640592  0.07953552  1  0  -0.182837  0  3.654939  0  0  -0.237103  0  3.909041  0  0  -0.239131  0  3.917776  0  0  -0.063542  -0.235809  0  3.904232  0
C  C56  1  0.06242394  0.38580893  0.81557117  1  0  0.741226  0  3.829638  0  0  0.694665  0  4.12764  0  0  0.729187  0  4.123124  0  0  0.233797  0.670945  0  4.133875  0
C  C57  1  0.43756855  0.61419688  0.31557099  1  0  0.741324  0  3.829261  0  0  0.694674  0  4.127377  0  0  0.729206  0  4.122857  0  0  0.233831  0.670954  0  4.133612  0
C  C58  1  0.93757617  0.88581718  0.68442923  1  0  0.741306  0  3.829324  0  0  0.694657  0  4.127463  0  0  0.729174  0  4.122938  0  0  0.233781  0.670937  0  4.133701  0
C  C59  1  0.56242400  0.11419454  0.18442397  1  0  0.741248  0  3.829448  0  0  0.694642  0  4.127532  0  0  0.729157  0  4.123014  0  0  0.233773  0.670919  0  4.133764  0
N  N60  1  0.25853566  0.49494830  0.94605460  1  0  -0.225993  0  3.371925  0  0  -0.154635  0  3.627378  0  0  -0.175018  0  3.654278  0  0  -0.381322  -0.145892  0  3.612811  0
N  N61  1  0.24146824  0.50504866  0.44605259  1  0  -0.22587  0  3.371832  0  0  -0.154556  0  3.627301  0  0  -0.174936  0  3.654226  0  0  -0.38133  -0.145884  0  3.612792  0
N  N62  1  0.74146487  0.99494995  0.55394507  1  0  -0.225847  0  3.371987  0  0  -0.154473  0  3.627322  0  0  -0.174879  0  3.654233  0  0  -0.381268  -0.145737  0  3.612768  0
N  N63  1  0.75853315  0.00504960  0.05394236  1  0  -0.225907  0  3.372079  0  0  -0.154564  0  3.627528  0  0  -0.174954  0  3.65443  0  0  -0.381309  -0.145845  0  3.612982  0
O  O64  1  0.47285762  0.51868370  0.78217935  1  0  -0.727945  0  2.033475  0  0  -0.672048  0  2.272254  0  0  -0.709771  0  2.26013  0  0  -0.364358  -0.65354  0  2.279272  0
O  O65  1  0.02714656  0.48132211  0.28217767  1  0  -0.727849  0  2.033636  0  0  -0.67194  0  2.272418  0  0  -0.709659  0  2.26029  0  0  -0.364292  -0.653436  0  2.279433  0
O  O66  1  0.52714552  0.01867825  0.71782031  1  0  -0.727761  0  2.033777  0  0  -0.67187  0  2.272549  0  0  -0.709594  0  2.260428  0  0  -0.364288  -0.653364  0  2.279564  0
O  O67  1  0.97285486  0.98132019  0.21781657  1  0  -0.72775  0  2.03375  0  0  -0.671882  0  2.272498  0  0  -0.709592  0  2.260384  0  0  -0.364285  -0.653365  0  2.279513  0
O  O68  1  0.59937183  0.30098899  0.82254037  1  0  -0.7181  0  1.983245  0  0  -0.669099  0  2.234643  0  0  -0.706392  0  2.21709  0  0  -0.398452  -0.651232  0  2.242473  0
O  O69  1  0.90061997  0.69900614  0.32253867  1  0  -0.718122  0  1.98304  0  0  -0.669129  0  2.234446  0  0  -0.706416  0  2.2169  0  0  -0.39846  -0.651243  0  2.242263  0
O  O70  1  0.40062238  0.80098933  0.67746729  1  0  -0.717937  0  1.983174  0  0  -0.668949  0  2.234557  0  0  -0.70624  0  2.21702  0  0  -0.398344  -0.651072  0  2.242368  0
O  O71  1  0.09936792  0.19901426  0.17746355  1  0  -0.718031  0  1.983103  0  0  -0.669057  0  2.234475  0  0  -0.706344  0  2.216938  0  0  -0.398411  -0.651191  0  2.24231  0
O  O72  1  0.06160575  0.73948517  0.93867242  1  0  -0.72385  0  2.028192  0  0  -0.672962  0  2.27877  0  0  -0.711734  0  2.264294  0  0  -0.396432  -0.654443  0  2.285136  0
O  O73  1  0.43839414  0.26051068  0.43866570  1  0  -0.723984  0  2.028111  0  0  -0.673125  0  2.27867  0  0  -0.711898  0  2.264187  0  0  -0.396448  -0.654601  0  2.285026  0
O  O74  1  0.93839425  0.23947066  0.56133088  1  0  -0.72392  0  2.028215  0  0  -0.673036  0  2.278864  0  0  -0.711812  0  2.264387  0  0  -0.396507  -0.654512  0  2.285219  0
O  O75  1  0.56160381  0.76052335  0.06133362  1  0  -0.723883  0  2.027949  0  0  -0.673018  0  2.278595  0  0  -0.711795  0  2.264137  0  0  -0.396474  -0.654482  0  2.284953  0
O  O76  1  0.98372279  0.72472989  0.09514751  1  0  -0.728398  0  2.072445  0  0  -0.675523  0  2.335816  0  0  -0.715376  0  2.317973  0  0  -0.418694  -0.656707  0  2.342278  0
O  O77  1  0.51628475  0.27527076  0.59513671  1  0  -0.728268  0  2.072868  0  0  -0.675421  0  2.336284  0  0  -0.715277  0  2.318419  0  0  -0.418632  -0.656621  0  2.342739  0
O  O78  1  0.01627811  0.22472744  0.40485471  1  0  -0.728569  0  2.072254  0  0  -0.67567  0  2.335656  0  0  -0.715539  0  2.317818  0  0  -0.418721  -0.656861  0  2.342109  0
O  O79  1  0.48371628  0.77526840  0.90485860  1  0  -0.72818  0  2.072744  0  0  -0.675278  0  2.336144  0  0  -0.715139  0  2.318315  0  0  -0.418574  -0.656475  0  2.3426  0
O  O80  1  0.09142602  0.50045443  0.76423646  1  0  -0.724371  0  2.067372  0  0  -0.668057  0  2.314802  0  0  -0.705823  0  2.302443  0  0  -0.381101  -0.649052  0  2.321915  0
O  O81  1  0.40857144  0.49955470  0.26423259  1  0  -0.724436  0  2.067179  0  0  -0.668132  0  2.314687  0  0  -0.705893  0  2.302321  0  0  -0.381118  -0.649127  0  2.321801  0
O  O82  1  0.90858653  0.00046003  0.73576393  1  0  -0.724423  0  2.067256  0  0  -0.668083  0  2.314748  0  0  -0.70585  0  2.302389  0  0  -0.381141  -0.649078  0  2.321862  0
O  O83  1  0.59142983  0.99955281  0.23576310  1  0  -0.724365  0  2.067235  0  0  -0.66806  0  2.314711  0  0  -0.705821  0  2.302355  0  0  -0.381061  -0.649041  0  2.321826  0
O  O84  1  0.97549080  0.27431971  0.78785124  1  0  -0.716134  0  2.042246  0  0  -0.664442  0  2.298502  0  0  -0.701571  0  2.282243  0  0  -0.400256  -0.646032  0  2.306568  0
O  O85  1  0.52450078  0.72569312  0.28784520  1  0  -0.716149  0  2.041979  0  0  -0.664437  0  2.298267  0  0  -0.701555  0  2.282007  0  0  -0.400261  -0.64602  0  2.306344  0
O  O86  1  0.02451023  0.77432225  0.71215932  1  0  -0.716207  0  2.041969  0  0  -0.66449  0  2.298264  0  0  -0.701617  0  2.28201  0  0  -0.400272  -0.646081  0  2.306336  0
O  O87  1  0.47548425  0.22568576  0.21214903  1  0  -0.716179  0  2.042101  0  0  -0.664472  0  2.298367  0  0  -0.701601  0  2.282115  0  0  -0.400298  -0.646066  0  2.306444  0
O  O88  1  0.23307017  0.97780580  0.83732145  1  0  -0.892314  0  1.83303  0  0  -0.84618  0  2.008023  0  0  -0.874552  0  1.969467  0  0  -0.624881  -0.832183  0  2.030476  0
O  O89  1  0.26692511  0.02219558  0.33731512  1  0  -0.892223  0  1.833174  0  0  -0.846065  0  2.008126  0  0  -0.874419  0  1.96952  0  0  -0.624859  -0.832095  0  2.030633  0
O  O90  1  0.76693050  0.47780890  0.66268113  1  0  -0.892238  0  1.833073  0  0  -0.846107  0  2.008116  0  0  -0.874471  0  1.969526  0  0  -0.624805  -0.832111  0  2.030567  0
O  O91  1  0.73307085  0.52219729  0.16268128  1  0  -0.892305  0  1.833069  0  0  -0.846174  0  2.008072  0  0  -0.874532  0  1.969497  0  0  -0.624889  -0.832173  0  2.030524  0
