# generated using pymatgen
data_CoH22C18S(NO)6
_symmetry_space_group_name_H-M   'P 1'
_cell_length_a   8.79073235
_cell_length_b   11.47935397
_cell_length_c   12.66700000
_cell_angle_alpha   89.13866071
_cell_angle_beta   79.21512130
_cell_angle_gamma   69.41726962
_symmetry_Int_Tables_number   1
_chemical_formula_structural   CoH22C18S(NO)6
_chemical_formula_sum   'Co2 H44 C36 S2 N12 O12'
_cell_volume   1173.72653256
_cell_formula_units_Z   2
loop_
 _symmetry_equiv_pos_site_id
 _symmetry_equiv_pos_as_xyz
  1  'x, y, z'
loop_
 _atom_site_type_symbol
 _atom_site_label
 _atom_site_symmetry_multiplicity
 _atom_site_fract_x
 _atom_site_fract_y
 _atom_site_fract_z
 _atom_site_occupancy
 _atom_site_hle17_ddec_charge
 _atom_site_hle17_ddec_spin_density
 _atom_site_hle17_ddec_sum_bond_order
 _atom_site_hle17_magmom
 _atom_site_hse06_10hf_ddec_charge
 _atom_site_hse06_10hf_ddec_spin_density
 _atom_site_hse06_10hf_ddec_sum_bond_order
 _atom_site_hse06_10hf_magmom
 _atom_site_hse06_ddec_charge
 _atom_site_hse06_ddec_spin_density
 _atom_site_hse06_ddec_sum_bond_order
 _atom_site_hse06_magmom
 _atom_site_pbe_bader_charge
 _atom_site_pbe_bader_spin_density
 _atom_site_pbe_cm5_charge
 _atom_site_pbe_ddec_charge
 _atom_site_pbe_ddec_spin_density
 _atom_site_pbe_ddec_sum_bond_order
 _atom_site_pbe_magmom
Co  Co0  1  0.76432281  0.23912233  0.70188764  1  0.727267  -1.077013  2.42378  -0.994  0.714724  -1.019443  2.849233  -0.957  0.778267  -1.020267  2.780108  -0.967  1.107693  -0.955972  0.649783  0.675879  -1.01379  2.893799  -0.942
Co  Co1  1  0.23568423  0.76087785  0.29811737  1  0.727289  -1.077016  2.423865  -0.994  0.714733  -1.019446  2.84932  -0.957  0.778284  -1.020267  2.780184  -0.967  1.107783  -0.955971  0.64979  0.675886  -1.01379  2.893889  -0.942
H  H2  1  0.04587569  0.09501036  0.61991646  1  0.422345  9.8e-05  0.894159  0.0  0.388943  4.2e-05  0.961829  0.0  0.401292  3.8e-05  0.944375  0.0  0.645367  5.8e-05  0.284608  0.38032  2.8e-05  0.973947  0.0
H  H3  1  0.95412648  0.90498050  0.38009088  1  0.422275  9.8e-05  0.894218  0.0  0.388858  4.2e-05  0.96192  0.0  0.401207  3.8e-05  0.944465  0.0  0.645504  5.8e-05  0.284568  0.380234  2.8e-05  0.974038  0.0
H  H4  1  0.91771063  0.01845912  0.63132989  1  0.409722  0.000435  0.821127  0.0  0.396688  0.000409  0.87159  0.0  0.405041  0.000305  0.86394  0.0  0.612183  0.000509  0.322996  0.390615  0.000518  0.877279  0.0
H  H5  1  0.08229717  0.98153454  0.36869248  1  0.40965  0.000434  0.821272  0.0  0.396663  0.000409  0.871672  0.0  0.405016  0.000305  0.86402  0.0  0.612136  0.000509  0.32298  0.390591  0.000518  0.877361  0.0
H  H6  1  0.45907987  0.21470806  0.65495461  1  0.419638  -0.000272  0.892416  -0.001  0.387769  -0.00052  0.958652  -0.001  0.398662  -0.000335  0.942943  -0.001  0.649137  -0.00096  0.280705  0.380377  -0.000709  0.969206  -0.001
H  H7  1  0.54091906  0.78529212  0.34505145  1  0.41963  -0.000272  0.89243  -0.001  0.387746  -0.00052  0.958693  -0.001  0.39864  -0.000335  0.942982  -0.001  0.649127  -0.00096  0.280691  0.380353  -0.000709  0.969247  -0.001
H  H8  1  0.61324110  0.15586851  0.55817303  1  0.415003  -0.000208  0.825572  0.0  0.406069  -0.00071  0.870152  -0.001  0.414435  -0.000434  0.861002  0.0  0.581333  -0.001962  0.3202  0.400267  -0.000995  0.876429  -0.001
H  H9  1  0.38675832  0.84412328  0.44183229  1  0.415027  -0.000208  0.825552  0.0  0.406083  -0.00071  0.870143  -0.001  0.414448  -0.000435  0.860995  0.0  0.5812  -0.001962  0.320193  0.400283  -0.000995  0.876417  -0.001
H  H10  1  0.27659688  0.24020619  0.24539224  1  0.096616  1.2e-05  0.942468  0.0  0.111203  1.4e-05  0.997359  0.0  0.11419  5e-06  0.996094  0.0  0.036526  3.6e-05  0.102669  0.108847  2.9e-05  0.998649  0.0
H  H11  1  0.72339455  0.75979026  0.75460616  1  0.096614  1.2e-05  0.942474  0.0  0.111183  1.4e-05  0.997388  0.0  0.114171  5e-06  0.996123  0.0  0.036395  3.6e-05  0.102652  0.108828  2.9e-05  0.998674  0.0
H  H12  1  0.07130363  0.25994954  0.96001671  1  0.118052  -6e-06  0.984807  0.0  0.125767  -4e-06  1.050914  0.0  0.129324  4e-06  1.048725  0.0  0.139308  -5e-05  0.104504  0.122929  -1.6e-05  1.052772  0.0
H  H13  1  0.92869542  0.74005531  0.03998059  1  0.118012  -6e-06  0.984826  0.0  0.125685  -5e-06  1.050968  0.0  0.129247  4e-06  1.048768  0.0  0.139314  -5.1e-05  0.104479  0.122847  -1.6e-05  1.052827  0.0
H  H14  1  0.80858331  0.52436031  0.23049283  1  0.113963  8.5e-05  0.984719  0.0  0.120403  5.1e-05  1.053741  0.0  0.123738  3.3e-05  1.051665  0.0  0.140943  5.7e-05  0.103468  0.117891  7.3e-05  1.055355  0.0
H  H15  1  0.19141777  0.47564266  0.76950422  1  0.113967  8.5e-05  0.984664  0.0  0.120426  5.1e-05  1.053662  0.0  0.12376  3.3e-05  1.051583  0.0  0.14098  5.7e-05  0.103484  0.117911  7.3e-05  1.055281  0.0
H  H16  1  0.14968443  0.39826478  0.38541419  1  0.079477  -1.7e-05  0.934434  0.0  0.092489  1e-06  0.99923  0.0  0.093267  -6e-06  0.999127  0.0  0.08403  3.7e-05  0.112357  0.091828  1.3e-05  0.999423  0.0
H  H17  1  0.85031382  0.60172701  0.61458497  1  0.079521  -1.9e-05  0.934515  0.0  0.092515  1e-06  0.999275  0.0  0.0933  -6e-06  0.999164  0.0  0.083997  3.7e-05  0.112374  0.091856  1.3e-05  0.999467  0.0
H  H18  1  0.00116982  0.54026216  0.35502213  1  0.108511  0.000251  0.941332  0.0  0.117201  0.000192  1.011608  0.0  0.118863  0.000152  1.010371  0.0  0.151864  0.000159  0.119556  0.115683  0.000238  1.012795  0.0
H  H19  1  0.99882712  0.45973243  0.64497794  1  0.108625  0.000249  0.941375  0.0  0.117312  0.000192  1.011608  0.0  0.118984  0.000152  1.010367  0.0  0.151805  0.000159  0.119613  0.115794  0.000238  1.012795  0.0
H  H20  1  0.04903669  0.25670449  0.51675056  1  0.114556  4.2e-05  0.941527  0.0  0.121256  0.00016  1.00469  0.0  0.125161  9e-05  0.99883  0.0  0.185228  6.3e-05  0.140206  0.117935  0.000244  1.009637  0.0
H  H21  1  0.95096919  0.74329569  0.48324828  1  0.114554  4.2e-05  0.941605  0.0  0.121264  0.00016  1.004759  0.0  0.125142  9e-05  0.998935  0.0  0.185291  6.3e-05  0.140206  0.117941  0.000244  1.00971  0.0
H  H22  1  0.54200199  0.47980289  0.59874730  1  0.101781  5.7e-05  0.975319  0.0  0.110167  0.000122  1.035663  0.0  0.111835  8.6e-05  1.035769  0.0  0.136839  3.8e-05  0.116475  0.108866  0.000155  1.035934  0.0
H  H23  1  0.45799383  0.52018425  0.40124907  1  0.101879  5.7e-05  0.975273  0.0  0.110191  0.000122  1.035692  0.0  0.111858  8.6e-05  1.035799  0.0  0.136812  3.8e-05  0.116471  0.10889  0.000155  1.035964  0.0
H  H24  1  0.69380123  0.57947579  0.42446367  1  0.137707  0.000166  0.972377  0.0  0.144849  5.7e-05  1.033712  0.0  0.148554  6e-05  1.030825  0.0  0.178305  3.6e-05  0.124955  0.141915  4.5e-05  1.0361  0.0
H  H25  1  0.30619056  0.42050762  0.57553170  1  0.137819  0.000165  0.972276  0.0  0.144913  5.7e-05  1.033658  0.0  0.148616  6e-05  1.030777  0.0  0.178616  3.6e-05  0.125027  0.141984  4.4e-05  1.036043  0.0
H  H26  1  0.35272647  0.12477030  0.96055381  1  0.109146  0.000106  0.941845  0.0  0.120193  7.1e-05  1.008883  0.0  0.12206  4.4e-05  1.006959  0.0  0.093685  0.000103  0.117274  0.118687  0.0001  1.010381  0.0
H  H27  1  0.64726711  0.87522895  0.03944427  1  0.109119  0.000106  0.941895  0.0  0.12015  7.1e-05  1.008931  0.0  0.122026  4.4e-05  1.00701  0.0  0.093758  0.000103  0.117255  0.118644  0.0001  1.010428  0.0
H  H28  1  0.44434795  0.11922147  0.07686199  1  0.085576  2e-05  0.922094  0.0  0.099444  2.4e-05  0.983958  0.0  0.100539  1e-05  0.983248  0.0  0.067203  6.9e-05  0.113758  0.098569  4.3e-05  0.984584  0.0
H  H29  1  0.55565473  0.88078057  0.92313487  1  0.085554  2.1e-05  0.922127  0.0  0.099419  2.4e-05  0.983968  0.0  0.100522  1e-05  0.983274  0.0  0.067133  6.9e-05  0.1137  0.098541  4.3e-05  0.984601  0.0
H  H30  1  0.38518508  0.97232408  0.22926222  1  0.116326  4.3e-05  0.938349  0.0  0.122889  0.000164  1.002636  0.0  0.126659  0.00012  0.997077  0.0  0.185001  2.9e-05  0.139666  0.119753  0.000212  1.007221  0.0
H  H31  1  0.61481717  0.02767889  0.77073942  1  0.116373  4.4e-05  0.938365  0.0  0.122915  0.000164  1.002671  0.0  0.12668  0.00012  0.99711  0.0  0.184898  2.9e-05  0.139668  0.119778  0.000212  1.007256  0.0
H  H32  1  0.11027935  0.81044357  0.08168492  1  0.112168  6e-05  0.986861  0.0  0.117063  7.2e-05  1.055018  0.0  0.11955  6.3e-05  1.053345  0.0  0.128944  -6.6e-05  0.11789  0.115077  7.9e-05  1.05661  0.0
H  H33  1  0.88971131  0.18955941  0.91832691  1  0.112205  6e-05  0.986866  0.0  0.117108  7.2e-05  1.054993  0.0  0.119599  6.3e-05  1.05332  0.0  0.128872  -6.6e-05  0.117902  0.115123  8e-05  1.056587  0.0
H  H34  1  0.17703521  0.99418948  0.94988280  1  0.139137  0.000152  0.960497  0.0  0.146358  2.8e-05  1.020838  0.0  0.149568  2.9e-05  1.019058  0.0  0.171401  3.7e-05  0.125305  0.143949  2.2e-05  1.022205  0.0
H  H35  1  0.82295142  0.00580977  0.05012250  1  0.139022  0.000153  0.960575  0.0  0.146248  2.8e-05  1.020924  0.0  0.149458  2.9e-05  1.019144  0.0  0.171307  3.7e-05  0.125267  0.143838  2.2e-05  1.02229  0.0
H  H36  1  0.80332989  0.54205337  0.99082664  1  0.083985  1.3e-05  0.955929  0.0  0.097306  8e-06  1.0214  0.0  0.096804  -3e-06  1.02428  0.0  0.108915  5.2e-05  0.11175  0.097516  2.9e-05  1.019583  0.0
H  H37  1  0.19667403  0.45796079  0.00917147  1  0.084033  1.4e-05  0.955926  0.0  0.09737  8e-06  1.021305  0.0  0.096869  -3e-06  1.024184  0.0  0.10916  5.2e-05  0.111745  0.097582  2.9e-05  1.019485  0.0
H  H38  1  0.78589920  0.39804484  0.96319447  1  0.099123  9.5e-05  0.929055  0.0  0.112283  9.2e-05  0.993054  0.0  0.113382  7.6e-05  0.99236  0.0  0.102482  8.1e-05  0.117276  0.11132  0.000103  0.993725  0.0
H  H39  1  0.21410456  0.60197211  0.03680126  1  0.099263  9.4e-05  0.928879  0.0  0.112394  9.2e-05  0.992872  0.0  0.113492  7.6e-05  0.992174  0.0  0.102258  8.1e-05  0.11728  0.111399  0.000103  0.993596  0.0
H  H40  1  0.58937916  0.69182693  0.14194296  1  0.115074  1.1e-05  0.926928  -0.001  0.12288  0.000165  0.989803  0.0  0.125731  8.9e-05  0.98578  0.0  0.172095  -1.2e-05  0.142865  0.120257  0.000249  0.993562  0.0
H  H41  1  0.41062683  0.30817791  0.85806290  1  0.114991  1.2e-05  0.927002  -0.001  0.122768  0.000165  0.989914  0.0  0.125622  9e-05  0.985889  0.0  0.172232  -1.2e-05  0.142804  0.120155  0.000249  0.993639  0.0
H  H42  1  0.27663982  0.48630882  0.23564808  1  0.109584  1e-06  0.978794  0.0  0.117727  4.2e-05  1.041186  0.0  0.119465  2.4e-05  1.0409  0.0  0.099931  -8.1e-05  0.120017  0.116304  5.9e-05  1.041799  0.0
H  H43  1  0.72336778  0.51369508  0.76434101  1  0.109455  1e-06  0.97907  0.0  0.117714  4.2e-05  1.041306  0.0  0.119452  2.4e-05  1.041016  0.0  0.10014  -8.1e-05  0.119974  0.116286  5.9e-05  1.041922  0.0
H  H44  1  0.56273022  0.33519325  0.09677745  1  0.11473  0.000254  0.949664  0.0  0.124721  7.9e-05  1.01088  0.0  0.127291  5.6e-05  1.009912  0.0  0.112626  0.000122  0.122679  0.122696  0.000104  1.011918  0.0
H  H45  1  0.43727286  0.66481531  0.90320980  1  0.114711  0.000254  0.949638  0.0  0.124695  7.9e-05  1.010864  0.0  0.127267  5.6e-05  1.009894  0.0  0.112363  0.000122  0.122641  0.122664  0.000104  1.011909  0.0
C  C46  1  0.03860270  0.38529950  0.25017855  1  0.088543  7e-05  3.775065  0.0  0.111493  8.2e-05  4.016415  0.0  0.111384  3.7e-05  4.040057  0.0  0.012629  0.000148  -0.012508  0.111388  0.000149  4.000616  0.0
C  C47  1  0.96139739  0.61470068  0.74981789  1  0.088554  4.4e-05  3.774887  0.0  0.111418  8.1e-05  4.016327  0.0  0.111311  3.8e-05  4.039967  0.0  0.012548  0.000148  -0.01253  0.11131  0.000149  4.00053  0.0
C  C48  1  0.17620718  0.28392766  0.20191078  1  -0.184402  0.000336  3.753819  0.0  -0.214871  0.000169  4.00004  0.0  -0.218576  8.8e-05  4.021455  0.0  -0.057621  0.000316  -0.096834  -0.212379  0.000324  3.985857  0.0
C  C49  1  0.82378712  0.71607252  0.79808799  1  -0.184428  0.000371  3.753742  0.0  -0.214868  0.000169  4.000051  0.0  -0.218572  8.8e-05  4.021463  0.0  -0.057427  0.000316  -0.096835  -0.212372  0.000324  3.985864  0.0
C  C50  1  0.18713165  0.23893594  0.09779172  1  0.078398  9.5e-05  3.785815  0.0  0.099633  8.3e-05  4.029455  0.0  0.099136  3.5e-05  4.05405  0.0  -0.059849  0.000143  -0.017435  0.09993  0.00016  4.012825  0.0
C  C51  1  0.81286640  0.76106610  0.90220575  1  0.078417  6.9e-05  3.785806  0.0  0.099553  8.4e-05  4.029514  0.0  0.099067  3.5e-05  4.054121  0.0  -0.059855  0.000143  -0.017437  0.09985  0.00016  4.01288  0.0
C  C52  1  0.05893240  0.29516137  0.04205931  1  -0.171506  0.000196  3.686616  0.0  -0.198764  7.5e-05  3.926224  0.0  -0.202125  4.7e-05  3.946174  0.0  -0.07315  0.000125  -0.092933  -0.196435  0.000117  3.913074  0.0
C  C53  1  0.94107013  0.70484347  0.95793912  1  -0.171469  0.000227  3.686568  0.0  -0.198645  7.5e-05  3.926183  0.0  -0.202007  4.8e-05  3.946132  0.0  -0.073115  0.000125  -0.092903  -0.196315  0.000117  3.913028  0.0
C  C54  1  0.91996916  0.39626202  0.09039117  1  0.083232  6.1e-05  3.756873  0.0  0.107434  5.3e-05  3.994075  0.0  0.107029  1.2e-05  4.017814  0.0  -0.060985  0.000139  -0.010767  0.107665  0.000133  3.978063  0.0
C  C55  1  0.08003049  0.60373909  0.90960610  1  0.083162  3.7e-05  3.756932  0.0  0.107305  5.4e-05  3.994107  0.0  0.106898  1.1e-05  4.017845  0.0  -0.060859  0.000139  -0.010839  0.107538  0.000133  3.978087  0.0
C  C56  1  0.91122084  0.44130965  0.19388899  1  -0.148926  0.000162  3.673727  0.0  -0.183287  6.1e-05  3.920612  0.0  -0.185841  4.5e-05  3.940252  0.0  -0.052926  5.5e-05  -0.090881  -0.181587  8.5e-05  3.907596  0.0
C  C57  1  0.08877533  0.55869146  0.80610794  1  -0.148826  0.000197  3.673617  0.0  -0.183184  6.1e-05  3.920528  0.0  -0.18574  4.5e-05  3.940173  0.0  -0.052883  5.5e-05  -0.090861  -0.181483  8.5e-05  3.90751  0.0
C  C58  1  0.03037838  0.43924818  0.35964084  1  -0.055076  0.00014  3.644298  0.0  -0.120685  0.00013  3.890177  0.0  -0.116675  0.0001  3.900516  0.0  0.229349  9.5e-05  -0.050492  -0.123049  0.000162  3.88318  0.0
C  C59  1  0.96962363  0.56074547  0.64035227  1  -0.055279  0.000146  3.644393  0.0  -0.120804  0.00013  3.890192  0.0  -0.116806  9.9e-05  3.90054  0.0  0.229387  9.5e-05  -0.050511  -0.123167  0.000162  3.883192  0.0
C  C60  1  0.92952530  0.32789236  0.51438651  1  0.154245  0.014505  3.590786  0.009  0.096933  0.005254  3.86013  0.003  0.114178  0.003876  3.868589  0.002  0.945597  0.006295  0.140433  0.084603  0.006918  3.855929  0.004
C  C61  1  0.07047020  0.67210036  0.48561299  1  0.154249  0.014512  3.591121  0.009  0.096917  0.005255  3.860465  0.003  0.114181  0.003874  3.868936  0.002  0.945591  0.006297  0.140384  0.084588  0.006919  3.856266  0.004
C  C62  1  0.66861916  0.44689855  0.55503217  1  -0.022369  0.006154  3.763423  0.004  -0.052356  0.002704  4.033151  0.002  -0.048796  0.002197  4.052535  0.001  0.357452  0.002977  -0.006098  -0.05509  0.00321  4.020832  0.002
C  C63  1  0.33138142  0.55309324  0.44496194  1  -0.022469  0.006166  3.763202  0.004  -0.052412  0.002705  4.03296  0.002  -0.048852  0.002199  4.052344  0.001  0.358076  0.002978  -0.006122  -0.055144  0.00321  4.020643  0.002
C  C64  1  0.73974147  0.49678021  0.46874262  1  -0.082788  -0.001547  3.674885  -0.002  -0.123341  -0.00012  3.933335  0.0  -0.122515  -0.000187  3.950818  0.0  0.278535  -0.000628  -0.0045  -0.123801  -0.000152  3.92202  0.0
C  C65  1  0.26026146  0.50320413  0.53124497  1  -0.082848  -0.001552  3.674764  -0.002  -0.123362  -0.00012  3.933225  0.0  -0.122535  -0.000188  3.950704  0.0  0.278259  -0.000628  -0.004608  -0.123828  -0.000152  3.921908  0.0
C  C66  1  0.33134005  0.12487374  0.04873345  1  -0.057903  0.000209  3.647385  0.0  -0.126687  0.000148  3.898969  0.0  -0.122369  9.9e-05  3.908675  0.0  0.312699  0.000124  -0.051039  -0.129407  0.000204  3.892481  0.0
C  C67  1  0.66866048  0.87512551  0.95126293  1  -0.057927  0.000209  3.647506  0.0  -0.126558  0.000148  3.898896  0.0  -0.122295  9.9e-05  3.90867  0.0  0.312729  0.000124  -0.05091  -0.129277  0.000204  3.892403  0.0
C  C68  1  0.31643583  0.95433094  0.17265950  1  0.131445  0.011202  3.619076  0.007  0.07334  0.004973  3.891586  0.003  0.089073  0.003818  3.902191  0.002  0.907046  0.005607  0.134293  0.062282  0.006235  3.885536  0.004
C  C69  1  0.68356266  0.04567017  0.82734186  1  0.13135  0.011201  3.61896  0.007  0.073302  0.004974  3.891471  0.003  0.089037  0.003819  3.902057  0.002  0.90723  0.005608  0.134315  0.062242  0.006236  3.885423  0.004
C  C70  1  0.17931134  0.87002029  0.09054461  1  -0.01377  0.004575  3.729104  0.003  -0.047374  0.002016  4.001942  0.001  -0.044195  0.001692  4.021086  0.001  0.391817  0.002319  -0.005267  -0.049831  0.002302  3.989755  0.002
C  C71  1  0.82067410  0.12998642  0.90946548  1  -0.013818  0.004567  3.72915  0.003  -0.047404  0.002018  4.001977  0.001  -0.044237  0.001689  4.021117  0.001  0.392127  0.00232  -0.005201  -0.049867  0.002303  3.989796  0.002
C  C72  1  0.20858843  0.96052467  0.02643575  1  -0.074328  -0.001115  3.660477  -0.002  -0.110006  -0.000125  3.910858  0.0  -0.109387  -0.000193  3.929881  0.0  0.284721  -0.000572  -0.000116  -0.110184  -0.000138  3.898138  0.0
C  C73  1  0.79139992  0.03947830  0.97357086  1  -0.074284  -0.001111  3.660506  -0.002  -0.109969  -0.000126  3.910912  0.0  -0.109344  -0.000192  3.929926  0.0  0.2846  -0.000572  -0.000154  -0.110145  -0.000138  3.898192  0.0
C  C74  1  0.78443539  0.46016206  0.02858317  1  -0.046333  6.8e-05  3.647324  0.0  -0.110855  8.5e-05  3.889319  0.0  -0.106742  6e-05  3.900051  0.0  0.272112  3.1e-05  -0.044703  -0.113419  0.00011  3.882135  0.0
C  C75  1  0.21556896  0.53985117  0.97141569  1  -0.046503  6.8e-05  3.647362  0.0  -0.110857  8.5e-05  3.88907  0.0  -0.106739  6e-05  3.899789  0.0  0.272071  3.1e-05  -0.044615  -0.113411  0.00011  3.881887  0.0
C  C76  1  0.53923491  0.61764191  0.14799617  1  0.153965  0.018229  3.590105  0.012  0.095986  0.00695  3.8641  0.004  0.113752  0.00517  3.872652  0.003  0.935367  0.008061  0.143169  0.083383  0.008936  3.85963  0.006
C  C77  1  0.46077180  0.38236386  0.85200880  1  0.154063  0.018228  3.590092  0.012  0.09611  0.006948  3.86408  0.004  0.11387  0.005169  3.872635  0.003  0.93638  0.008056  0.143305  0.083515  0.008935  3.859618  0.006
C  C78  1  0.38471406  0.50560017  0.19672926  1  -0.010136  0.007472  3.736271  0.005  -0.040507  0.00288  4.009869  0.002  -0.036055  0.002286  4.027386  0.002  0.423981  0.003451  -0.002986  -0.044125  0.003524  3.999203  0.002
C  C79  1  0.61529238  0.49440374  0.80326156  1  -0.010166  0.007468  3.736471  0.005  -0.040621  0.00288  4.010059  0.002  -0.036167  0.002285  4.02757  0.002  0.423729  0.003451  -0.002986  -0.04424  0.003524  3.999395  0.002
C  C80  1  0.52412362  0.43082523  0.12768317  1  -0.069527  -0.002123  3.689464  -0.003  -0.113778  -0.000232  3.951201  -0.001  -0.1123  -0.000313  3.968779  -0.001  0.313402  -0.000978  -0.002468  -0.114744  -0.000264  3.93988  -0.001
C  C81  1  0.47588613  0.56918148  0.87231034  1  -0.069408  -0.002122  3.689347  -0.003  -0.113667  -0.000232  3.951125  -0.001  -0.112187  -0.000312  3.968701  -0.001  0.314358  -0.000978  -0.002437  -0.114626  -0.000264  3.939806  -0.001
S  S82  1  0.16947787  0.20049490  0.72774064  1  1.551275  -0.000369  5.847099  -0.001  1.439417  -0.001363  6.391638  -0.002  1.494438  -0.000914  6.356473  -0.002  3.767257  -0.002716  0.538304  1.400882  -0.001816  6.414106  -0.002
S  S83  1  0.83052294  0.79950621  0.27225727  1  1.551123  -0.000372  5.847052  -0.001  1.43926  -0.001369  6.391597  -0.002  1.494281  -0.000904  6.356451  -0.002  3.767513  -0.002716  0.538332  1.400727  -0.001816  6.414058  -0.002
N  N84  1  0.90427145  0.42042840  0.44429750  1  -0.054081  0.001618  3.578204  0.001  0.038465  0.001216  3.797985  0.001  0.023823  0.000802  3.824021  0.001  -1.245467  0.001839  -0.243994  0.048083  0.001624  3.780498  0.001
N  N85  1  0.09573667  0.57955967  0.55569884  1  -0.053982  0.001616  3.578518  0.001  0.038514  0.001216  3.79828  0.001  0.023878  0.000804  3.824308  0.001  -1.246352  0.00184  -0.243925  0.048131  0.001624  3.780794  0.001
N  N86  1  0.78791304  0.34233198  0.58333116  1  -0.299741  0.012739  3.380285  0.007  -0.2614  0.008581  3.685849  0.006  -0.287334  0.008366  3.700492  0.006  -1.16765  0.007853  -0.365948  -0.245219  0.007943  3.676824  0.005
N  N87  1  0.21208301  0.65766447  0.41666822  1  -0.299856  0.012738  3.380363  0.007  -0.261469  0.00858  3.685885  0.006  -0.287403  0.008367  3.700515  0.006  -1.167531  0.007852  -0.36592  -0.245287  0.007943  3.676865  0.005
N  N88  1  0.29528439  0.01232130  0.07939833  1  -0.057317  0.001643  3.590971  0.001  0.035721  0.001265  3.80876  0.001  0.020771  0.000861  3.835522  0.001  -1.228113  0.001794  -0.245567  0.04561  0.001616  3.790693  0.001
N  N89  1  0.70471223  0.98767888  0.92060487  1  -0.057135  0.00164  3.590822  0.001  0.035824  0.001264  3.808648  0.001  0.020888  0.000861  3.835422  0.001  -1.228182  0.001794  -0.245624  0.045712  0.001617  3.79058  0.001
N  N90  1  0.24670930  0.86723469  0.18140551  1  -0.305984  0.015731  3.419974  0.01  -0.267303  0.009463  3.727684  0.007  -0.293886  0.009009  3.74466  0.007  -1.165017  0.008799  -0.366833  -0.250476  0.008996  3.716694  0.006
N  N91  1  0.75328540  0.13277201  0.81860179  1  -0.305951  0.015736  3.419897  0.01  -0.267318  0.009464  3.727634  0.007  -0.293873  0.009011  3.744588  0.007  -1.165092  0.0088  -0.366815  -0.250491  0.008997  3.716645  0.006
N  N92  1  0.61974570  0.50308111  0.09690861  1  -0.060206  0.001713  3.602965  0.001  0.032554  0.001328  3.821393  0.001  0.018289  0.00082  3.846363  0.0  -1.244283  0.001998  -0.243898  0.041894  0.001789  3.804633  0.001
N  N93  1  0.38025997  0.49692932  0.90308933  1  -0.060235  0.001712  3.6029  0.001  0.032453  0.001328  3.821323  0.001  0.018186  0.00082  3.846292  0.0  -1.244888  0.001997  -0.243926  0.041795  0.001789  3.804553  0.001
N  N94  1  0.39556163  0.62185618  0.20954245  1  -0.297516  0.012087  3.376219  0.006  -0.261799  0.007914  3.688994  0.006  -0.287605  0.007743  3.701351  0.006  -1.164489  0.006711  -0.360507  -0.24557  0.007117  3.681394  0.005
N  N95  1  0.60444293  0.37814679  0.79045968  1  -0.297442  0.012088  3.376313  0.006  -0.261719  0.007915  3.689082  0.006  -0.287519  0.007743  3.701437  0.006  -1.165743  0.006716  -0.360524  -0.245492  0.007118  3.681476  0.005
O  O96  1  0.92878758  0.09691713  0.60854785  1  -0.752343  0.011676  2.007582  0.009  -0.723342  0.005182  2.220537  0.004  -0.756267  0.005547  2.194807  0.005  -1.185693  0.00334  -0.553897  -0.69981  0.003785  2.237398  0.003
O  O97  1  0.07121994  0.90307466  0.39145799  1  -0.752211  0.011678  2.007781  0.009  -0.723278  0.005182  2.220748  0.004  -0.756202  0.005547  2.195012  0.005  -1.185767  0.003341  -0.553856  -0.699744  0.003785  2.23761  0.003
O  O98  1  0.58432931  0.17384395  0.63553438  1  -0.811366  -0.021253  1.893097  -0.038  -0.775813  -0.021357  2.08065  -0.035  -0.798856  -0.017158  2.050583  -0.029  -1.218366  -0.050949  -0.570093  -0.757985  -0.025882  2.100305  -0.042
O  O99  1  0.41566747  0.82615344  0.36447515  1  -0.811357  -0.021254  1.893085  -0.038  -0.775771  -0.021357  2.080666  -0.035  -0.798817  -0.017159  2.050597  -0.029  -1.218233  -0.050952  -0.570059  -0.757946  -0.025882  2.100325  -0.042
O  O100  1  0.98954002  0.27947108  0.75892627  1  -0.747702  -0.01617  1.928274  -0.027  -0.705068  -0.016055  2.200371  -0.024  -0.730213  -0.01279  2.182394  -0.019  -1.342493  -0.039328  -0.367059  -0.685162  -0.019987  2.210945  -0.03
O  O101  1  0.01046702  0.72052910  0.24107084  1  -0.747659  -0.016171  1.928133  -0.027  -0.705027  -0.016054  2.200241  -0.024  -0.730131  -0.01279  2.182179  -0.019  -1.342509  -0.039326  -0.367087  -0.685116  -0.019987  2.210804  -0.03
O  O102  1  0.26576216  0.28475989  0.69344261  1  -0.765491  -0.002162  1.965671  -0.004  -0.706267  -0.002101  2.210151  -0.004  -0.729711  -0.001405  2.193053  -0.003  -1.34953  -0.006467  -0.37393  -0.688706  -0.003036  2.220878  -0.005
O  O103  1  0.73423909  0.71524029  0.30655840  1  -0.765495  -0.00216  1.965654  -0.004  -0.706279  -0.002101  2.210158  -0.004  -0.729729  -0.001407  2.193061  -0.003  -1.349753  -0.006466  -0.373965  -0.688715  -0.003035  2.220881  -0.005
O  O104  1  0.19471095  0.11415446  0.63203388  1  -0.749813  0.000661  1.905426  0.0  -0.696405  0.000586  2.128528  0.0  -0.71579  0.000617  2.106427  0.0  -1.338826  0.000163  -0.396229  -0.682477  0.000431  2.143493  0.0
O  O105  1  0.80528606  0.88585224  0.36796208  1  -0.749775  0.000658  1.905333  0.0  -0.696356  0.000583  2.128431  0.0  -0.715743  0.000623  2.106328  0.001  -1.338876  0.000163  -0.396239  -0.682428  0.000431  2.143394  0.0
O  O106  1  0.23019441  0.12773949  0.81839825  1  -0.75203  -0.001002  1.892576  -0.002  -0.70952  -0.00096  2.142655  -0.002  -0.730401  -0.000608  2.124687  -0.001  -1.368553  -0.003123  -0.390217  -0.693802  -0.001419  2.154173  -0.002
O  O107  1  0.76979553  0.87226256  0.18160579  1  -0.751916  -0.000998  1.892674  -0.002  -0.709384  -0.000956  2.142727  -0.002  -0.730272  -0.000618  2.124763  -0.001  -1.368603  -0.003123  -0.39017  -0.693666  -0.001419  2.154242  -0.002
