# generated using pymatgen
data_ZnH5C11N3O8
_symmetry_space_group_name_H-M   'P 1'
_cell_length_a   9.83182883
_cell_length_b   10.94537498
_cell_length_c   11.12218985
_cell_angle_alpha   90.77753037
_cell_angle_beta   99.43602488
_cell_angle_gamma   91.04012806
_symmetry_Int_Tables_number   1
_chemical_formula_structural   ZnH5C11N3O8
_chemical_formula_sum   'Zn2 H10 C22 N6 O16'
_cell_volume   1180.33730884
_cell_formula_units_Z   2
loop_
 _symmetry_equiv_pos_site_id
 _symmetry_equiv_pos_as_xyz
  1  'x, y, z'
loop_
 _atom_site_type_symbol
 _atom_site_label
 _atom_site_symmetry_multiplicity
 _atom_site_fract_x
 _atom_site_fract_y
 _atom_site_fract_z
 _atom_site_occupancy
 _atom_site_pbe_bader_charge
 _atom_site_pbe_bader_spin_density
 _atom_site_pbe_cm5_charge
 _atom_site_pbe_ddec_charge
 _atom_site_pbe_ddec_spin_density
 _atom_site_pbe_ddec_sum_bond_order
 _atom_site_pbe_magmom
Zn  Zn0  1  0.36478233  0.49624095  0.48165490  1  1.289424  0  0.665763  0.853293  0  2.312899  0
Zn  Zn1  1  0.64929330  0.50283265  0.52967329  1  1.290319  0  0.673499  0.820907  0  2.45683  0
H  H2  1  0.72597090  0.58031236  0.14999935  1  0.1007  0  0.109801  0.114592  0  0.985214  0
H  H3  1  0.72245562  0.58594502  0.92625671  1  0.12536  0  0.112246  0.119417  0  0.985814  0
H  H4  1  0.28450910  0.28467694  0.85629870  1  0.128915  0  0.138879  0.129448  0  0.934299  0
H  H5  1  0.19634774  0.42184720  0.07295417  1  0.16635  0  0.137632  0.133484  0  0.946278  0
H  H6  1  0.70114403  0.12086071  0.59551501  1  0.095352  0  0.104887  0.109447  0  0.997025  0
H  H7  1  0.70715333  0.89213779  0.58968207  1  0.064365  0  0.102728  0.105022  0  1.002949  0
H  H8  1  0.29104834  0.87840743  0.39592309  1  0.100296  0  0.106333  0.115332  0  0.997186  0
H  H9  1  0.28494922  0.10622120  0.40096499  1  0.118728  0  0.102017  0.106973  0  1.029783  0
H  H10  1  0.89875482  0.67355463  0.61560166  1  0.159228  0  0.155512  0.147371  0  0.934759  0
H  H11  1  0.84875281  0.32529770  0.45743600  1  0.192199  0  0.152922  0.146935  0  0.951304  0
C  C12  1  0.48852099  0.26304517  0.50426932  1  1.548451  0  0.222536  0.607078  0  4.134319  0
C  C13  1  0.50124631  0.73579870  0.49458487  1  1.530497  0  0.222039  0.605938  0  4.138106  0
C  C14  1  0.52738187  0.48992150  0.27271716  1  1.605909  0  0.21813  0.604009  0  4.176683  0
C  C15  1  0.52393982  0.50387784  0.74364414  1  1.569863  0  0.216413  0.600986  0  4.177586  0
C  C16  1  0.41903944  0.44305368  0.05441929  1  -0.013946  0  -0.001929  0.023529  0  3.926938  0
C  C17  1  0.41624286  0.44768587  0.92920705  1  0.008588  0  -0.000349  0.022147  0  3.893865  0
C  C18  1  0.52807540  0.49050390  0.13861841  1  0.059528  0  0.001132  -0.03647  0  3.941409  0
C  C19  1  0.52307860  0.49981306  0.87766482  1  0.041336  0  -0.001469  -0.038298  0  3.931801  0
C  C20  1  0.63742836  0.54218588  0.08814117  1  -0.044746  0  -0.070315  -0.080784  0  3.934878  0
C  C21  1  0.63512002  0.54622864  0.96207825  1  -0.084274  0  -0.068231  -0.080563  0  3.929846  0
C  C22  1  0.28202068  0.37449477  0.90025091  1  0.2173  0  0.028015  -0.059628  0  3.711444  0
C  C23  1  0.28267059  0.37571107  0.04204694  1  0.219581  0  0.024732  -0.066487  0  3.735631  0
C  C24  1  0.61204794  0.06686903  0.55180773  1  -0.052881  0  -0.084696  -0.097715  0  3.9831  0
C  C25  1  0.61535660  0.94004155  0.54867272  1  0.006026  0  -0.083806  -0.09264  0  3.984859  0
C  C26  1  0.49885950  0.87198540  0.49361009  1  0.001485  0  -0.014521  -0.030994  0  3.968332  0
C  C27  1  0.49226530  0.12690641  0.49970695  1  -0.028437  0  -0.012523  -0.025178  0  3.957617  0
C  C28  1  0.38010586  0.93209971  0.43985512  1  -0.059819  0  -0.079527  -0.083886  0  3.953337  0
C  C29  1  0.37668568  0.05899535  0.44292752  1  0.008023  0  -0.076834  -0.076193  0  3.944739  0
C  C30  1  0.94317371  0.59670992  0.57351679  1  0.641817  0  0.099825  0.030963  0  3.827484  0
C  C31  1  0.91530724  0.40492566  0.48467585  1  0.622124  0  0.094148  0.036142  0  3.811166  0
C  C32  1  0.07908971  0.59989312  0.55123916  1  0.817301  0  0.243905  0.208592  0  3.889233  0
C  C33  1  0.04853098  0.41524013  0.45924831  1  0.788117  0  0.237863  0.200175  0  3.891822  0
N  N34  1  0.13345174  0.51121120  0.49217921  1  -1.159997  0  -0.251715  -0.228109  0  3.353085  0
N  N35  1  0.86341271  0.49859359  0.54005676  1  -1.20404  0  -0.277984  -0.102577  0  3.481148  0
N  N36  1  0.16112252  0.43918744  0.82785167  1  0.457924  0  0.061191  0.547766  0  4.154765  0
N  N37  1  0.28247215  0.24712785  0.09248718  1  0.44237  0  0.056308  0.530661  0  4.190114  0
N  N38  1  0.15892498  0.71345225  0.59313769  1  0.457759  0  0.068422  0.478557  0  4.249241  0
N  N39  1  0.09263841  0.31895209  0.37985399  1  0.439462  0  0.068315  0.481254  0  4.239616  0
O  O40  1  0.37032529  0.31232535  0.48620441  1  -1.146687  0  -0.317369  -0.543949  0  2.361108  0
O  O41  1  0.38473306  0.67858105  0.47553663  1  -1.161  0  -0.320487  -0.556164  0  2.371639  0
O  O42  1  0.60420643  0.32091252  0.52639883  1  -1.173952  0  -0.317824  -0.557073  0  2.341198  0
O  O43  1  0.61858281  0.68581859  0.51558032  1  -1.168677  0  -0.317089  -0.548033  0  2.334936  0
O  O44  1  0.40928207  0.48706243  0.30523280  1  -1.155798  0  -0.310339  -0.536953  0  2.316474  0
O  O45  1  0.40819071  0.49024507  0.67393656  1  -1.160938  0  -0.316666  -0.558937  0  2.331195  0
O  O46  1  0.64395740  0.49404306  0.34228262  1  -1.169458  0  -0.321204  -0.556996  0  2.311012  0
O  O47  1  0.64109568  0.51941053  0.71072333  1  -1.148394  0  -0.318752  -0.537313  0  2.297637  0
O  O48  1  0.10415767  0.38766055  0.73250232  1  -0.470496  0  -0.133974  -0.347249  0  1.947331  0
O  O49  1  0.12772779  0.53808698  0.86761770  1  -0.44575  0  -0.125644  -0.329368  0  1.894022  0
O  O50  1  0.17741502  0.18463111  0.05638346  1  -0.440831  0  -0.143783  -0.34341  0  1.865475  0
O  O51  1  0.38465446  0.21524045  0.16365680  1  -0.417465  0  -0.114699  -0.303051  0  1.901991  0
O  O52  1  0.11938378  0.80413486  0.53316215  1  -0.398327  0  -0.092377  -0.279716  0  1.889665  0
O  O53  1  0.24589003  0.70906540  0.68535883  1  -0.387814  0  -0.075455  -0.240571  0  1.937935  0
O  O54  1  0.06348626  0.21275954  0.40286768  1  -0.413493  0  -0.086851  -0.270023  0  1.891332  0
O  O55  1  0.14752400  0.35560563  0.29469115  1  -0.407478  0  -0.088783  -0.271689  0  1.98466  0
