# generated using pymatgen
data_DyAgH8C14(NO4)2
_symmetry_space_group_name_H-M   'P 1'
_cell_length_a   9.45078486
_cell_length_b   11.99520971
_cell_length_c   16.78300000
_cell_angle_alpha   96.04725823
_cell_angle_beta   90.00000000
_cell_angle_gamma   113.20033906
_symmetry_Int_Tables_number   1
_chemical_formula_structural   DyAgH8C14(NO4)2
_chemical_formula_sum   'Dy4 Ag4 H32 C56 N8 O32'
_cell_volume   1737.20901937
_cell_formula_units_Z   4
loop_
 _symmetry_equiv_pos_site_id
 _symmetry_equiv_pos_as_xyz
  1  'x, y, z'
loop_
 _atom_site_type_symbol
 _atom_site_label
 _atom_site_symmetry_multiplicity
 _atom_site_fract_x
 _atom_site_fract_y
 _atom_site_fract_z
 _atom_site_occupancy
 _atom_site_hle17_bader_spin_density
 _atom_site_hle17_ddec_charge
 _atom_site_hle17_ddec_spin_density
 _atom_site_hle17_ddec_sum_bond_order
 _atom_site_hle17_magmom
 _atom_site_hse06_10hf_bader_spin_density
 _atom_site_hse06_10hf_ddec_charge
 _atom_site_hse06_10hf_ddec_spin_density
 _atom_site_hse06_10hf_ddec_sum_bond_order
 _atom_site_hse06_10hf_magmom
 _atom_site_hse06_bader_spin_density
 _atom_site_hse06_ddec_charge
 _atom_site_hse06_ddec_spin_density
 _atom_site_hse06_ddec_sum_bond_order
 _atom_site_hse06_magmom
 _atom_site_pbe_bader_charge
 _atom_site_pbe_bader_spin_density
 _atom_site_pbe_cm5_charge
 _atom_site_pbe_ddec_charge
 _atom_site_pbe_ddec_spin_density
 _atom_site_pbe_ddec_sum_bond_order
 _atom_site_pbe_magmom
Dy  Dy0  1  0.30203099  0.01018942  0.93227112  1  0  2.255566  0  1.664632  0  0  2.112989  0  2.142011  0  0  2.238831  0  1.953102  0  2.189152  0  1.508651  2.07634  0  2.174744  0
Dy  Dy1  1  0.29184590  0.98982575  0.56775862  1  0  2.255477  0  1.664273  0  0  2.1131  0  2.141264  0  0  2.238732  0  1.952703  0  2.189847  0  1.508698  2.076597  0  2.173842  0
Dy  Dy2  1  0.69796692  0.98980931  0.06773177  1  0  2.255588  0  1.664684  0  0  2.112971  0  2.14214  0  0  2.238858  0  1.953152  0  2.189224  0  1.508669  2.076322  0  2.174864  0
Dy  Dy3  1  0.70815064  0.01017025  0.43224227  1  0  2.255371  0  1.664584  0  0  2.113002  0  2.141588  0  0  2.238623  0  1.95303  0  2.189847  0  1.508638  2.076486  0  2.174188  0
Ag  Ag4  1  0.72121512  0.67996229  0.91595929  1  0  0.526588  0  1.383749  0  0  0.364418  0  1.803862  0  0  0.397321  0  1.759428  0  0.569957  0  0.486377  0.342713  0  1.834149  0
Ag  Ag5  1  0.04112612  0.31992597  0.58393875  1  0  0.526511  0  1.383372  0  0  0.364567  0  1.803849  0  0  0.397477  0  1.759301  0  0.56884  0  0.486346  0.342977  0  1.834058  0
Ag  Ag6  1  0.27878885  0.32004010  0.08404268  1  0  0.526616  0  1.383662  0  0  0.364423  0  1.803786  0  0  0.397332  0  1.759348  0  0.569915  0  0.486359  0.342721  0  1.834077  0
Ag  Ag7  1  0.95887617  0.68007094  0.41606221  1  0  0.526534  0  1.383376  0  0  0.364613  0  1.803806  0  0  0.397524  0  1.759258  0  0.568982  0  0.486388  0.343022  0  1.834014  0
H  H8  1  0.40379069  0.81064529  0.22001288  1  0  0.132999  0  0.942648  0  0  0.143066  0  0.999328  0  0  0.146835  0  0.99708  0  0.11866  0  0.121763  0.140485  0  1.000673  0
H  H9  1  0.59296452  0.18925484  0.28003024  1  0  0.133415  0  0.942229  0  0  0.1435  0  0.99888  0  0  0.1473  0  0.996612  0  0.1385  0  0.121732  0.140831  0  1.000364  0
H  H10  1  0.59621313  0.18935892  0.77998743  1  0  0.133033  0  0.942653  0  0  0.143087  0  0.999347  0  0  0.146856  0  0.9971  0  0.118382  0  0.121776  0.140507  0  1.000691  0
H  H11  1  0.40704081  0.81075029  0.71996895  1  0  0.133427  0  0.942243  0  0  0.14348  0  0.998932  0  0  0.147281  0  0.996662  0  0.138756  0  0.121739  0.14083  0  1.000391  0
H  H12  1  0.02581076  0.91003051  0.16496677  1  0  0.123025  0  0.94  0  0  0.132236  0  1.000691  0  0  0.135345  0  0.999931  0  0.13489  0  0.11829  0.130053  0  1.001186  0
H  H13  1  0.11553785  0.08979475  0.33501769  1  0  0.122988  0  0.939411  0  0  0.131808  0  1.000564  0  0  0.134874  0  0.999875  0  0.131813  0  0.11825  0.129589  0  1.001103  0
H  H14  1  0.97418397  0.08996822  0.83503432  1  0  0.123023  0  0.940003  0  0  0.132262  0  1.000654  0  0  0.13537  0  0.999895  0  0.134861  0  0.118295  0.130081  0  1.001148  0
H  H15  1  0.88446323  0.91020399  0.66498103  1  0  0.123025  0  0.939352  0  0  0.131827  0  1.00052  0  0  0.134857  0  0.999874  0  0.131712  0  0.118266  0.129611  0  1.001056  0
H  H16  1  0.42886186  0.58853505  0.04797652  1  0  0.094803  0  0.929097  0  0  0.103053  0  0.992878  0  0  0.106599  0  0.988592  0  0.126486  0  0.123574  0.10051  0  0.995807  0
H  H17  1  0.84024151  0.41153308  0.45199882  1  0  0.094573  0  0.929819  0  0  0.103252  0  0.992868  0  0  0.106828  0  0.98856  0  0.133133  0  0.123646  0.100736  0  0.995789  0
H  H18  1  0.57113665  0.41146278  0.95202093  1  0  0.094796  0  0.929057  0  0  0.103071  0  0.992809  0  0  0.106616  0  0.988524  0  0.126441  0  0.12358  0.100528  0  0.995737  0
H  H19  1  0.15976034  0.58846931  0.54800196  1  0  0.094552  0  0.929824  0  0  0.103253  0  0.992854  0  0  0.106827  0  0.988546  0  0.132892  0  0.123637  0.100737  0  0.995774  0
H  H20  1  0.12819396  0.64310141  0.87844452  1  0  0.125537  0  0.913862  0  0  0.136752  0  0.969142  0  0  0.140932  0  0.964563  0  0.137806  0  0.124689  0.133727  0  0.972269  0
H  H21  1  0.48495480  0.35664167  0.62149860  1  0  0.125646  0  0.913266  0  0  0.136789  0  0.96855  0  0  0.14097  0  0.963946  0  0.132025  0  0.12438  0.133717  0  0.971767  0
H  H22  1  0.87180349  0.35689641  0.12155472  1  0  0.125594  0  0.913868  0  0  0.136802  0  0.96915  0  0  0.140981  0  0.964572  0  0.137821  0  0.12469  0.133776  0  0.972278  0
H  H23  1  0.51504433  0.64336163  0.37850165  1  0  0.125666  0  0.913266  0  0  0.136801  0  0.968557  0  0  0.140983  0  0.963952  0  0.132023  0  0.124379  0.133728  0  0.971776  0
H  H24  1  0.88800073  0.79870468  0.27831360  1  0  0.097165  0  0.936854  0  0  0.108568  0  0.994751  0  0  0.111254  0  0.992256  0  0.142889  0  0.123327  0.106639  0  0.996456  0
H  H25  1  0.08915236  0.20120276  0.22169790  1  0  0.096948  0  0.936341  0  0  0.108116  0  0.994761  0  0  0.110829  0  0.992191  0  0.145295  0  0.122648  0.10621  0  0.99644  0
H  H26  1  0.11199793  0.20129132  0.72168908  1  0  0.097145  0  0.936882  0  0  0.108565  0  0.994753  0  0  0.11125  0  0.992258  0  0.142884  0  0.123309  0.10664  0  0.996457  0
H  H27  1  0.91084978  0.79879598  0.77830319  1  0  0.096912  0  0.936382  0  0  0.108073  0  0.994813  0  0  0.110785  0  0.992244  0  0.145248  0  0.122658  0.106165  0  0.996492  0
H  H28  1  0.24849650  0.69706701  0.32771254  1  0  0.070449  0  0.958592  0  0  0.082728  0  1.018924  0  0  0.084049  0  1.018284  0  0.099041  0  0.114916  0.081805  0  1.019303  0
H  H29  1  0.55130820  0.30292899  0.17233661  1  0  0.070454  0  0.958146  0  0  0.082768  0  1.018527  0  0  0.084108  0  1.017849  0  0.086923  0  0.115189  0.081818  0  1.018948  0
H  H30  1  0.75150990  0.30293812  0.67228903  1  0  0.070435  0  0.958588  0  0  0.082731  0  1.018909  0  0  0.084053  0  1.018265  0  0.098663  0  0.114907  0.081807  0  1.01929  0
H  H31  1  0.44869502  0.69707614  0.82766437  1  0  0.070504  0  0.95812  0  0  0.082819  0  1.018498  0  0  0.084159  0  1.017818  0  0.087077  0  0.115201  0.081868  0  1.018919  0
H  H32  1  0.05108509  0.28577497  0.94722744  1  0  0.098598  0  0.937261  0  0  0.106147  0  1.000739  0  0  0.108796  0  0.998217  0  0.123331  0  0.123678  0.104357  0  1.002199  0
H  H33  1  0.76502193  0.71412151  0.55288036  1  0  0.098461  0  0.937734  0  0  0.105639  0  1.001318  0  0  0.10832  0  0.998763  0  0.115152  0  0.123662  0.10368  0  1.003044  0
H  H34  1  0.94891554  0.71422286  0.05277061  1  0  0.098609  0  0.937292  0  0  0.106149  0  1.000774  0  0  0.108801  0  0.99825  0  0.123338  0  0.123696  0.104358  0  1.002235  0
H  H35  1  0.23497478  0.28587905  0.44711849  1  0  0.098459  0  0.93773  0  0  0.105642  0  1.001316  0  0  0.108324  0  0.998761  0  0.115172  0  0.123666  0.103684  0  1.003038  0
H  H36  1  0.97162780  0.41354631  0.86310315  1  0  0.101774  0  0.954768  0  0  0.111873  0  1.012215  0  0  0.113872  0  1.014247  0  0.066308  0  0.107111  0.11043  0  1.01101  0
H  H37  1  0.55782830  0.58621869  0.63696555  1  0  0.100831  0  0.955317  0  0  0.111385  0  1.012483  0  0  0.113414  0  1.014457  0  0.070271  0  0.106646  0.10998  0  1.011224  0
H  H38  1  0.02837131  0.58645060  0.13689483  1  0  0.101782  0  0.954743  0  0  0.111902  0  1.012169  0  0  0.113902  0  1.014199  0  0.066348  0  0.10713  0.110457  0  1.010967  0
H  H39  1  0.44216946  0.41378188  0.36303270  1  0  0.100825  0  0.955278  0  0  0.111383  0  1.012437  0  0  0.113413  0  1.014409  0  0.070313  0  0.106638  0.109979  0  1.011177  0
C  C40  1  0.28940432  0.80902831  0.23063713  1  0  -0.105496  0  3.672373  0  0  -0.125312  0  3.912934  0  0  -0.129628  0  3.931329  0  0.020449  0  -0.069314  -0.12234  0  3.90001  0
C  C41  1  0.48024824  0.19096951  0.26943361  1  0  -0.106738  0  3.67326  0  0  -0.126357  0  3.913697  0  0  -0.130753  0  3.932065  0  -0.033187  0  -0.069818  -0.12336  0  3.900808  0
C  C42  1  0.71059707  0.19097316  0.76936358  1  0  -0.105568  0  3.672425  0  0  -0.125383  0  3.913013  0  0  -0.129699  0  3.931408  0  0.0208  0  -0.069367  -0.122413  0  3.900093  0
C  C43  1  0.51975710  0.80903562  0.73056618  1  0  -0.106749  0  3.673203  0  0  -0.126302  0  3.913669  0  0  -0.130697  0  3.932042  0  -0.033385  0  -0.069817  -0.123317  0  3.900772  0
C  C44  1  0.22806752  0.87187039  0.18498273  1  0  -0.01137  0  3.687538  0  0  0.006255  0  3.918334  0  0  0.004655  0  3.93602  0  -0.041101  0  0.00619  0.007519  0  3.905399  0
C  C45  1  0.35606274  0.12812925  0.31509291  1  0  -0.010942  0  3.689595  0  0  0.006479  0  3.920225  0  0  0.00501  0  3.937743  0  -0.02908  0  0.007113  0.007701  0  3.907317  0
C  C46  1  0.77193645  0.12813199  0.81501804  1  0  -0.011297  0  3.687472  0  0  0.006323  0  3.918278  0  0  0.004723  0  3.935972  0  -0.041084  0  0.00624  0.007586  0  3.905342  0
C  C47  1  0.64394106  0.87186857  0.68490513  1  0  -0.01083  0  3.689358  0  0  0.006533  0  3.920176  0  0  0.005065  0  3.937685  0  -0.029145  0  0.007107  0.007754  0  3.907272  0
C  C48  1  0.38786216  0.76489606  0.97573222  1  0  0.705879  0  3.914886  0  0  0.656393  0  4.209183  0  0  0.692426  0  4.203718  0  1.629481  0  0.229001  0.632475  0  4.215012  0
C  C49  1  0.62330151  0.23508898  0.52427976  1  0  0.707225  0  3.911041  0  0  0.657502  0  4.205934  0  0  0.693529  0  4.200454  0  1.62774  0  0.229048  0.633564  0  4.211825  0
C  C50  1  0.61213226  0.23509994  0.02426569  1  0  0.705952  0  3.914613  0  0  0.656355  0  4.209092  0  0  0.692388  0  4.20363  0  1.628681  0  0.228995  0.632438  0  4.214921  0
C  C51  1  0.37669247  0.76491250  0.47572571  1  0  0.707268  0  3.910906  0  0  0.657505  0  4.205913  0  0  0.693529  0  4.200441  0  1.628424  0  0.22909  0.633567  0  4.211803  0
C  C52  1  0.32249563  0.94515389  0.12133600  1  0  0.708843  0  3.881746  0  0  0.663368  0  4.17103  0  0  0.699476  0  4.16318  0  1.626071  0  0.229578  0.639374  0  4.178307  0
C  C53  1  0.37739067  0.05474532  0.37864032  1  0  0.707196  0  3.885197  0  0  0.66185  0  4.174383  0  0  0.697932  0  4.166524  0  1.630348  0  0.229137  0.637877  0  4.18164  0
C  C54  1  0.67750197  0.05484210  0.87866191  1  0  0.708832  0  3.881697  0  0  0.663371  0  4.170942  0  0  0.699469  0  4.163123  0  1.626091  0  0.229599  0.639379  0  4.178217  0
C  C55  1  0.62260876  0.94525433  0.62135965  1  0  0.7071  0  3.885031  0  0  0.661591  0  4.174561  0  0  0.697674  0  4.166706  0  1.630541  0  0.228983  0.637617  0  4.181816  0
C  C56  1  0.29058984  0.63019025  0.96322939  1  0  -0.113986  0  3.747254  0  0  -0.087309  0  3.979433  0  0  -0.099751  0  4.002068  0  -0.026438  0  -0.010889  -0.079164  0  3.963214  0
C  C57  1  0.66042813  0.36975371  0.53675269  1  0  -0.114916  0  3.748981  0  0  -0.088565  0  3.98151  0  0  -0.100981  0  4.004101  0  0.027157  0  -0.011405  -0.080391  0  3.965241  0
C  C58  1  0.70940790  0.36980392  0.03676779  1  0  -0.113782  0  3.746985  0  0  -0.087068  0  3.979147  0  0  -0.099513  0  4.001792  0  -0.026149  0  -0.010804  -0.078924  0  3.962927  0
C  C59  1  0.33957524  0.63024959  0.46324875  1  0  -0.114828  0  3.748872  0  0  -0.088518  0  3.981476  0  0  -0.100938  0  4.004073  0  0.027406  0  -0.011403  -0.080346  0  3.96521  0
C  C60  1  0.96456057  0.93026601  0.98864795  1  0  0.557713  0  3.953839  0  0  0.512049  0  4.247744  0  0  0.542369  0  4.245609  0  1.6272  0  0.203534  0.490923  0  4.254588  0
C  C61  1  0.03432858  0.06973090  0.51128866  1  0  0.556491  0  3.95433  0  0  0.510397  0  4.249338  0  0  0.540707  0  4.247235  0  1.570942  0  0.202802  0.489233  0  4.256157  0
C  C62  1  0.03543643  0.06973090  0.01135360  1  0  0.557976  0  3.9535  0  0  0.512298  0  4.247409  0  0  0.542621  0  4.245268  0  1.595146  0  0.203585  0.491165  0  4.254255  0
C  C63  1  0.96566916  0.93026327  0.48870137  1  0  0.556318  0  3.954525  0  0  0.510589  0  4.249086  0  0  0.5409  0  4.246982  0  1.599127  0  0.20288  0.489428  0  4.255906  0
C  C64  1  0.07957987  0.86510392  0.20042034  1  0  -0.115574  0  3.70175  0  0  -0.137108  0  3.951153  0  0  -0.142192  0  3.971994  0  -0.105228  0  -0.072219  -0.133652  0  3.936813  0
C  C65  1  0.21430239  0.13480442  0.29962639  1  0  -0.115094  0  3.700801  0  0  -0.136004  0  3.949746  0  0  -0.141124  0  3.970606  0  0.010588  0  -0.072777  -0.132534  0  3.935502  0
C  C66  1  0.92041955  0.13489573  0.79957904  1  0  -0.115621  0  3.701825  0  0  -0.13717  0  3.951238  0  0  -0.142258  0  3.972083  0  -0.105207  0  -0.072238  -0.133715  0  3.936897  0
C  C67  1  0.78569975  0.86519431  0.70037352  1  0  -0.115171  0  3.700615  0  0  -0.136032  0  3.949594  0  0  -0.141121  0  3.970471  0  0.010685  0  -0.072758  -0.132564  0  3.935349  0
C  C68  1  0.32782982  0.55186956  0.00673160  1  0  0.094293  0  3.703138  0  0  0.054481  0  3.944486  0  0  0.063362  0  3.961796  0  0.5123  0  0.048887  0.048702  0  3.932727  0
C  C69  1  0.77592345  0.44816296  0.49327799  1  0  0.094809  0  3.703702  0  0  0.055624  0  3.944389  0  0  0.064242  0  3.96207  0  0.451871  0  0.048991  0.049884  0  3.932566  0
C  C70  1  0.67216717  0.44812735  0.99326578  1  0  0.094175  0  3.703011  0  0  0.05435  0  3.944383  0  0  0.063241  0  3.961668  0  0.512232  0  0.048807  0.048571  0  3.932626  0
C  C71  1  0.22408006  0.55183851  0.50672569  1  0  0.094768  0  3.703644  0  0  0.055565  0  3.944385  0  0  0.064198  0  3.962037  0  0.451853  0  0.048978  0.049824  0  3.932564  0
C  C72  1  0.15946025  0.58161792  0.91128993  1  0  -0.007712  0  3.671989  0  0  -0.034258  0  3.912952  0  0  -0.028374  0  3.928888  0  -0.06635  0  -0.052873  -0.037651  0  3.901549  0
C  C73  1  0.57772179  0.41818268  0.58869744  1  0  -0.006782  0  3.671289  0  0  -0.033154  0  3.912217  0  0  -0.027257  0  3.928163  0  -0.061414  0  -0.051992  -0.036548  0  3.900836  0
C  C74  1  0.84053357  0.41837899  0.08870864  1  0  -0.007921  0  3.672232  0  0  -0.034459  0  3.913195  0  0  -0.028578  0  3.929136  0  -0.066628  0  -0.052904  -0.037851  0  3.901791  0
C  C75  1  0.42227854  0.58181879  0.41130327  1  0  -0.006755  0  3.671236  0  0  -0.033093  0  3.912169  0  0  -0.027195  0  3.928115  0  -0.061541  0  -0.051944  -0.036487  0  3.900789  0
C  C76  1  0.00168340  0.80232667  0.26284598  1  0  0.114631  0  3.669964  0  0  0.084539  0  3.913985  0  0  0.090402  0  3.932939  0  0.520477  0  0.046625  0.080722  0  3.900871  0
C  C77  1  0.19919883  0.19757255  0.23718456  1  0  0.116073  0  3.668339  0  0  0.086002  0  3.912024  0  0  0.091834  0  3.931103  0  0.405343  0  0.048224  0.082144  0  3.89895  0
C  C78  1  0.99831859  0.19767389  0.73715465  1  0  0.114695  0  3.670135  0  0  0.084601  0  3.914153  0  0  0.090465  0  3.933108  0  0.520492  0  0.046674  0.080776  0  3.901043  0
C  C79  1  0.80080133  0.80242436  0.76281640  1  0  0.116029  0  3.668426  0  0  0.085961  0  3.912104  0  0  0.091794  0  3.931174  0  0.40537  0  0.048134  0.082106  0  3.899028  0
C  C80  1  0.20357982  0.74637249  0.29096622  1  0  0.118396  0  3.702339  0  0  0.08982  0  3.944642  0  0  0.096346  0  3.963191  0  0.446031  0  0.045779  0.085481  0  3.931872  0
C  C81  1  0.45710115  0.25362807  0.20909758  1  0  0.119805  0  3.702362  0  0  0.090965  0  3.944828  0  0  0.097522  0  3.963358  0  0.469633  0  0.045967  0.086599  0  3.932117  0
C  C82  1  0.79642354  0.25363081  0.70903522  1  0  0.11841  0  3.702333  0  0  0.089829  0  3.944628  0  0  0.096357  0  3.963175  0  0.446417  0  0.045781  0.085489  0  3.931854  0
C  C83  1  0.54290010  0.74637523  0.79090326  1  0  0.119676  0  3.702248  0  0  0.090831  0  3.944706  0  0  0.097387  0  3.963238  0  0.469507  0  0.045949  0.086465  0  3.931998  0
C  C84  1  0.11659314  0.38387555  0.94994255  1  0  0.139041  0  3.653566  0  0  0.105325  0  3.897282  0  0  0.114181  0  3.915271  0  0.464906  0  0.054442  0.099687  0  3.884768  0
C  C85  1  0.73246288  0.61600905  0.55011132  1  0  0.139175  0  3.655486  0  0  0.106521  0  3.899027  0  0  0.115311  0  3.916965  0  0.500601  0  0.05472  0.100937  0  3.886673  0
C  C86  1  0.88340477  0.61612318  0.05005616  1  0  0.138996  0  3.653575  0  0  0.10531  0  3.897296  0  0  0.114162  0  3.915284  0  0.464885  0  0.054436  0.099671  0  3.884786  0
C  C87  1  0.26753534  0.38399242  0.44988938  1  0  0.139232  0  3.655431  0  0  0.106571  0  3.898973  0  0  0.115359  0  3.916912  0  0.500629  0  0.054744  0.100987  0  3.886618  0
C  C88  1  0.07332548  0.45606433  0.90361672  1  0  -0.121393  0  3.743263  0  0  -0.130497  0  3.992856  0  0  -0.13968  0  4.016929  0  -0.000676  0  -0.081553  -0.124697  0  3.976755  0
C  C89  1  0.61704161  0.54375363  0.59642499  1  0  -0.121152  0  3.743764  0  0  -0.130963  0  3.993152  0  0  -0.140169  0  4.017251  0  -0.034322  0  -0.081401  -0.125163  0  3.976973  0
C  C90  1  0.92667137  0.54393441  0.09638378  1  0  -0.121302  0  3.743284  0  0  -0.130439  0  3.99288  0  0  -0.139623  0  4.016954  0  -0.000543  0  -0.081541  -0.12464  0  3.976779  0
C  C91  1  0.38295767  0.45624785  0.40357453  1  0  -0.121194  0  3.743693  0  0  -0.131012  0  3.993091  0  0  -0.140218  0  4.01719  0  -0.034296  0  -0.081418  -0.125211  0  3.976913  0
C  C92  1  0.22063109  0.92912381  0.74518115  1  0  0.544206  0  3.970232  0  0  0.501883  0  4.273862  0  0  0.531161  0  4.272618  0  1.62819  0  0.202374  0.481728  0  4.279743  0
C  C93  1  0.29139132  0.07083019  0.75486902  1  0  0.54272  0  3.971733  0  0  0.500128  0  4.275832  0  0  0.529395  0  4.274632  0  1.532726  0  0.202429  0.479975  0  4.281696  0
C  C94  1  0.77936530  0.07087401  0.25482405  1  0  0.544057  0  3.969943  0  0  0.501691  0  4.273686  0  0  0.530967  0  4.272449  0  1.627909  0  0.202297  0.481538  0  4.27956  0
C  C95  1  0.70861277  0.92916399  0.24513412  1  0  0.542697  0  3.971572  0  0  0.50006  0  4.275773  0  0  0.529328  0  4.274579  0  1.531788  0  0.202414  0.479907  0  4.281635  0
N  N96  1  0.06335278  0.74470165  0.30838614  1  0  -0.297249  0  3.375828  0  0  -0.208109  0  3.662669  0  0  -0.226203  0  3.677587  0  -1.201143  0  -0.349355  -0.195757  0  3.651956  0
N  N97  1  0.31851635  0.25523318  0.19166198  1  0  -0.299074  0  3.376724  0  0  -0.209674  0  3.663292  0  0  -0.227809  0  3.678267  0  -1.186585  0  -0.349893  -0.197303  0  3.652591  0
N  N98  1  0.93665164  0.25530165  0.69161590  1  0  -0.297278  0  3.375969  0  0  -0.20815  0  3.662832  0  0  -0.226244  0  3.677749  0  -1.201049  0  -0.349372  -0.195794  0  3.652115  0
N  N99  1  0.68148504  0.74476830  0.80833932  1  0  -0.298943  0  3.376723  0  0  -0.209538  0  3.663274  0  0  -0.227674  0  3.678254  0  -1.186629  0  -0.349857  -0.197168  0  3.652572  0
N  N100  1  0.24101432  0.43114224  0.00146433  1  0  -0.294403  0  3.367619  0  0  -0.200299  0  3.645387  0  0  -0.221176  0  3.662102  0  -1.201869  0  -0.346407  -0.186241  0  3.633481  0
N  N101  1  0.80970503  0.56886654  0.49855897  1  0  -0.294425  0  3.367304  0  0  -0.201818  0  3.646368  0  0  -0.222497  0  3.662813  0  -1.196959  0  -0.346561  -0.187812  0  3.634472  0
N  N102  1  0.75898464  0.56885649  0.99853319  1  0  -0.294362  0  3.367678  0  0  -0.200304  0  3.645499  0  0  -0.221173  0  3.66221  0  -1.201902  0  -0.346432  -0.186247  0  3.633595  0
N  N103  1  0.19029545  0.43113311  0.50144279  1  0  -0.294462  0  3.367306  0  0  -0.201836  0  3.646355  0  0  -0.222518  0  3.662805  0  -1.197014  0  -0.346571  -0.18783  0  3.634458  0
O  O104  1  0.03506498  0.88465100  0.94030363  1  0  -0.664269  0  2.064804  0  0  -0.619067  0  2.323233  0  0  -0.651984  0  2.310426  0  -1.178746  0  -0.371859  -0.602464  0  2.330261  0
O  O105  1  0.15046824  0.11537513  0.55962505  1  0  -0.66311  0  2.063681  0  0  -0.617716  0  2.321926  0  0  -0.650546  0  2.309116  0  -1.163871  0  -0.371173  -0.600977  0  2.328996  0
O  O106  1  0.96492432  0.11534956  0.05969820  1  0  -0.664378  0  2.064517  0  0  -0.619173  0  2.322976  0  0  -0.652097  0  2.31015  0  -1.178756  0  -0.371888  -0.602569  0  2.330007  0
O  O107  1  0.84950695  0.88460991  0.44036369  1  0  -0.66321  0  2.063605  0  0  -0.617871  0  2.321589  0  0  -0.650706  0  2.30879  0  -1.163661  0  -0.371289  -0.601124  0  2.328645  0
O  O108  1  0.52287417  0.79803542  0.00646019  1  0  -0.716785  0  2.057688  0  0  -0.666156  0  2.322931  0  0  -0.70192  0  2.307571  0  -1.185502  0  -0.378803  -0.64829  0  2.331087  0
O  O109  1  0.72527706  0.20212492  0.49349230  1  0  -0.716363  0  2.055897  0  0  -0.6656  0  2.321059  0  0  -0.701222  0  2.3056  0  -1.183873  0  -0.378243  -0.647896  0  2.329471  0
O  O110  1  0.47712783  0.20196514  0.99353687  1  0  -0.716757  0  2.057776  0  0  -0.666095  0  2.32306  0  0  -0.701854  0  2.307711  0  -1.184919  0  -0.378741  -0.648228  0  2.331216  0
O  O111  1  0.27472508  0.79787382  0.50650880  1  0  -0.716339  0  2.056252  0  0  -0.665558  0  2.321448  0  0  -0.701181  0  2.30599  0  -1.184604  0  -0.378239  -0.64786  0  2.329861  0
O  O112  1  0.21076568  0.87865786  0.80858859  1  0  -0.647623  0  2.032731  0  0  -0.605307  0  2.279699  0  0  -0.636374  0  2.267077  0  -1.166269  0  -0.369217  -0.589584  0  2.286345  0
O  O113  1  0.33200092  0.12128061  0.69145206  1  0  -0.647221  0  2.032946  0  0  -0.604924  0  2.280159  0  0  -0.635978  0  2.267512  0  -1.178499  0  -0.369174  -0.58923  0  2.286825  0
O  O114  1  0.78922980  0.12133813  0.19141825  1  0  -0.647559  0  2.032746  0  0  -0.605217  0  2.27975  0  0  -0.636291  0  2.267129  0  -1.166048  0  -0.369142  -0.589495  0  2.286391  0
O  O115  1  0.66799788  0.87871356  0.30855167  1  0  -0.647159  0  2.032869  0  0  -0.604852  0  2.280129  0  0  -0.635899  0  2.267486  0  -1.177607  0  -0.369158  -0.589156  0  2.286791  0
O  O116  1  0.25489639  0.98442061  0.07311700  1  0  -0.709416  0  2.037174  0  0  -0.660182  0  2.287992  0  0  -0.696028  0  2.277635  0  -1.187096  0  -0.364754  -0.641513  0  2.292728  0
O  O117  1  0.27055449  0.01520105  0.42684021  1  0  -0.709511  0  2.038484  0  0  -0.660364  0  2.289095  0  0  -0.696264  0  2.278859  0  -1.198353  0  -0.365051  -0.641709  0  2.293878  0
O  O118  1  0.74509712  0.01557357  0.92688375  1  0  -0.709405  0  2.037248  0  0  -0.660195  0  2.288104  0  0  -0.696013  0  2.277689  0  -1.187187  0  -0.364741  -0.641528  0  2.292835  0
O  O119  1  0.72946460  0.98480408  0.57316077  1  0  -0.709511  0  2.038205  0  0  -0.660284  0  2.288866  0  0  -0.696183  0  2.278634  0  -1.198457  0  -0.364944  -0.641626  0  2.293646  0
O  O120  1  0.32549187  0.83366828  0.95498897  1  0  -0.728415  0  2.112216  0  0  -0.678613  0  2.377956  0  0  -0.716436  0  2.364652  0  -1.198329  0  -0.395468  -0.660561  0  2.385106  0
O  O121  1  0.49220663  0.16616064  0.54499338  1  0  -0.729976  0  2.1113  0  0  -0.68003  0  2.377165  0  0  -0.717836  0  2.363757  0  -1.199795  0  -0.395714  -0.662124  0  2.384525  0
O  O122  1  0.67450768  0.16632316  0.04500681  1  0  -0.728537  0  2.112063  0  0  -0.678673  0  2.377835  0  0  -0.716499  0  2.364507  0  -1.198118  0  -0.395533  -0.660613  0  2.384967  0
O  O123  1  0.50779946  0.83384175  0.45500442  1  0  -0.730091  0  2.110889  0  0  -0.680134  0  2.376788  0  0  -0.717939  0  2.363386  0  -1.199671  0  -0.395798  -0.66222  0  2.384131  0
O  O124  1  0.17949683  0.87577451  0.67453189  1  0  -0.667415  0  2.011479  0  0  -0.62545  0  2.254074  0  0  -0.656786  0  2.239636  0  -1.176538  0  -0.388573  -0.610132  0  2.26151  0
O  O125  1  0.30352839  0.12420779  0.82550193  1  0  -0.666722  0  2.012299  0  0  -0.624618  0  2.254958  0  0  -0.655991  0  2.240588  0  -1.179345  0  -0.388346  -0.609288  0  2.262406  0
O  O126  1  0.82051032  0.12422787  0.32547305  1  0  -0.667315  0  2.011248  0  0  -0.625332  0  2.253882  0  0  -0.656665  0  2.239448  0  -1.17644  0  -0.388564  -0.610011  0  2.261313  0
O  O127  1  0.69647254  0.87579277  0.17449692  1  0  -0.66671  0  2.012347  0  0  -0.62458  0  2.255039  0  0  -0.655963  0  2.240667  0  -1.179348  0  -0.388344  -0.609253  0  2.262486  0
O  O128  1  0.46296705  0.96058411  0.12153375  1  0  -0.751692  0  2.108353  0  0  -0.7018  0  2.370285  0  0  -0.740735  0  2.359205  0  -1.201786  0  -0.396427  -0.683122  0  2.375954  0
O  O129  1  0.50260601  0.03958353  0.37838294  1  0  -0.750225  0  2.10903  0  0  -0.700597  0  2.371371  0  0  -0.739477  0  2.360313  0  -1.197517  0  -0.39636  -0.681831  0  2.37692  0
O  O130  1  0.53703571  0.03942010  0.87846597  1  0  -0.751703  0  2.108301  0  0  -0.701824  0  2.370224  0  0  -0.740749  0  2.359152  0  -1.201799  0  -0.39646  -0.683145  0  2.375892  0
O  O131  1  0.49740248  0.96041520  0.62161339  1  0  -0.750157  0  2.109269  0  0  -0.700453  0  2.371683  0  0  -0.739335  0  2.36063  0  -1.197645  0  -0.3963  -0.68169  0  2.377234  0
O  O132  1  0.83899033  0.87123766  0.02033460  1  0  -0.65662  0  2.11925  0  0  -0.596395  0  2.381741  0  0  -0.630862  0  2.369079  0  -1.174944  0  -0.371371  -0.578367  0  2.389138  0
O  O133  1  0.96790025  0.12872912  0.47947521  1  0  -0.6566  0  2.120201  0  0  -0.596109  0  2.38238  0  0  -0.630575  0  2.369864  0  -1.165708  0  -0.371383  -0.578031  0  2.38969  0
O  O134  1  0.16100078  0.12876016  0.97966762  1  0  -0.656684  0  2.11925  0  0  -0.59648  0  2.381767  0  0  -0.630933  0  2.369099  0  -1.175292  0  -0.371385  -0.578481  0  2.389241  0
O  O135  1  0.03208830  0.87127419  0.52051670  1  0  -0.656537  0  2.120465  0  0  -0.596145  0  2.382443  0  0  -0.630608  0  2.369921  0  -1.165612  0  -0.371404  -0.578062  0  2.38973  0
