# generated using pymatgen
data_CuH15C14N3ClO2
_symmetry_space_group_name_H-M   'P 1'
_cell_length_a   7.76334313
_cell_length_b   8.63029705
_cell_length_c   11.07376279
_cell_angle_alpha   87.32229016
_cell_angle_beta   74.36394012
_cell_angle_gamma   87.72015625
_symmetry_Int_Tables_number   1
_chemical_formula_structural   CuH15C14N3ClO2
_chemical_formula_sum   'Cu2 H30 C28 N6 Cl2 O4'
_cell_volume   713.41943151
_cell_formula_units_Z   2
loop_
 _symmetry_equiv_pos_site_id
 _symmetry_equiv_pos_as_xyz
  1  'x, y, z'
loop_
 _atom_site_type_symbol
 _atom_site_label
 _atom_site_symmetry_multiplicity
 _atom_site_fract_x
 _atom_site_fract_y
 _atom_site_fract_z
 _atom_site_occupancy
 _atom_site_hle17_ddec_charge
 _atom_site_hle17_ddec_spin_density
 _atom_site_hle17_ddec_sum_bond_order
 _atom_site_hle17_magmom
 _atom_site_hse06_10hf_ddec_charge
 _atom_site_hse06_10hf_ddec_spin_density
 _atom_site_hse06_10hf_ddec_sum_bond_order
 _atom_site_hse06_10hf_magmom
 _atom_site_hse06_ddec_charge
 _atom_site_hse06_ddec_spin_density
 _atom_site_hse06_ddec_sum_bond_order
 _atom_site_hse06_magmom
 _atom_site_pbe_cm5_charge
 _atom_site_pbe_ddec_charge
 _atom_site_pbe_ddec_spin_density
 _atom_site_pbe_ddec_sum_bond_order
 _atom_site_pbe_magmom
Cu  Cu0  1  0.60802848  0.93106867  0.33797037  1  0.767601  0.682537  1.877488  0.471  0.737075  0.768282  2.284032  0.585  0.833887  0.850107  2.204672  0.672  0.658386  0.681086  0.710376  2.335176  0.53
Cu  Cu1  1  0.39197225  0.06893256  0.66202850  1  0.767627  -0.682539  1.877438  -0.471  0.737098  -0.768281  2.283897  -0.585  0.833877  -0.850108  2.204619  -0.672  0.658419  0.681149  -0.71038  2.335051  -0.53
H  H2  1  0.90720223  0.63198166  0.23959628  1  0.309678  0.000143  0.936719  0.0  0.289876  0.000105  1.005861  0.0  0.298061  7.2e-05  0.999195  0.0  0.307711  0.284066  0.000134  1.010689  0.0
H  H3  1  0.09279722  0.36801723  0.76040470  1  0.309647  -0.000143  0.936788  0.0  0.289852  -0.000105  1.005925  0.0  0.298038  -7.2e-05  0.999259  0.0  0.307719  0.284038  -0.000134  1.010752  0.0
H  H4  1  0.28103479  0.99167162  0.27835201  1  0.082365  0.00071  0.947767  0.002  0.090709  0.000689  1.013171  0.001  0.092561  0.0005  1.01051  0.001  0.11427  0.089102  0.000826  1.015347  0.002
H  H5  1  0.71895647  0.00833189  0.72165396  1  0.082397  -0.00071  0.947672  -0.002  0.09073  -0.000689  1.013111  -0.001  0.092586  -0.0005  1.010447  -0.001  0.114259  0.089122  -0.000826  1.015297  -0.002
H  H6  1  0.03007549  0.84576072  0.24326094  1  0.123535  0.000363  0.957962  0.001  0.129809  0.000301  1.022837  0.0  0.133274  0.0002  1.021683  0.0  0.111348  0.127067  0.000378  1.024241  0.001
H  H7  1  0.96992126  0.15423814  0.75674416  1  0.123507  -0.000363  0.957964  -0.001  0.129796  -0.000301  1.022821  0.0  0.133262  -0.0002  1.021666  0.0  0.11134  0.127048  -0.000378  1.024235  -0.001
H  H8  1  0.25443988  0.43449746  0.39322915  1  0.117233  -0.000464  1.006988  0.0  0.126526  -0.000499  1.069905  0.0  0.130754  -0.000395  1.067331  0.0  0.094246  0.123581  -0.000579  1.071738  0.0
H  H9  1  0.74556758  0.56550262  0.60676669  1  0.117244  0.000464  1.006959  0.0  0.12649  0.000499  1.069924  0.0  0.130718  0.000395  1.067349  0.0  0.094205  0.123543  0.000579  1.071767  0.0
H  H10  1  0.49146523  0.59765396  0.41973349  1  0.079492  0.000888  0.942567  0.001  0.087869  0.000785  1.008311  0.001  0.089507  0.000585  1.006216  0.001  0.111826  0.086468  0.000929  1.009953  0.001
H  H11  1  0.50853676  0.40234959  0.58026507  1  0.079528  -0.000888  0.942535  -0.001  0.087905  -0.000785  1.008281  -0.001  0.089544  -0.000585  1.006185  -0.001  0.111824  0.086506  -0.000929  1.009922  -0.001
H  H12  1  0.92319030  0.04206592  0.42577602  1  0.074108  0.000766  0.966948  0.001  0.081862  0.000689  1.035812  0.001  0.083229  0.000521  1.034186  0.001  0.106064  0.080764  0.00081  1.036925  0.001
H  H13  1  0.07680914  0.95793295  0.57422767  1  0.07412  -0.000766  0.966966  -0.001  0.081866  -0.000689  1.035834  -0.001  0.083231  -0.000521  1.034209  -0.001  0.106081  0.080768  -0.000809  1.036945  -0.001
H  H14  1  0.07464990  0.28726822  0.41358603  1  0.115567  -0.000629  1.014866  0.0  0.125494  -0.000644  1.075976  0.0  0.129192  -0.000497  1.074385  0.0  0.091785  0.122959  -0.000756  1.07706  0.0
H  H15  1  0.92534682  0.71273180  0.58641904  1  0.115579  0.000629  1.014877  0.0  0.12549  0.000644  1.075985  0.0  0.129189  0.000497  1.074394  0.0  0.091801  0.122954  0.000757  1.077077  0.0
H  H16  1  0.73119818  0.47731920  0.18825350  1  0.12786  0.000431  0.964553  0.0  0.137119  0.000371  1.025532  0.0  0.140897  0.000283  1.024609  0.0  0.113514  0.134379  0.000434  1.026429  0.001
H  H17  1  0.26880950  0.52267393  0.81174070  1  0.12789  -0.000431  0.964521  0.0  0.1372  -0.000371  1.025435  0.0  0.140984  -0.000283  1.024498  0.0  0.113569  0.13443  -0.000434  1.026367  -0.001
H  H18  1  0.59823718  0.21649966  0.20765235  1  0.089957  0.000619  0.947188  0.002  0.100023  0.000624  1.00835  0.001  0.102597  0.000458  1.005025  0.001  0.118418  0.09796  0.000748  1.010999  0.002
H  H19  1  0.40176909  0.78349579  0.79234204  1  0.089889  -0.000619  0.947207  -0.002  0.10007  -0.000624  1.008253  -0.001  0.102645  -0.000458  1.004924  -0.001  0.118462  0.097965  -0.000747  1.010963  -0.002
H  H20  1  0.84232037  0.85988535  0.90380636  1  0.10231  -0.000129  0.921112  0.0  0.119292  -1.4e-05  0.975094  0.0  0.119974  -7.2e-05  0.976298  0.0  0.098001  0.118864  4.5e-05  0.974199  0.0
H  H21  1  0.15767895  0.14011820  0.09619269  1  0.102357  0.000129  0.92108  0.0  0.119311  1.4e-05  0.9751  0.0  0.119987  7.2e-05  0.9763  0.0  0.097999  0.118883  -4.5e-05  0.974196  0.0
H  H22  1  0.60748114  0.89713830  0.93841721  1  0.10753  -0.000323  0.949712  0.0  0.120468  -3.4e-05  1.013315  0.0  0.123947  -9e-06  1.010902  0.0  0.094901  0.118043  -5.9e-05  1.014997  0.0
H  H23  1  0.39251840  0.10285830  0.06158112  1  0.107545  0.000323  0.9497  0.0  0.120521  3.3e-05  1.01326  0.0  0.12398  9e-06  1.01086  0.0  0.09496  0.11809  5.9e-05  1.014944  0.0
H  H24  1  0.70048803  0.64194615  0.83653214  1  0.055052  0.000749  0.953409  0.001  0.073302  0.0005  1.019014  0.001  0.072478  0.000299  1.02155  0.0  0.08214  0.073852  0.000671  1.017303  0.001
H  H25  1  0.29951265  0.35805624  0.16346760  1  0.05501  -0.000749  0.953451  -0.001  0.073258  -0.0005  1.019042  -0.001  0.072433  -0.000299  1.02158  0.0  0.082141  0.073801  -0.000671  1.017332  -0.001
H  H26  1  0.79900221  0.58073063  0.95759271  1  0.065436  -8.9e-05  0.934222  0.0  0.082715  -4.1e-05  0.996213  0.0  0.084103  -2.4e-05  0.995693  0.0  0.08613  0.081658  -5.3e-05  0.996701  0.0
H  H27  1  0.20100919  0.41927177  0.04240232  1  0.065424  8.8e-05  0.934187  0.0  0.082696  4.1e-05  0.99618  0.0  0.084083  2.4e-05  0.995662  0.0  0.08614  0.081637  5.3e-05  0.996664  0.0
H  H28  1  0.39812491  0.65534366  0.99250413  1  0.059682  -2e-06  0.931628  0.0  0.082423  -1.1e-05  0.986968  0.0  0.082876  -6e-06  0.987754  0.0  0.08596  0.082047  -1.7e-05  0.986482  0.0
H  H29  1  0.60188543  0.34464942  0.00749409  1  0.059797  2e-06  0.931592  0.0  0.082461  1.1e-05  0.986969  0.0  0.082914  6e-06  0.987756  0.0  0.085997  0.082086  1.7e-05  0.986484  0.0
H  H30  1  0.49495657  0.59669392  0.11393111  1  0.056542  -2e-06  0.957816  0.0  0.075393  -2e-06  1.020894  0.0  0.075029  -7e-06  1.02345  0.0  0.081701  0.075582  5e-06  1.019208  0.0
H  H31  1  0.50505209  0.40330959  0.88606892  1  0.056574  2e-06  0.957827  0.0  0.075375  1e-06  1.020911  0.0  0.075009  6e-06  1.02347  0.0  0.081711  0.07556  -5e-06  1.019224  0.0
C  C32  1  0.26909544  0.86812238  0.30197853  1  0.135669  -0.003497  3.741868  -0.004  0.106236  0.000811  3.996572  0.0  0.118315  -0.000188  4.014862  -0.001  0.036511  0.09863  0.001581  3.984604  0.001
C  C33  1  0.73090239  0.13188459  0.69802701  1  0.135686  0.003497  3.741822  0.004  0.106247  -0.000811  3.996549  0.0  0.11832  0.000188  4.014838  0.001  0.036508  0.098647  -0.001581  3.984586  -0.001
C  C34  1  0.13018565  0.78719983  0.28313276  1  -0.221318  0.007399  3.695944  0.008  -0.235139  0.003322  3.945468  0.004  -0.246118  0.002919  3.963688  0.004  -0.090642  -0.228067  0.00357  3.933372  0.004
C  C35  1  0.86980709  0.21279904  0.71687308  1  -0.221239  -0.007399  3.696  -0.008  -0.235098  -0.003322  3.945525  -0.004  -0.246076  -0.002919  3.963743  -0.004  -0.090615  -0.228023  -0.003569  3.933419  -0.004
C  C36  1  0.11774471  0.62627541  0.31339640  1  0.317017  -0.004827  3.772038  -0.005  0.303184  -0.001545  4.02157  -0.002  0.320118  -0.001707  4.037112  -0.002  0.125794  0.29195  -0.001369  4.010735  -0.001
C  C37  1  0.88225329  0.37372696  0.68660565  1  0.316981  0.004828  3.771831  0.005  0.30319  0.001545  4.021295  0.002  0.320127  0.001708  4.036832  0.002  0.12578  0.291957  0.001369  4.010443  0.001
C  C38  1  0.25026014  0.55670853  0.36533154  1  -0.238237  0.006247  3.684129  0.006  -0.254082  0.002148  3.934681  0.002  -0.265704  0.001932  3.952262  0.002  -0.101251  -0.246558  0.002257  3.922729  0.003
C  C39  1  0.74974326  0.44329269  0.63466773  1  -0.238232  -0.006246  3.684117  -0.006  -0.254007  -0.002148  3.934618  -0.002  -0.26563  -0.001932  3.952198  -0.002  -0.101209  -0.246486  -0.002256  3.922669  -0.003
C  C40  1  0.38603710  0.64787112  0.38079780  1  0.148345  -0.005072  3.718198  -0.005  0.117755  -0.000383  3.978075  -0.001  0.130478  -0.001316  3.996813  -0.002  0.044587  0.109861  0.000368  3.965633  0.0
C  C41  1  0.61396489  0.35213242  0.61920166  1  0.148232  0.005074  3.71821  0.005  0.117612  0.000383  3.978073  0.001  0.130338  0.001317  3.996805  0.002  0.044566  0.109721  -0.000368  3.96563  0.0
C  C42  1  0.88723727  0.14102197  0.37192132  1  0.145937  -0.005242  3.728102  -0.006  0.117568  -0.00067  3.983151  -0.001  0.129343  -0.00158  4.003787  -0.002  0.040353  0.110312  2.9e-05  3.969339  -0.001
C  C43  1  0.11276218  0.85897692  0.62807966  1  0.145997  0.005247  3.728115  0.006  0.117607  0.000671  3.983145  0.001  0.129384  0.001582  4.00378  0.002  0.040377  0.110351  -2.8e-05  3.969346  0.001
C  C44  1  0.97138730  0.28134121  0.36470587  1  -0.236415  0.006077  3.69621  0.006  -0.251152  0.001962  3.942297  0.002  -0.263428  0.00193  3.962291  0.002  -0.101779  -0.243165  0.001938  3.928671  0.002
C  C45  1  0.02861483  0.71865769  0.63529371  1  -0.236536  -0.006079  3.696338  -0.006  -0.251212  -0.001961  3.942407  -0.002  -0.26349  -0.001931  3.962402  -0.002  -0.101833  -0.24323  -0.001938  3.928802  -0.002
C  C46  1  0.91562475  0.40831835  0.29870770  1  0.314383  -0.005876  3.78599  -0.006  0.30104  -0.002125  4.03493  -0.002  0.317715  -0.00224  4.051264  -0.002  0.124072  0.289993  -0.002001  4.02359  -0.002
C  C47  1  0.08437606  0.59168057  0.70129031  1  0.314441  0.005879  3.785903  0.006  0.30106  0.002125  4.034889  0.002  0.317736  0.002242  4.051226  0.002  0.124086  0.290017  0.002001  4.023539  0.002
C  C48  1  0.77768485  0.38268660  0.24118138  1  -0.22803  0.007882  3.689762  0.008  -0.242033  0.00356  3.936485  0.004  -0.253234  0.00324  3.954173  0.004  -0.092865  -0.234827  0.003741  3.924653  0.004
C  C49  1  0.22232404  0.61730997  0.75881701  1  -0.228096  -0.007886  3.68965  -0.008  -0.242149  -0.003559  3.936409  -0.004  -0.253352  -0.003242  3.954098  -0.004  -0.092953  -0.234906  -0.003741  3.924575  -0.004
C  C50  1  0.70323478  0.23890536  0.25213557  1  0.141159  -0.004294  3.739424  -0.005  0.111332  0.000181  3.992404  0.0  0.123931  -0.000813  4.009056  -0.002  0.035638  0.10337  0.000933  3.981506  0.0
C  C51  1  0.29677014  0.76109007  0.74786178  1  0.141324  0.004297  3.739285  0.005  0.111401  -0.000182  3.992249  0.0  0.124  0.000814  4.008897  0.002  0.035663  0.103469  -0.000933  3.981369  0.0
C  C52  1  0.70956652  0.84386754  0.09796830  1  0.695613  -0.005026  3.82305  -0.009  0.65913  -0.000439  4.122275  -0.004  0.695447  -0.001081  4.117183  -0.004  0.204715  0.634625  0.000165  4.125344  -0.003
C  C53  1  0.29043560  0.15613135  0.90203218  1  0.69562  0.005027  3.823153  0.009  0.659169  0.000441  4.122344  0.004  0.695483  0.001081  4.117238  0.004  0.20466  0.634672  -0.000165  4.125408  0.003
C  C54  1  0.71136505  0.82130803  0.96243723  1  -0.265112  0.010105  3.661343  0.011  -0.30135  0.006319  3.909364  0.007  -0.307653  0.004378  3.917015  0.005  -0.168655  -0.296815  0.007613  3.903686  0.008
C  C55  1  0.28863568  0.17869320  0.03756164  1  -0.265173  -0.010105  3.661345  -0.011  -0.301443  -0.006319  3.909369  -0.007  -0.307708  -0.004377  3.916993  -0.005  -0.168693  -0.296916  -0.007613  3.903686  -0.008
C  C56  1  0.68808690  0.65136620  0.93734231  1  -0.08289  0.001782  3.697129  0.002  -0.125579  0.001433  3.963873  0.001  -0.126044  0.000926  3.979001  0.001  -0.169538  -0.125087  0.001827  3.953285  0.002
C  C57  1  0.31191916  0.34863500  0.06265827  1  -0.082857  -0.001782  3.69709  -0.002  -0.12552  -0.001433  3.963775  -0.001  -0.125991  -0.000926  3.978894  -0.001  -0.169595  -0.125021  -0.001827  3.95317  -0.002
C  C58  1  0.50962336  0.58513819  0.01289247  1  -0.110962  -0.0001  3.682617  0.0  -0.148459  -1.8e-05  3.942771  0.0  -0.149679  -2e-05  3.958273  0.0  -0.171599  -0.147424  -1.5e-05  3.931891  0.0
C  C59  1  0.49038818  0.41485834  0.98710994  1  -0.11108  0.000101  3.682622  0.0  -0.148417  1.8e-05  3.942681  0.0  -0.149638  2e-05  3.958186  0.0  -0.171561  -0.14738  1.5e-05  3.931799  0.0
N  N60  1  0.39804083  0.80019797  0.34962400  1  -0.326537  0.076748  3.37669  0.093  -0.274184  0.05321  3.668775  0.068  -0.310412  0.044781  3.694555  0.06  -0.367825  -0.252861  0.057078  3.653531  0.071
N  N61  1  0.60195583  0.19980439  0.65037920  1  -0.326552  -0.076744  3.376593  -0.093  -0.274146  -0.053208  3.66859  -0.068  -0.310376  -0.044781  3.694399  -0.06  -0.367793  -0.252846  -0.057078  3.65337  -0.071
N  N62  1  0.97755429  0.55680269  0.28543696  1  -0.399867  -0.000986  3.367548  -0.001  -0.339476  -0.000648  3.596289  -0.001  -0.362019  -0.000861  3.606015  -0.001  -0.389745  -0.324001  -0.000434  3.589177  0.0
N  N63  1  0.02244917  0.44319618  0.71456508  1  -0.39986  0.000986  3.367424  0.001  -0.339491  0.000647  3.596178  0.001  -0.362036  0.00086  3.605906  0.001  -0.389759  -0.32401  0.000434  3.589053  0.0
N  N64  1  0.75567814  0.11789114  0.31730600  1  -0.331238  0.076957  3.378532  0.093  -0.2812  0.053282  3.674956  0.069  -0.317293  0.045002  3.698665  0.061  -0.371166  -0.260057  0.057046  3.661186  0.071
N  N65  1  0.24432536  0.88210660  0.68269336  1  -0.331354  -0.076961  3.378416  -0.093  -0.281287  -0.053282  3.674825  -0.069  -0.317375  -0.045002  3.698539  -0.061  -0.371215  -0.260147  -0.057043  3.661062  -0.071
Cl  Cl66  1  0.67095826  0.82992039  0.51492927  1  -0.553218  0.096412  0.995671  0.107  -0.550401  0.065216  1.302389  0.076  -0.577996  0.052336  1.274245  0.063  -0.294862  -0.533448  0.072283  1.32254  0.082
Cl  Cl67  1  0.32903712  0.17008086  0.48506879  1  -0.553196  -0.096411  0.995627  -0.107  -0.550389  -0.065216  1.302316  -0.076  -0.577976  -0.052335  1.274188  -0.063  -0.294862  -0.533442  -0.072285  1.322469  -0.082
O  O68  1  0.61421896  0.95913000  0.15311984  1  -0.5834  0.119925  2.025148  0.153  -0.555914  0.077869  2.296709  0.11  -0.603132  0.060033  2.292891  0.09  -0.315875  -0.525501  0.087957  2.299406  0.119
O  O69  1  0.38578447  0.04087005  0.84688037  1  -0.583433  -0.11993  2.025224  -0.153  -0.55596  -0.077875  2.296771  -0.11  -0.603176  -0.060034  2.292967  -0.09  -0.315856  -0.525557  -0.087956  2.299477  -0.119
O  O70  1  0.79640532  0.75102767  0.15219104  1  -0.654842  0.000725  1.978433  0.002  -0.617251  -8.1e-05  2.221717  0.001  -0.645015  -0.001018  2.211238  0.0  -0.332304  -0.59842  0.000829  2.22884  0.002
O  O71  1  0.20359410  0.24897238  0.84780991  1  -0.654811  -0.000726  1.978411  -0.002  -0.617268  8e-05  2.221715  -0.001  -0.645032  0.001017  2.211235  0.0  -0.332287  -0.598435  -0.000829  2.228828  -0.002
