# generated using pymatgen
data_AlH18(C9O2)3
_symmetry_space_group_name_H-M   'P 1'
_cell_length_a   3.95537433
_cell_length_b   28.99914166
_cell_length_c   29.00018424
_cell_angle_alpha   120.00024151
_cell_angle_beta   90.00019302
_cell_angle_gamma   90.00628057
_symmetry_Int_Tables_number   1
_chemical_formula_structural   AlH18(C9O2)3
_chemical_formula_sum   'Al2 H36 C54 O12'
_cell_volume   2880.73336054
_cell_formula_units_Z   2
loop_
 _symmetry_equiv_pos_site_id
 _symmetry_equiv_pos_as_xyz
  1  'x, y, z'
loop_
 _atom_site_type_symbol
 _atom_site_label
 _atom_site_symmetry_multiplicity
 _atom_site_fract_x
 _atom_site_fract_y
 _atom_site_fract_z
 _atom_site_occupancy
 _atom_site_pbe_bader_charge
 _atom_site_pbe_bader_spin_density
 _atom_site_pbe_cm5_charge
 _atom_site_pbe_ddec_charge
 _atom_site_pbe_ddec_spin_density
 _atom_site_pbe_ddec_sum_bond_order
 _atom_site_pbe_magmom
Al  Al0  1  0.01963663  0.49999828  0.50000020  1  2.502425  0  0.423903  1.589624  0  2.577588  0
Al  Al1  1  0.01933532  0.16667096  0.83334021  1  2.502567  0  0.424112  1.589041  0  2.57822  0
H  H2  1  0.43125984  0.16761661  0.68843121  1  0.095571  0  0.106298  0.108227  0  0.988623  0
H  H3  1  0.42823413  0.21558946  0.63702287  1  0.07694  0  0.103679  0.105361  0  0.992867  0
H  H4  1  0.51023631  0.36457654  0.78416130  1  0.024266  0  0.101899  0.106513  0  0.996282  0
H  H5  1  0.51026854  0.30208829  0.54917847  1  0.02417  0  0.101892  0.106577  0  0.996264  0
H  H6  1  0.43177824  0.49905285  0.64489994  1  0.095481  0  0.106305  0.108267  0  0.988504  0
H  H7  1  0.42868317  0.45108456  0.69631325  1  0.076818  0  0.103756  0.105498  0  0.992873  0
H  H8  1  0.43104386  0.02080487  0.83237853  1  0.037028  0  0.106203  0.108003  0  0.988871  0
H  H9  1  0.42804177  0.92142624  0.78440465  1  0.043558  0  0.103675  0.105411  0  0.992917  0
H  H10  1  0.51030039  0.91958950  0.63542643  1  0.093339  0  0.101851  0.106471  0  0.996229  0
H  H11  1  0.51016853  0.74708408  0.69791188  1  0.092775  0  0.101909  0.10667  0  0.99613  0
H  H12  1  0.43200686  0.64584216  0.50094333  1  0.037111  0  0.106383  0.108242  0  0.988733  0
H  H13  1  0.42883706  0.74522429  0.54891053  1  0.041779  0  0.103733  0.105428  0  0.992812  0
H  H14  1  0.43115045  0.31157541  0.97920021  1  0.039534  0  0.10623  0.108033  0  0.988742  0
H  H15  1  0.42816402  0.36297534  0.07857897  1  0.019098  0  0.103641  0.105391  0  0.992835  0
H  H16  1  0.51042604  0.21583447  0.08041582  1  0.034797  0  0.101888  0.106592  0  0.99635  0
H  H17  1  0.51011103  0.45083024  0.25291729  1  0.03471  0  0.101869  0.106623  0  0.996074  0
H  H18  1  0.43204943  0.35509299  0.35415616  1  0.038292  0  0.106525  0.108368  0  0.988446  0
H  H19  1  0.42900292  0.30368186  0.25477480  1  0.018301  0  0.103679  0.105396  0  0.992808  0
H  H20  1  0.80786307  0.33272222  0.86514124  1  0.05311  0  0.094809  0.137532  0  1.00535  0
H  H21  1  0.41844587  0.30665183  0.87133535  1  0.05229  0  0.096355  0.140992  0  1.004013  0
H  H22  1  0.42599977  0.36605465  0.86732900  1  0.050962  0  0.08824  0.118002  0  1.00673  0
H  H23  1  0.80786481  0.33389542  0.46817813  1  0.053284  0  0.094686  0.137505  0  1.005518  0
H  H24  1  0.41864523  0.36001111  0.46199490  1  0.053246  0  0.096402  0.141027  0  1.004176  0
H  H25  1  0.42577010  0.30061493  0.46601145  1  0.050599  0  0.088283  0.118075  0  1.006985  0
H  H26  1  0.80790809  0.03241960  0.66728386  1  0.044957  0  0.094828  0.137649  0  1.005364  0
H  H27  1  0.41857418  0.06469089  0.69335667  1  0.051323  0  0.096377  0.141031  0  1.004152  0
H  H28  1  0.42598432  0.00128334  0.63395169  1  0.009706  0  0.088231  0.118037  0  1.006785  0
H  H29  1  0.80780465  0.63428020  0.66611128  1  0.045334  0  0.094716  0.137463  0  1.00558  0
H  H30  1  0.41854726  0.60197809  0.63998201  1  0.05143  0  0.09641  0.141008  0  1.004063  0
H  H31  1  0.42571729  0.66538832  0.69938049  1  0.009998  0  0.088232  0.117977  0  1.00707  0
H  H32  1  0.80792747  0.13486492  0.96758546  1  0.041315  0  0.094819  0.137685  0  1.005331  0
H  H33  1  0.41854641  0.12866168  0.93531515  1  0.0853  0  0.096412  0.141103  0  1.004131  0
H  H34  1  0.42603284  0.13266836  0.99872362  1  0.025714  0  0.088247  0.118033  0  1.006726  0
H  H35  1  0.80763359  0.53184892  0.36573215  1  0.042639  0  0.094717  0.137557  0  1.005543  0
H  H36  1  0.41840312  0.53799875  0.39802175  1  0.084876  0  0.0964  0.140926  0  1.004071  0
H  H37  1  0.42553730  0.53399272  0.33461430  1  0.026456  0  0.088259  0.118003  0  1.007042  0
C  C38  1  0.51478204  0.45871222  0.41796401  1  1.578866  0  0.277426  0.66113  0  4.056401  0
C  C39  1  0.51475992  0.45924847  0.54128814  1  1.570837  0  0.277339  0.660897  0  4.056654  0
C  C40  1  0.51485818  0.58203488  0.54075042  1  1.582207  0  0.277343  0.661083  0  4.05626  0
C  C41  1  0.51455067  0.20741140  0.79204228  1  1.570682  0  0.277244  0.660583  0  4.056427  0
C  C42  1  0.51448780  0.08463263  0.79259719  1  1.583513  0  0.277587  0.661049  0  4.055669  0
C  C43  1  0.51453108  0.20796597  0.91537637  1  1.578241  0  0.277447  0.660792  0  4.055878  0
C  C44  1  0.49435933  0.23880800  0.76437080  1  -0.013784  0  -0.008842  -0.093429  0  3.913754  0
C  C45  1  0.45451989  0.21085408  0.70887579  1  -0.030209  0  -0.082362  -0.087199  0  4.015341  0
C  C46  1  0.45114416  0.23739780  0.68024728  1  -0.082786  0  -0.085656  -0.134448  0  3.972112  0
C  C47  1  0.47518238  0.29341835  0.70732803  1  0.133356  0  0.002124  0.152079  0  4.127  0
C  C48  1  0.50110893  0.32116522  0.76328730  1  0.020337  0  -0.083751  -0.189158  0  3.900065  0
C  C49  1  0.51584895  0.29487864  0.79248458  1  -0.00346  0  0.00233  0.164306  0  3.947735  0
C  C50  1  0.47163783  0.32132261  0.67895924  1  -0.289448  0  -0.042516  -0.105404  0  4.113052  0
C  C51  1  0.47171377  0.34535349  0.65438557  1  -0.071038  0  -0.042159  -0.105779  0  4.111987  0
C  C52  1  0.47539735  0.37325252  0.62601114  1  0.132951  0  0.002138  0.154379  0  4.123537  0
C  C53  1  0.50124846  0.34550094  0.57005144  1  0.024328  0  -0.083978  -0.190221  0  3.899426  0
C  C54  1  0.51603029  0.37178283  0.54084982  1  -0.007024  0  0.002481  0.164492  0  3.947736  0
C  C55  1  0.49463144  0.42785368  0.56896110  1  -0.014183  0  -0.008665  -0.09326  0  3.913953  0
C  C56  1  0.45487790  0.45581402  0.62445631  1  -0.031748  0  -0.082359  -0.087115  0  4.016082  0
C  C57  1  0.45150838  0.42927407  0.65308781  1  -0.080507  0  -0.085825  -0.135558  0  3.972433  0
C  C58  1  0.49430450  0.02556439  0.76119532  1  -0.074606  0  -0.008963  -0.093569  0  3.91349  0
C  C59  1  0.45435856  0.99801779  0.78914357  1  0.012651  0  -0.082266  -0.086685  0  4.014935  0
C  C60  1  0.45099629  0.94284514  0.76259869  1  0.028542  0  -0.085583  -0.134812  0  3.972104  0
C  C61  1  0.47510747  0.91390654  0.70658021  1  0.060305  0  0.002115  0.152375  0  4.126844  0
C  C62  1  0.50109239  0.94212287  0.67883665  1  -0.047358  0  -0.083653  -0.189175  0  3.899868  0
C  C63  1  0.51583683  0.99760841  0.70512659  1  0.061728  0  0.002379  0.164438  0  3.947627  0
C  C64  1  0.47162107  0.85763230  0.67867610  1  -0.500956  0  -0.04262  -0.105601  0  4.11308  0
C  C65  1  0.47170724  0.80902746  0.65464615  1  0.135518  0  -0.042204  -0.105041  0  4.112876  0
C  C66  1  0.47541358  0.75275377  0.62674577  1  0.059625  0  0.002156  0.152079  0  4.126913  0
C  C67  1  0.50120632  0.72454654  0.65449992  1  -0.047047  0  -0.083865  -0.189466  0  3.89996  0
C  C68  1  0.51602671  0.66906290  0.62821699  1  0.061978  0  0.002208  0.164207  0  3.947984  0
C  C69  1  0.49476716  0.64110295  0.57214542  1  -0.075551  0  -0.008352  -0.093213  0  3.914375  0
C  C70  1  0.45505891  0.66863795  0.54418268  1  0.012436  0  -0.082644  -0.087231  0  4.016655  0
C  C71  1  0.45162790  0.72381009  0.57072309  1  0.031356  0  -0.085617  -0.134463  0  3.972807  0
C  C72  1  0.49437289  0.23563359  0.97444421  1  0.007545  0  -0.008861  -0.093372  0  3.9133  0
C  C73  1  0.45445665  0.29112759  0.00198863  1  0.088439  0  -0.082197  -0.086696  0  4.015137  0
C  C74  1  0.45110711  0.31975133  0.05715804  1  -0.098262  0  -0.085692  -0.134836  0  3.972363  0
C  C75  1  0.47523405  0.29267015  0.08609721  1  0.121527  0  0.00232  0.152508  0  4.126895  0
C  C76  1  0.50121661  0.23671071  0.05788072  1  0.004876  0  -0.083867  -0.189528  0  3.900341  0
C  C77  1  0.51592771  0.20751774  0.00239742  1  -0.129728  0  0.002285  0.164367  0  3.947706  0
C  C78  1  0.47172745  0.32103983  0.14236743  1  -0.206912  0  -0.042403  -0.105409  0  4.112476  0
C  C79  1  0.47178530  0.34562088  0.19097774  1  0.004083  0  -0.04247  -0.105299  0  4.112294  0
C  C80  1  0.47542593  0.37399213  0.24724793  1  0.120775  0  0.002185  0.152098  0  4.126955  0
C  C81  1  0.50115277  0.42995596  0.27545557  1  0.004481  0  -0.083791  -0.189379  0  3.899979  0
C  C82  1  0.51592055  0.45915466  0.33093858  1  -0.131493  0  0.002198  0.164142  0  3.948151  0
C  C83  1  0.49466844  0.43104003  0.35889645  1  0.009247  0  -0.008501  -0.093267  0  3.914242  0
C  C84  1  0.45504920  0.37553939  0.33136129  1  0.092295  0  -0.08276  -0.087363  0  4.016241  0
C  C85  1  0.45168130  0.34691033  0.27619015  1  -0.099806  0  -0.085541  -0.134388  0  3.97258  0
C  C86  1  0.54222159  0.32669108  0.85228521  1  -0.09484  0  -0.238355  -0.416534  0  3.965469  0
C  C87  1  0.54226203  0.33996376  0.48104725  1  -0.095789  0  -0.238313  -0.416672  0  3.966013  0
C  C88  1  0.54226535  0.02559753  0.67331515  1  -0.040423  0  -0.238368  -0.416783  0  3.965729  0
C  C89  1  0.54220310  0.64107796  0.66003597  1  -0.041119  0  -0.238323  -0.416428  0  3.966078  0
C  C90  1  0.54229597  0.14771565  0.97440640  1  -0.037837  0  -0.238419  -0.416868  0  3.965584  0
C  C91  1  0.54204861  0.51895959  0.35892495  1  -0.038581  0  -0.238273  -0.416367  0  3.966052  0
O  O92  1  0.75846414  0.55948276  0.55070380  1  -1.257065  0  -0.230557  -0.588172  0  2.373913  0
O  O93  1  0.75842816  0.49121779  0.44051764  1  -1.258023  0  -0.230614  -0.58829  0  2.374239  0
O  O94  1  0.75838177  0.44929634  0.50878469  1  -1.255349  0  -0.230508  -0.588009  0  2.374343  0
O  O95  1  0.28916571  0.55742486  0.50512354  1  -1.257653  0  -0.242627  -0.609789  0  2.365438  0
O  O96  1  0.28909617  0.49487187  0.55230131  1  -1.250936  0  -0.242661  -0.609866  0  2.365514  0
O  O97  1  0.28907465  0.44769587  0.44257002  1  -1.255283  0  -0.242634  -0.609755  0  2.365359  0
O  O98  1  0.75817639  0.17546759  0.89283260  1  -1.256798  0  -0.230766  -0.587974  0  2.373973  0
O  O99  1  0.75824806  0.21736813  0.82453749  1  -1.25455  0  -0.230565  -0.587796  0  2.374051  0
O  O100  1  0.75815809  0.10718094  0.78264468  1  -1.256779  0  -0.230763  -0.587994  0  2.37408  0
O  O101  1  0.28890824  0.21897798  0.89075769  1  -1.255817  0  -0.242398  -0.609493  0  2.365583  0
O  O102  1  0.28887279  0.10924953  0.82822779  1  -1.259541  0  -0.242607  -0.609778  0  2.365319  0
O  O103  1  0.28890693  0.17177859  0.78103327  1  -1.251537  0  -0.242441  -0.609413  0  2.365535  0
