# generated using pymatgen
data_ZnH2C3N4O
_symmetry_space_group_name_H-M   'P 1'
_cell_length_a   10.99220110
_cell_length_b   11.01160959
_cell_length_c   13.40440000
_cell_angle_alpha   99.89330198
_cell_angle_beta   105.63033110
_cell_angle_gamma   118.56314811
_symmetry_Int_Tables_number   1
_chemical_formula_structural   ZnH2C3N4O
_chemical_formula_sum   'Zn12 H24 C36 N48 O12'
_cell_volume   1282.70925407
_cell_formula_units_Z   12
loop_
 _symmetry_equiv_pos_site_id
 _symmetry_equiv_pos_as_xyz
  1  'x, y, z'
loop_
 _atom_site_type_symbol
 _atom_site_label
 _atom_site_symmetry_multiplicity
 _atom_site_fract_x
 _atom_site_fract_y
 _atom_site_fract_z
 _atom_site_occupancy
 _atom_site_hle17_bader_spin_density
 _atom_site_hle17_ddec_charge
 _atom_site_hle17_ddec_spin_density
 _atom_site_hle17_ddec_sum_bond_order
 _atom_site_hle17_magmom
 _atom_site_hse06_10hf_bader_spin_density
 _atom_site_hse06_10hf_ddec_charge
 _atom_site_hse06_10hf_ddec_spin_density
 _atom_site_hse06_10hf_ddec_sum_bond_order
 _atom_site_hse06_10hf_magmom
 _atom_site_hse06_bader_spin_density
 _atom_site_hse06_ddec_charge
 _atom_site_hse06_ddec_spin_density
 _atom_site_hse06_ddec_sum_bond_order
 _atom_site_hse06_magmom
 _atom_site_pbe_bader_charge
 _atom_site_pbe_bader_spin_density
 _atom_site_pbe_cm5_charge
 _atom_site_pbe_ddec_charge
 _atom_site_pbe_ddec_spin_density
 _atom_site_pbe_ddec_sum_bond_order
 _atom_site_pbe_magmom
Zn  Zn0  1  0.32212320  0.40088311  0.49802066  1  0  1.119851  0  1.714745  0  0  0.948756  0  2.145804  0  0  0.997853  0  2.091307  0  1.311094  0  0.635123  0.912923  0  2.184252  0
Zn  Zn1  1  0.40272405  0.82242587  0.99963927  1  0  1.123004  0  1.71294  0  0  0.951194  0  2.144605  0  0  1.000585  0  2.089753  0  1.310204  0  0.634338  0.915103  0  2.183349  0
Zn  Zn2  1  0.67787791  0.59911666  0.50197903  1  0  1.119872  0  1.714729  0  0  0.948775  0  2.1458  0  0  0.997876  0  2.091293  0  1.3111  0  0.635113  0.912939  0  2.184249  0
Zn  Zn3  1  0.59727705  0.17757390  0.00036117  1  0  1.123031  0  1.712906  0  0  0.951226  0  2.144567  0  0  1.000613  0  2.089716  0  1.310205  0  0.634346  0.915133  0  2.183312  0
Zn  Zn4  1  0.61101054  0.54361901  0.71272366  1  0  0.942241  0  2.006511  0  0  0.767952  0  2.44922  0  0  0.809553  0  2.402125  0  1.295055  0  0.670771  0.73849  0  2.481735  0
Zn  Zn5  1  0.33295357  0.89879778  0.78671199  1  0  0.943727  0  2.001946  0  0  0.768358  0  2.444432  0  0  0.810067  0  2.397392  0  1.293428  0  0.67335  0.738822  0  2.47692  0
Zn  Zn6  1  0.38899213  0.45638187  0.28727653  1  0  0.94217  0  2.006615  0  0  0.767859  0  2.449344  0  0  0.809462  0  2.402247  0  1.294992  0  0.670744  0.738391  0  2.481864  0
Zn  Zn7  1  0.66704754  0.10120199  0.21328844  1  0  0.943755  0  2.001924  0  0  0.768401  0  2.44441  0  0  0.810113  0  2.397368  0  1.293424  0  0.673366  0.738862  0  2.4769  0
Zn  Zn8  1  0.02857942  0.37695570  0.25381010  1  0  0.987628  0  1.779997  0  0  0.787748  0  2.220627  0  0  0.838066  0  2.172086  0  1.288494  0  0.680459  0.750203  0  2.255426  0
Zn  Zn9  1  0.62227407  0.77484982  0.24568410  1  0  0.983545  0  1.774583  0  0  0.783586  0  2.212777  0  0  0.833713  0  2.164858  0  1.286032  0  0.685113  0.746104  0  2.247267  0
Zn  Zn10  1  0.97142074  0.62304407  0.74619087  1  0  0.987615  0  1.779992  0  0  0.787755  0  2.220625  0  0  0.838065  0  2.172091  0  1.288513  0  0.680465  0.750206  0  2.255426  0
Zn  Zn11  1  0.37772609  0.22514995  0.75431687  1  0  0.983561  0  1.774568  0  0  0.78361  0  2.212757  0  0  0.833738  0  2.164838  0  1.285985  0  0.685133  0.74613  0  2.247248  0
H  H12  1  0.71860199  0.90779019  0.61474527  1  0  0.112761  0  0.953201  0  0  0.120293  0  1.02215  0  0  0.124087  0  1.018686  0  0.101203  0  0.110388  0.117395  0  1.024816  0
H  H13  1  0.79459176  0.10553392  0.88700035  1  0  0.113854  0  0.952557  0  0  0.121037  0  1.022035  0  0  0.124858  0  1.018542  0  0.104659  0  0.110819  0.118149  0  1.024685  0
H  H14  1  0.28139722  0.09220958  0.38525699  1  0  0.112758  0  0.95321  0  0  0.120277  0  1.022169  0  0  0.124073  0  1.018706  0  0.101344  0  0.110363  0.117378  0  1.024836  0
H  H15  1  0.20540808  0.89446695  0.11299996  1  0  0.113862  0  0.952551  0  0  0.121048  0  1.022017  0  0  0.124871  0  1.018523  0  0.10466  0  0.110814  0.11816  0  1.024668  0
H  H16  1  0.14230331  0.22782699  0.61164661  1  0  0.103514  0  0.983068  0  0  0.109206  0  1.058499  0  0  0.112561  0  1.055431  0  0.113585  0  0.104561  0.106837  0  1.060664  0
H  H17  1  0.11599210  0.52962540  0.88623130  1  0  0.102144  0  0.985714  0  0  0.108758  0  1.060545  0  0  0.112068  0  1.057481  0  0.098282  0  0.104383  0.10643  0  1.062713  0
H  H18  1  0.85769402  0.77216946  0.38835252  1  0  0.103508  0  0.983138  0  0  0.109244  0  1.058492  0  0  0.1126  0  1.055425  0  0.113511  0  0.104587  0.106875  0  1.060654  0
H  H19  1  0.88400429  0.47037105  0.11376315  1  0  0.102109  0  0.985697  0  0  0.108738  0  1.060519  0  0  0.112049  0  1.057454  0  0.098294  0  0.104389  0.106409  0  1.062687  0
H  H20  1  0.80558437  0.32618048  0.59740050  1  0  0.095297  0  0.985302  0  0  0.103839  0  1.057358  0  0  0.10762  0  1.053416  0  0.075453  0  0.103905  0.101193  0  1.06  0
H  H21  1  0.23093169  0.20975366  0.90246681  1  0  0.094657  0  0.984516  0  0  0.103592  0  1.056143  0  0  0.107255  0  1.0524  0  0.067676  0  0.10423  0.100995  0  1.058717  0
H  H22  1  0.19441359  0.67381708  0.40260042  1  0  0.095301  0  0.985275  0  0  0.103823  0  1.057348  0  0  0.107605  0  1.053407  0  0.075404  0  0.103923  0.101179  0  1.059988  0
H  H23  1  0.76906847  0.79024610  0.09753267  1  0  0.094679  0  0.984554  0  0  0.10363  0  1.056154  0  0  0.107295  0  1.052405  0  0.067665  0  0.104236  0.101034  0  1.058728  0
H  H24  1  0.43178466  0.26781331  0.58397191  1  0  0.376818  0  0.924544  0  0  0.347332  0  1.004916  0  0  0.356844  0  0.994582  0  0.600484  0  0.274472  0.340231  0  1.012744  0
H  H25  1  0.18654126  0.84915864  0.91569777  1  0  0.37902  0  0.919921  0  0  0.349467  0  0.999566  0  0  0.358968  0  0.9893  0  0.591  0  0.275699  0.342348  0  1.007419  0
H  H26  1  0.56821864  0.73218867  0.41602858  1  0  0.376832  0  0.924554  0  0  0.347342  0  1.004927  0  0  0.356853  0  0.994594  0  0.60054  0  0.274454  0.340241  0  1.012754  0
H  H27  1  0.81345953  0.15084224  0.08430275  1  0  0.379013  0  0.919935  0  0  0.349454  0  0.999588  0  0  0.358953  0  0.989325  0  0.591035  0  0.275705  0.342334  0  1.007442  0
H  H28  1  0.30729346  0.58482659  0.40729682  1  0  0.385847  0  0.892734  0  0  0.359397  0  0.966967  0  0  0.368769  0  0.9564  0  0.574032  0  0.281546  0.352383  0  0.975037  0
H  H29  1  0.67856932  0.90129229  0.09503193  1  0  0.385213  0  0.897715  0  0  0.357764  0  0.973645  0  0  0.367254  0  0.962904  0  0.592492  0  0.280134  0.35069  0  0.981787  0
H  H30  1  0.69270922  0.41517429  0.59270412  1  0  0.385863  0  0.892751  0  0  0.359412  0  0.966992  0  0  0.368783  0  0.956425  0  0.574036  0  0.281552  0.352397  0  0.975064  0
H  H31  1  0.32143147  0.09870858  0.90496785  1  0  0.385202  0  0.897737  0  0  0.357761  0  0.973647  0  0  0.36725  0  0.962907  0  0.5925  0  0.280137  0.350688  0  0.981789  0
H  H32  1  0.52266844  0.68751865  0.61593786  1  0  0.403147  0  0.87828  0  0  0.367635  0  0.967531  0  0  0.377276  0  0.953224  0  0.597492  0  0.283205  0.35961  0  0.978921  0
H  H33  1  0.57415240  0.90850370  0.88570439  1  0  0.402036  0  0.879349  0  0  0.366729  0  0.968539  0  0  0.376401  0  0.954186  0  0.603824  0  0.282974  0.358674  0  0.979718  0
H  H34  1  0.47733330  0.31248223  0.38406287  1  0  0.40314  0  0.878292  0  0  0.367628  0  0.967541  0  0  0.377268  0  0.953238  0  0.597496  0  0.28321  0.359603  0  0.97893  0
H  H35  1  0.42584901  0.09149828  0.11429643  1  0  0.402002  0  0.879374  0  0  0.366728  0  0.968557  0  0  0.3764  0  0.954204  0  0.603824  0  0.282964  0.358671  0  0.979724  0
C  C36  1  0.78977106  0.01192167  0.60562135  1  0  -0.083063  0  3.632227  0  0  -0.122035  0  3.884444  0  0  -0.121477  0  3.901115  0  -0.025878  0  -0.069908  -0.12092  0  3.8719  0
C  C37  1  0.90792812  0.18558068  0.89525765  1  0  -0.085366  0  3.628286  0  0  -0.124602  0  3.880825  0  0  -0.124093  0  3.897523  0  0.005296  0  -0.071439  -0.12353  0  3.868316  0
C  C38  1  0.21022816  0.98807810  0.39438090  1  0  -0.083043  0  3.632198  0  0  -0.12204  0  3.884479  0  0  -0.121468  0  3.901111  0  -0.026121  0  -0.069866  -0.120924  0  3.871936  0
C  C39  1  0.09207015  0.81441909  0.10473918  1  0  -0.085417  0  3.628302  0  0  -0.124622  0  3.880865  0  0  -0.124111  0  3.897561  0  0.005275  0  -0.071403  -0.123551  0  3.868356  0
C  C40  1  0.98892149  0.96067386  0.62519841  1  0  0.297199  0  3.760328  0  0  0.26905  0  4.025459  0  0  0.281268  0  4.041701  0  0.944535  0  0.229521  0.260845  0  4.014456  0
C  C41  1  0.83639113  0.36442672  0.87499055  1  0  0.29386  0  3.765482  0  0  0.265795  0  4.031337  0  0  0.277693  0  4.047649  0  0.948473  0  0.22792  0.257775  0  4.020404  0
C  C42  1  0.01107804  0.03932480  0.37480376  1  0  0.297031  0  3.760501  0  0  0.268959  0  4.025516  0  0  0.28116  0  4.041768  0  0.944461  0  0.229494  0.260753  0  4.014513  0
C  C43  1  0.16360714  0.63557305  0.12500553  1  0  0.293725  0  3.765561  0  0  0.265737  0  4.031337  0  0  0.27763  0  4.047646  0  0.948378  0  0.227874  0.257717  0  4.020405  0
C  C44  1  0.93152292  0.05295668  0.60657939  1  0  0.007327  0  3.813186  0  0  0.029384  0  4.050741  0  0  0.026237  0  4.072776  0  0.049548  0  -0.007051  0.031164  0  4.035425  0
C  C45  1  0.94744895  0.32560303  0.89327105  1  0  0.010631  0  3.812486  0  0  0.033739  0  4.048905  0  0  0.030681  0  4.070964  0  -0.00397  0  -0.003898  0.03549  0  4.033665  0
C  C46  1  0.06847662  0.94704198  0.39342352  1  0  0.007409  0  3.813137  0  0  0.029456  0  4.050661  0  0  0.026317  0  4.072698  0  0.049755  0  -0.007028  0.031235  0  4.035348  0
C  C47  1  0.05254963  0.67439563  0.10672494  1  0  0.010784  0  3.812367  0  0  0.033828  0  4.048829  0  0  0.03077  0  4.070889  0  -0.00407  0  -0.003837  0.035579  0  4.033588  0
C  C48  1  0.98272737  0.29039335  0.60164715  1  0  0.015998  0  3.819852  0  0  0.036381  0  4.061649  0  0  0.033741  0  4.083456  0  0.063328  0  -0.006377  0.037885  0  4.0466  0
C  C49  1  0.18978034  0.38139936  0.89696711  1  0  0.014114  0  3.82362  0  0  0.035346  0  4.06497  0  0  0.032689  0  4.086701  0  -0.010912  0  -0.005444  0.036882  0  4.049893  0
C  C50  1  0.01727311  0.70960531  0.39835299  1  0  0.015943  0  3.819828  0  0  0.036337  0  4.061582  0  0  0.033695  0  4.083393  0  0.06329  0  -0.006398  0.037842  0  4.046533  0
C  C51  1  0.81021731  0.61859930  0.10302942  1  0  0.014125  0  3.823587  0  0  0.03538  0  4.064892  0  0  0.032723  0  4.086624  0  -0.010919  0  -0.005446  0.036917  0  4.049816  0
C  C52  1  0.09301791  0.44179533  0.61695398  1  0  0.299308  0  3.76084  0  0  0.267814  0  4.028734  0  0  0.280224  0  4.045078  0  0.942196  0  0.224051  0.259473  0  4.017666  0
C  C53  1  0.32524778  0.47605699  0.88136112  1  0  0.304184  0  3.754575  0  0  0.272495  0  4.021892  0  0  0.285107  0  4.038107  0  0.958941  0  0.224575  0.26404  0  4.010871  0
C  C54  1  0.90698257  0.55820333  0.38304690  1  0  0.299367  0  3.760742  0  0  0.267888  0  4.028579  0  0  0.280302  0  4.044921  0  0.942204  0  0.22409  0.259547  0  4.017513  0
C  C55  1  0.67475049  0.52394278  0.11863570  1  0  0.304242  0  3.754517  0  0  0.272537  0  4.021863  0  0  0.285149  0  4.038078  0  0.958979  0  0.22461  0.264081  0  4.010844  0
C  C56  1  0.02879142  0.19265381  0.60545048  1  0  -0.104122  0  3.677986  0  0  -0.142353  0  3.928962  0  0  -0.142573  0  3.948177  0  -0.038266  0  -0.081921  -0.142034  0  3.915783  0
C  C57  1  0.08775403  0.42315562  0.89307936  1  0  -0.105312  0  3.682123  0  0  -0.145057  0  3.93314  0  0  -0.145336  0  3.952416  0  -0.005254  0  -0.083153  -0.14472  0  3.919969  0
C  C58  1  0.97120749  0.80734375  0.39455065  1  0  -0.104163  0  3.678066  0  0  -0.142426  0  3.929009  0  0  -0.142649  0  3.948228  0  -0.038227  0  -0.081953  -0.142101  0  3.915821  0
C  C59  1  0.91224362  0.57684304  0.10691568  1  0  -0.105417  0  3.682034  0  0  -0.145153  0  3.933027  0  0  -0.145434  0  3.952306  0  -0.005138  0  -0.083268  -0.144813  0  3.919852  0
C  C60  1  0.74497750  0.11136367  0.60364793  1  0  0.029784  0  3.793889  0  0  0.049466  0  4.029704  0  0  0.048061  0  4.051756  0  0.045681  0  0.001791  0.049858  0  4.014268  0
C  C61  1  0.00967919  0.14306666  0.89709952  1  0  0.029169  0  3.793919  0  0  0.048513  0  4.030765  0  0  0.047059  0  4.052854  0  0.040667  0  -0.000962  0.048974  0  4.015223  0
C  C62  1  0.25502424  0.88863720  0.39635355  1  0  0.029767  0  3.793923  0  0  0.049467  0  4.029707  0  0  0.048065  0  4.051766  0  0.045443  0  0.001787  0.049857  0  4.014272  0
C  C63  1  0.99031908  0.85693311  0.10289805  1  0  0.029358  0  3.793905  0  0  0.048643  0  4.030804  0  0  0.047187  0  4.052899  0  0.040612  0  -0.000942  0.049105  0  4.01526  0
C  C64  1  0.83976432  0.24862934  0.59843266  1  0  -0.089825  0  3.650097  0  0  -0.132133  0  3.905873  0  0  -0.13233  0  3.923399  0  -0.029314  0  -0.075815  -0.130816  0  3.892963  0
C  C65  1  0.15206009  0.24268787  0.90127703  1  0  -0.088554  0  3.655602  0  0  -0.131549  0  3.911998  0  0  -0.131665  0  3.929618  0  0.039222  0  -0.077099  -0.130298  0  3.898979  0
C  C66  1  0.16023584  0.75137042  0.40156831  1  0  -0.089816  0  3.650045  0  0  -0.13212  0  3.905819  0  0  -0.132318  0  3.923345  0  -0.029247  0  -0.07585  -0.130804  0  3.892909  0
C  C67  1  0.84793818  0.75731190  0.09871980  1  0  -0.088683  0  3.655622  0  0  -0.131677  0  3.912013  0  0  -0.131795  0  3.929634  0  0.039268  0  -0.077125  -0.130427  0  3.898995  0
C  C68  1  0.61225669  0.07995272  0.62540891  1  0  0.246654  0  3.811554  0  0  0.227169  0  4.087422  0  0  0.234384  0  4.104824  0  0.90176  0  0.208563  0.222359  0  4.075698  0
C  C69  1  0.95653293  0.98842766  0.87559201  1  0  0.246467  0  3.815945  0  0  0.227024  0  4.091613  0  0  0.234307  0  4.109028  0  0.943953  0  0.209508  0.222198  0  4.079765  0
C  C70  1  0.38774346  0.92005036  0.37459179  1  0  0.246711  0  3.811482  0  0  0.227205  0  4.087367  0  0  0.234409  0  4.104785  0  0.901953  0  0.208551  0.222395  0  4.075645  0
C  C71  1  0.04346880  0.01157321  0.12440872  1  0  0.246328  0  3.816111  0  0  0.226898  0  4.091788  0  0  0.234181  0  4.109206  0  0.943394  0  0.209498  0.222073  0  4.079939  0
N  N72  1  0.90618657  0.81407063  0.60582974  1  0  -0.308269  0  3.05751  0  0  -0.258995  0  3.345762  0  0  -0.27453  0  3.359237  0  -0.694309  0  -0.207565  -0.248587  0  3.336621  0
N  N73  1  0.70954016  0.30203846  0.89433342  1  0  -0.303569  0  3.0365  0  0  -0.257082  0  3.323109  0  0  -0.271968  0  3.336878  0  -0.694862  0  -0.204141  -0.247108  0  3.313832  0
N  N74  1  0.09381391  0.18592803  0.39417115  1  0  -0.308162  0  3.057577  0  0  -0.258892  0  3.34575  0  0  -0.27443  0  3.359251  0  -0.694209  0  -0.207537  -0.248484  0  3.336608  0
N  N75  1  0.29046032  0.69796020  0.10566523  1  0  -0.303482  0  3.036577  0  0  -0.257014  0  3.323154  0  0  -0.271926  0  3.336999  0  -0.694878  0  -0.204108  -0.247042  0  3.313879  0
N  N76  1  0.14439299  0.90026904  0.68523023  1  0  -0.076752  0  3.248817  0  0  -0.038733  0  3.540068  0  0  -0.041944  0  3.554514  0  -0.168852  0  -0.099246  -0.036589  0  3.530112  0
N  N77  1  0.71529006  0.45897262  0.81516765  1  0  -0.075312  0  3.246129  0  0  -0.038509  0  3.537853  0  0  -0.04154  0  3.552267  0  -0.168851  0  -0.098399  -0.036428  0  3.527797  0
N  N78  1  0.85560812  0.09973072  0.31477020  1  0  -0.076756  0  3.248799  0  0  -0.038767  0  3.540086  0  0  -0.041977  0  3.554527  0  -0.168834  0  -0.099278  -0.036627  0  3.530132  0
N  N79  1  0.28470884  0.54102826  0.18483320  1  0  -0.075276  0  3.246189  0  0  -0.038481  0  3.537917  0  0  -0.041511  0  3.552331  0  -0.16915  0  -0.098383  -0.0364  0  3.52786  0
N  N80  1  0.13852215  0.01609210  0.67470354  1  0  -0.306567  0  3.077386  0  0  -0.25432  0  3.3613  0  0  -0.270885  0  3.37629  0  -0.71217  0  -0.206718  -0.242837  0  3.351217  0
N  N81  1  0.84182239  0.46346606  0.82582405  1  0  -0.306993  0  3.072402  0  0  -0.255503  0  3.356588  0  0  -0.271833  0  3.371619  0  -0.710192  0  -0.206326  -0.244182  0  3.346499  0
N  N82  1  0.86147801  0.98390767  0.32529744  1  0  -0.306528  0  3.077456  0  0  -0.25429  0  3.361338  0  0  -0.270855  0  3.376344  0  -0.712193  0  -0.206709  -0.242807  0  3.351256  0
N  N83  1  0.15817682  0.53653371  0.17417522  1  0  -0.306973  0  3.072372  0  0  -0.255505  0  3.35656  0  0  -0.271833  0  3.371591  0  -0.709763  0  -0.206325  -0.244184  0  3.34647  0
N  N84  1  0.21521198  0.48625186  0.59189672  1  0  -0.317785  0  3.070164  0  0  -0.266165  0  3.362474  0  0  -0.282808  0  3.375948  0  -0.652609  0  -0.208662  -0.255061  0  3.353653  0
N  N85  1  0.39428766  0.62360381  0.90611800  1  0  -0.321254  0  3.077728  0  0  -0.267806  0  3.370367  0  0  -0.284755  0  3.383661  0  -0.719826  0  -0.211277  -0.256508  0  3.361714  0
N  N86  1  0.78478755  0.51374681  0.40810396  1  0  -0.317898  0  3.070214  0  0  -0.26628  0  3.362514  0  0  -0.282923  0  3.37598  0  -0.65306  0  -0.208695  -0.255176  0  3.353695  0
N  N87  1  0.60571250  0.37639595  0.09388148  1  0  -0.321365  0  3.077772  0  0  -0.267925  0  3.370428  0  0  -0.284878  0  3.383722  0  -0.719883  0  -0.21132  -0.256629  0  3.361777  0
N  N88  1  0.00814047  0.78106010  0.64508476  1  0  -0.081009  0  3.148837  0  0  -0.052711  0  3.439871  0  0  -0.056614  0  3.455513  0  -0.158935  0  -0.0933  -0.049341  0  3.429052  0
N  N89  1  0.63666641  0.36402848  0.85514086  1  0  -0.088269  0  3.157459  0  0  -0.056684  0  3.447879  0  0  -0.061286  0  3.463758  0  -0.15206  0  -0.097023  -0.052829  0  3.436827  0
N  N90  1  0.99186063  0.21893966  0.35491568  1  0  -0.081031  0  3.14887  0  0  -0.05272  0  3.439909  0  0  -0.056624  0  3.455548  0  -0.158984  0  -0.093273  -0.049349  0  3.429089  0
N  N91  1  0.36333280  0.63597129  0.14485916  1  0  -0.088299  0  3.15752  0  0  -0.056714  0  3.447952  0  0  -0.061319  0  3.463826  0  -0.152064  0  -0.097023  -0.052858  0  3.4369  0
N  N92  1  0.22571167  0.67794326  0.67670740  1  0  -0.090551  0  3.197964  0  0  -0.04672  0  3.497096  0  0  -0.053477  0  3.512088  0  -0.181694  0  -0.103845  -0.042198  0  3.486899  0
N  N93  1  0.50092416  0.54890671  0.82218096  1  0  -0.084191  0  3.188942  0  0  -0.041461  0  3.487758  0  0  -0.047936  0  3.502672  0  -0.211621  0  -0.100837  -0.037132  0  3.47761  0
N  N94  1  0.77428692  0.32205540  0.32329307  1  0  -0.090587  0  3.197914  0  0  -0.046804  0  3.497098  0  0  -0.053565  0  3.512092  0  -0.181721  0  -0.103877  -0.042281  0  3.486902  0
N  N95  1  0.49907914  0.45109527  0.17782027  1  0  -0.084213  0  3.188988  0  0  -0.041478  0  3.487806  0  0  -0.047955  0  3.502722  0  -0.211472  0  -0.100809  -0.037149  0  3.477657  0
N  N96  1  0.29520608  0.63441374  0.62981987  1  0  -0.046508  0  2.96234  0  0  -0.044074  0  3.256608  0  0  -0.041039  0  3.268185  0  -0.146534  0  -0.079825  -0.045825  0  3.249344  0
N  N97  1  0.50411723  0.66563773  0.86858481  1  0  -0.046121  0  2.961084  0  0  -0.043843  0  3.255356  0  0  -0.040782  0  3.266972  0  -0.070985  0  -0.078713  -0.045606  0  3.248051  0
N  N98  1  0.70479345  0.36558493  0.37018006  1  0  -0.046454  0  2.962325  0  0  -0.044007  0  3.256594  0  0  -0.040969  0  3.268171  0  -0.146104  0  -0.07983  -0.045757  0  3.249328  0
N  N99  1  0.49588450  0.33436314  0.13141592  1  0  -0.046024  0  2.961085  0  0  -0.043735  0  3.255357  0  0  -0.040673  0  3.266975  0  -0.071078  0  -0.078683  -0.045498  0  3.248052  0
N  N100  1  0.09738713  0.56039585  0.67017502  1  0  -0.314088  0  3.08754  0  0  -0.253469  0  3.367113  0  0  -0.271396  0  3.382986  0  -0.728144  0  -0.215787  -0.241069  0  3.356489  0
N  N101  1  0.39041712  0.42690347  0.82860391  1  0  -0.318751  0  3.091991  0  0  -0.257481  0  3.372307  0  0  -0.275571  0  3.387917  0  -0.726934  0  -0.216992  -0.244944  0  3.361809  0
N  N102  1  0.90261240  0.43960281  0.32982641  1  0  -0.314042  0  3.087484  0  0  -0.253401  0  3.367032  0  0  -0.271327  0  3.382906  0  -0.728122  0  -0.215758  -0.241  0  3.356408  0
N  N103  1  0.60958367  0.57309740  0.17139512  1  0  -0.318726  0  3.091981  0  0  -0.257452  0  3.3723  0  0  -0.27554  0  3.387909  0  -0.726996  0  -0.217011  -0.244917  0  3.361808  0
N  N104  1  0.55302126  0.16282032  0.62463737  1  0  -0.299854  0  2.968087  0  0  -0.276814  0  3.241239  0  0  -0.285456  0  3.256809  0  -0.657135  0  -0.219307  -0.271101  0  3.231031  0
N  N105  1  0.04092423  0.93082710  0.87574070  1  0  -0.299972  0  2.967221  0  0  -0.276999  0  3.240953  0  0  -0.285586  0  3.256201  0  -0.669243  0  -0.219468  -0.271315  0  3.230937  0
N  N106  1  0.44697984  0.83718276  0.37536353  1  0  -0.299999  0  2.96813  0  0  -0.276944  0  3.24128  0  0  -0.285577  0  3.256839  0  -0.657045  0  -0.219348  -0.271233  0  3.231074  0
N  N107  1  0.95907656  0.06917377  0.12425982  1  0  -0.299916  0  2.967208  0  0  -0.276954  0  3.240939  0  0  -0.285539  0  3.256182  0  -0.669201  0  -0.219461  -0.27127  0  3.230922  0
N  N108  1  0.54652649  0.97180790  0.66496274  1  0  -0.263751  0  2.923037  0  0  -0.254619  0  3.21086  0  0  -0.261711  0  3.223266  0  -0.60274  0  -0.206207  -0.249832  0  3.203093  0
N  N109  1  0.80764354  0.88162602  0.83628121  1  0  -0.263198  0  2.923852  0  0  -0.253931  0  3.211697  0  0  -0.261028  0  3.224109  0  -0.624879  0  -0.205991  -0.249138  0  3.203887  0
N  N110  1  0.45347461  0.02819518  0.33503742  1  0  -0.263715  0  2.923039  0  0  -0.254576  0  3.210856  0  0  -0.261663  0  3.223266  0  -0.602796  0  -0.206184  -0.249789  0  3.203089  0
N  N111  1  0.19235819  0.11837486  0.16371877  1  0  -0.263185  0  2.923864  0  0  -0.253923  0  3.211725  0  0  -0.261023  0  3.224142  0  -0.624291  0  -0.205995  -0.24913  0  3.203915  0
N  N112  1  0.44609046  0.98996088  0.68920632  1  0  -0.08903  0  3.260525  0  0  -0.041374  0  3.557026  0  0  -0.047256  0  3.572309  0  -0.195253  0  -0.110871  -0.037154  0  3.546059  0
N  N113  1  0.80155477  0.75680304  0.81163474  1  0  -0.087413  0  3.261879  0  0  -0.040058  0  3.558635  0  0  -0.045953  0  3.573979  0  -0.20489  0  -0.110302  -0.035817  0  3.547624  0
N  N114  1  0.55390939  0.01004000  0.31079325  1  0  -0.089149  0  3.26061  0  0  -0.041481  0  3.557106  0  0  -0.04737  0  3.572392  0  -0.195267  0  -0.110904  -0.03726  0  3.546139  0
N  N115  1  0.19844696  0.24319783  0.18836599  1  0  -0.087329  0  3.261783  0  0  -0.039977  0  3.558523  0  0  -0.045871  0  3.573867  0  -0.204943  0  -0.110277  -0.035734  0  3.547513  0
N  N116  1  0.44890866  0.10324738  0.66565141  1  0  -0.130509  0  3.219105  0  0  -0.078203  0  3.50135  0  0  -0.087885  0  3.520374  0  -0.227964  0  -0.116804  -0.07088  0  3.48793  0
N  N117  1  0.93945675  0.78457123  0.83462494  1  0  -0.131559  0  3.220463  0  0  -0.079697  0  3.503547  0  0  -0.089319  0  3.522425  0  -0.214469  0  -0.118017  -0.072444  0  3.490237  0
N  N118  1  0.55109118  0.89675350  0.33434890  1  0  -0.13039  0  3.219054  0  0  -0.078095  0  3.5013  0  0  -0.08777  0  3.520318  0  -0.227944  0  -0.11679  -0.070772  0  3.48788  0
N  N119  1  0.06054499  0.21542965  0.16537579  1  0  -0.131624  0  3.220439  0  0  -0.079737  0  3.5035  0  0  -0.089359  0  3.522375  0  -0.214476  0  -0.118029  -0.072485  0  3.49019  0
O  O120  1  0.53457393  0.60778274  0.58724157  1  0  -0.949957  0  1.899266  0  0  -0.842923  0  2.176679  0  0  -0.875729  0  2.144394  0  -1.233263  0  -0.572036  -0.818385  0  2.19956  0
O  O121  1  0.52222916  0.94838161  0.91364445  1  0  -0.949038  0  1.89952  0  0  -0.841802  0  2.176641  0  0  -0.874641  0  2.144401  0  -1.240576  0  -0.572324  -0.817234  0  2.199255  0
O  O122  1  0.46542685  0.39221813  0.41275821  1  0  -0.949933  0  1.899322  0  0  -0.842894  0  2.176731  0  0  -0.875696  0  2.144448  0  -1.233287  0  -0.572027  -0.818352  0  2.199612  0
O  O123  1  0.47777162  0.05161926  0.08635607  1  0  -0.948994  0  1.899519  0  0  -0.841829  0  2.176565  0  0  -0.874667  0  2.144322  0  -1.240537  0  -0.572313  -0.817258  0  2.199171  0
O  O124  1  0.25154053  0.47750392  0.37349537  1  0  -0.932795  0  1.937851  0  0  -0.839245  0  2.221948  0  0  -0.871503  0  2.194174  0  -1.208373  0  -0.563685  -0.815123  0  2.241408  0
O  O125  1  0.60248794  0.87723546  0.12587711  1  0  -0.934852  0  1.940995  0  0  -0.840916  0  2.225356  0  0  -0.873294  0  2.197555  0  -1.226341  0  -0.563743  -0.816628  0  2.244817  0
O  O126  1  0.74845963  0.52249585  0.62650560  1  0  -0.932833  0  1.937882  0  0  -0.83929  0  2.221975  0  0  -0.871546  0  2.194201  0  -1.208385  0  -0.56369  -0.815166  0  2.241437  0
O  O127  1  0.39751128  0.12276431  0.87412216  1  0  -0.934854  0  1.941007  0  0  -0.840922  0  2.225375  0  0  -0.873302  0  2.197572  0  -1.226348  0  -0.563763  -0.816635  0  2.244837  0
O  O128  1  0.40095956  0.32566166  0.62121518  1  0  -0.937274  0  1.847836  0  0  -0.844418  0  2.126292  0  0  -0.875755  0  2.096929  0  -1.241829  0  -0.566494  -0.821041  0  2.146675  0
O  O129  1  0.20422294  0.77910432  0.87735271  1  0  -0.937535  0  1.857935  0  0  -0.842528  0  2.137947  0  0  -0.874278  0  2.108616  0  -1.228939  0  -0.564434  -0.818864  0  2.158317  0
O  O130  1  0.59904625  0.67434474  0.37878574  1  0  -0.937276  0  1.847888  0  0  -0.844404  0  2.126324  0  0  -0.875741  0  2.096966  0  -1.241838  0  -0.566433  -0.821022  0  2.146701  0
O  O131  1  0.79577722  0.22089545  0.12264752  1  0  -0.937539  0  1.857959  0  0  -0.842517  0  2.13797  0  0  -0.874268  0  2.108641  0  -1.228975  0  -0.564449  -0.81885  0  2.15834  0
