# generated using pymatgen
data_CdH4(CN)8
_symmetry_space_group_name_H-M   'P 1'
_cell_length_a   9.47346680
_cell_length_b   11.02523739
_cell_length_c   12.06820602
_cell_angle_alpha   89.99737911
_cell_angle_beta   105.19516025
_cell_angle_gamma   90.00062062
_symmetry_Int_Tables_number   1
_chemical_formula_structural   CdH4(CN)8
_chemical_formula_sum   'Cd4 H16 C32 N32'
_cell_volume   1216.42210488
_cell_formula_units_Z   4
loop_
 _symmetry_equiv_pos_site_id
 _symmetry_equiv_pos_as_xyz
  1  'x, y, z'
loop_
 _atom_site_type_symbol
 _atom_site_label
 _atom_site_symmetry_multiplicity
 _atom_site_fract_x
 _atom_site_fract_y
 _atom_site_fract_z
 _atom_site_occupancy
 _atom_site_pbe_bader_charge
 _atom_site_pbe_bader_spin_density
 _atom_site_pbe_cm5_charge
 _atom_site_pbe_ddec_charge
 _atom_site_pbe_ddec_spin_density
 _atom_site_pbe_ddec_sum_bond_order
 _atom_site_pbe_magmom
Cd  Cd0  1  0.17527122  0.14496704  0.19209871  1  1.223345  0  0.797043  0.71669  0  2.308259  0
Cd  Cd1  1  0.82470850  0.64496375  0.30790223  1  1.22326  0  0.797023  0.716616  0  2.30828  0
Cd  Cd2  1  0.82472623  0.85501285  0.80791005  1  1.223026  0  0.797094  0.716797  0  2.308383  0
Cd  Cd3  1  0.17527590  0.35503518  0.69209384  1  1.223261  0  0.797044  0.716626  0  2.308205  0
H  H4  1  0.91445858  0.43295860  0.13482243  1  0.140704  0  0.127734  0.099237  0  0.997445  0
H  H5  1  0.08550288  0.93294709  0.36519254  1  0.140638  0  0.12781  0.099257  0  0.997495  0
H  H6  1  0.08553007  0.56703762  0.86519193  1  0.140665  0  0.127749  0.099231  0  0.997529  0
H  H7  1  0.91449127  0.06703642  0.63481884  1  0.140886  0  0.127813  0.099256  0  0.997527  0
H  H8  1  0.49908103  0.20762822  0.95872829  1  0.095748  0  0.119921  0.098539  0  0.984505  0
H  H9  1  0.50092030  0.70765246  0.54127906  1  0.094715  0  0.11995  0.098484  0  0.984701  0
H  H10  1  0.50089880  0.79233262  0.04129334  1  0.094313  0  0.120009  0.098585  0  0.984515  0
H  H11  1  0.49904320  0.29238366  0.45872754  1  0.095891  0  0.119973  0.098435  0  0.984818  0
H  H12  1  0.52796116  0.95782449  0.63301892  1  0.167577  0  0.119763  0.097229  0  1.063813  0
H  H13  1  0.47208569  0.45782184  0.86698015  1  0.167891  0  0.11978  0.097278  0  1.063576  0
H  H14  1  0.47207367  0.04218805  0.36697200  1  0.168004  0  0.119787  0.097294  0  1.063705  0
H  H15  1  0.52793384  0.54216621  0.13300507  1  0.167622  0  0.119748  0.097193  0  1.063788  0
H  H16  1  0.69041125  0.04134648  0.97961385  1  0.122783  0  0.120124  0.100026  0  0.998569  0
H  H17  1  0.30959591  0.54137447  0.52039418  1  0.122751  0  0.120151  0.099963  0  0.998651  0
H  H18  1  0.30958508  0.95862071  0.02039799  1  0.12289  0  0.120094  0.099883  0  0.998687  0
H  H19  1  0.69036213  0.45867254  0.47960962  1  0.123141  0  0.120084  0.099999  0  0.99845  0
C  C20  1  0.96947490  0.40900433  0.22283574  1  0.956414  0  0.124893  0.138623  0  3.999365  0
C  C21  1  0.03049867  0.90900307  0.27717698  1  0.955677  0  0.124786  0.138551  0  3.999509  0
C  C22  1  0.03051816  0.59098100  0.77717375  1  0.955513  0  0.124986  0.138679  0  3.999689  0
C  C23  1  0.96949441  0.09100130  0.72282921  1  0.955926  0  0.124795  0.13859  0  3.999533  0
C  C24  1  0.41891872  0.10682033  0.69455205  1  0.509238  0  0.130881  0.136699  0  4.001697  0
C  C25  1  0.58111694  0.60682207  0.80543522  1  0.508777  0  0.130755  0.136477  0  4.001255  0
C  C26  1  0.58108761  0.89316954  0.30544035  1  0.509107  0  0.130799  0.136523  0  4.001079  0
C  C27  1  0.41888497  0.39317868  0.19456370  1  0.508656  0  0.130823  0.136617  0  4.001273  0
C  C28  1  0.50567633  0.15120409  0.88575432  1  0.517323  0  0.050323  0.050914  0  3.962431  0
C  C29  1  0.49434598  0.65122278  0.61424653  1  0.517959  0  0.050225  0.05087  0  3.962638  0
C  C30  1  0.49432107  0.84876128  0.11426023  1  0.518647  0  0.050268  0.050802  0  3.962679  0
C  C31  1  0.50563946  0.34880789  0.38575556  1  0.515293  0  0.050369  0.051168  0  3.962629  0
C  C32  1  0.52072065  0.01144659  0.70716841  1  0.551118  0  0.061031  0.031555  0  3.857731  0
C  C33  1  0.47931195  0.51144707  0.79281803  1  0.551111  0  0.061114  0.031752  0  3.857312  0
C  C34  1  0.47930328  0.98856504  0.29281608  1  0.551066  0  0.061031  0.031596  0  3.857615  0
C  C35  1  0.52069441  0.48855005  0.20717188  1  0.552622  0  0.061172  0.031769  0  3.857832  0
C  C36  1  0.60968734  0.05905388  0.89829757  1  0.468519  0  0.044102  0.024541  0  3.933346  0
C  C37  1  0.39033845  0.55907674  0.60170535  1  0.469718  0  0.043974  0.024526  0  3.933711  0
C  C38  1  0.39032216  0.94091784  0.10171040  1  0.469596  0  0.044164  0.024817  0  3.933805  0
C  C39  1  0.60962636  0.44096392  0.39827253  1  0.470472  0  0.044023  0.024459  0  3.933838  0
C  C40  1  0.09176865  0.32043678  0.37229422  1  1.01739  0  0.188824  0.195213  0  4.145364  0
C  C41  1  0.90823915  0.82043884  0.12770865  1  1.017467  0  0.188904  0.195553  0  4.145307  0
C  C42  1  0.90823542  0.67955127  0.62770765  1  1.017484  0  0.188942  0.195448  0  4.145409  0
C  C43  1  0.09174304  0.17958005  0.87228945  1  1.018068  0  0.188929  0.195476  0  4.145382  0
C  C44  1  0.18491065  0.23236294  0.44410515  1  0.986869  0  0.209531  0.229232  0  4.095045  0
C  C45  1  0.81512152  0.73236772  0.05588827  1  0.986572  0  0.209436  0.228863  0  4.095356  0
C  C46  1  0.81510989  0.76762965  0.55589189  1  0.986543  0  0.209439  0.22893  0  4.095237  0
C  C47  1  0.18487384  0.26764210  0.94410762  1  0.986422  0  0.209448  0.228939  0  4.095599  0
C  C48  1  0.32573695  0.13678761  0.58175043  1  0.981452  0  0.195238  0.210146  0  4.093557  0
C  C49  1  0.67431066  0.63678910  0.91824141  1  0.981616  0  0.195156  0.210114  0  4.0937  0
C  C50  1  0.67428909  0.86321133  0.41824279  1  0.981511  0  0.195171  0.210169  0  4.09317  0
C  C51  1  0.32569357  0.36322526  0.08173977  1  0.9824  0  0.195079  0.209984  0  4.093773  0
N  N52  1  0.41158117  0.17653444  0.78443399  1  -1.202883  0  -0.294116  -0.245827  0  3.330403  0
N  N53  1  0.58845320  0.67655166  0.71555840  1  -1.203786  0  -0.29397  -0.245655  0  3.330211  0
N  N54  1  0.58842947  0.82344545  0.21556760  1  -1.203645  0  -0.29419  -0.245852  0  3.330324  0
N  N55  1  0.41154649  0.32346541  0.28444337  1  -1.203445  0  -0.294061  -0.245842  0  3.330322  0
N  N56  1  0.96520213  0.47883453  0.31351708  1  -0.771637  0  -0.263035  -0.200968  0  3.529871  0
N  N57  1  0.03478444  0.97884242  0.18649464  1  -0.771568  0  -0.262797  -0.200677  0  3.530212  0
N  N58  1  0.03478543  0.52115080  0.68649623  1  -0.771264  0  -0.262922  -0.200768  0  3.530467  0
N  N59  1  0.96522171  0.02116195  0.81352175  1  -0.771931  0  -0.263115  -0.201193  0  3.530019  0
N  N60  1  0.61627939  0.98942527  0.80789939  1  -1.208429  0  -0.305931  -0.187616  0  3.475751  0
N  N61  1  0.38374991  0.48943692  0.69209302  1  -1.208954  0  -0.305842  -0.187558  0  3.475718  0
N  N62  1  0.38373354  0.01056096  0.19209024  1  -1.209287  0  -0.305929  -0.187651  0  3.476085  0
N  N63  1  0.61623351  0.51058015  0.30788628  1  -1.209998  0  -0.305961  -0.187611  0  3.476269  0
N  N64  1  0.04464301  0.42202705  0.41053929  1  -0.694076  0  -0.239834  -0.257721  0  3.21418  0
N  N65  1  0.95536781  0.92203603  0.08946993  1  -0.693977  0  -0.240046  -0.258005  0  3.214687  0
N  N66  1  0.95535333  0.57795556  0.58947089  1  -0.69409  0  -0.240038  -0.257955  0  3.214687  0
N  N67  1  0.04463293  0.07797560  0.91053952  1  -0.694137  0  -0.239851  -0.257721  0  3.214275  0
N  N68  1  0.23881043  0.13716096  0.39839375  1  -0.731166  0  -0.242657  -0.237311  0  3.428173  0
N  N69  1  0.76121757  0.63715928  0.10159860  1  -0.731312  0  -0.242543  -0.237031  0  3.427786  0
N  N70  1  0.76122325  0.86284705  0.60160439  1  -0.731205  0  -0.242537  -0.237153  0  3.427586  0
N  N71  1  0.23877672  0.36284237  0.89839375  1  -0.731261  0  -0.242559  -0.237106  0  3.428114  0
N  N72  1  0.04845479  0.30759443  0.25561068  1  -1.231485  0  -0.36102  -0.371105  0  3.417237  0
N  N73  1  0.95153768  0.80758922  0.24439530  1  -1.231024  0  -0.360966  -0.37111  0  3.417301  0
N  N74  1  0.95154816  0.69239725  0.74439426  1  -1.231122  0  -0.361138  -0.371243  0  3.417288  0
N  N75  1  0.04844992  0.19241606  0.75561222  1  -1.231402  0  -0.360958  -0.37102  0  3.417755  0
N  N76  1  0.23576518  0.23545590  0.55942251  1  -1.22698  0  -0.354768  -0.375291  0  3.444476  0
N  N77  1  0.76427456  0.73545714  0.94056772  1  -1.226816  0  -0.354802  -0.375257  0  3.44536  0
N  N78  1  0.76424657  0.76453940  0.44057848  1  -1.227185  0  -0.354717  -0.375126  0  3.444637  0
N  N79  1  0.23572627  0.26455721  0.05942849  1  -1.227091  0  -0.354798  -0.375389  0  3.445012  0
N  N80  1  0.32896204  0.07543081  0.48609915  1  -0.671756  0  -0.228047  -0.252823  0  3.22174  0
N  N81  1  0.67108583  0.57542543  0.01389082  1  -0.670651  0  -0.228131  -0.253023  0  3.221458  0
N  N82  1  0.67107827  0.92458082  0.51389126  1  -0.670631  0  -0.228049  -0.252894  0  3.221301  0
N  N83  1  0.32892273  0.42456716  0.98609625  1  -0.671462  0  -0.227979  -0.252704  0  3.221905  0
