# generated using pymatgen
data_CuH11C16(NO)4
_symmetry_space_group_name_H-M   'P 1'
_cell_length_a   9.89778578
_cell_length_b   9.89722258
_cell_length_c   17.87099362
_cell_angle_alpha   95.41660969
_cell_angle_beta   100.62775346
_cell_angle_gamma   119.78343151
_symmetry_Int_Tables_number   1
_chemical_formula_structural   CuH11C16(NO)4
_chemical_formula_sum   'Cu4 H44 C64 N16 O16'
_cell_volume   1457.40864361
_cell_formula_units_Z   4
loop_
 _symmetry_equiv_pos_site_id
 _symmetry_equiv_pos_as_xyz
  1  'x, y, z'
loop_
 _atom_site_type_symbol
 _atom_site_label
 _atom_site_symmetry_multiplicity
 _atom_site_fract_x
 _atom_site_fract_y
 _atom_site_fract_z
 _atom_site_occupancy
 _atom_site_pbe_bader_spin_density
 _atom_site_pbe_cm5_charge
 _atom_site_pbe_ddec_charge
 _atom_site_pbe_ddec_spin_density
 _atom_site_pbe_ddec_sum_bond_order
 _atom_site_pbe_magmom
Cu  Cu0  1  0.89175267  0.56703652  0.04556611  1  0  0.581995  0.367433  0  2.383486  0
Cu  Cu1  1  0.02142283  0.84614858  0.45440377  1  0  0.58195  0.36703  0  2.383801  0
Cu  Cu2  1  0.10825092  0.43296744  0.95443526  1  0  0.581969  0.367421  0  2.383393  0
Cu  Cu3  1  0.97858280  0.15385542  0.54559613  1  0  0.581957  0.367007  0  2.383814  0
H  H4  1  0.31789112  0.15150180  0.42463638  1  0  0.298127  0.373805  0  0.957173  0
H  H5  1  0.22673600  0.89318153  0.07529658  1  0  0.298369  0.374069  0  0.956922  0
H  H6  1  0.68210029  0.84849842  0.57536751  1  0  0.298136  0.373822  0  0.957063  0
H  H7  1  0.77325737  0.10681282  0.92469766  1  0  0.298358  0.374076  0  0.956916  0
H  H8  1  0.42145981  0.36770486  0.16035840  1  0  0.113773  0.132208  0  1.001312  0
H  H9  1  0.70745679  0.26112755  0.33956140  1  0  0.113999  0.132364  0  1.003006  0
H  H10  1  0.57854540  0.63230032  0.83964095  1  0  0.113771  0.132216  0  1.001282  0
H  H11  1  0.29254061  0.73887040  0.66044127  1  0  0.114  0.13235  0  1.002921  0
H  H12  1  0.75790096  0.77152144  0.02719358  1  0  0.121221  0.10851  0  1.004905  0
H  H13  1  0.24441357  0.73081783  0.47289689  1  0  0.121101  0.107563  0  1.005864  0
H  H14  1  0.24210074  0.22848487  0.97280605  1  0  0.12121  0.108491  0  1.004879  0
H  H15  1  0.75559368  0.26918739  0.52709931  1  0  0.121105  0.107549  0  1.006023  0
H  H16  1  0.44068509  0.84221870  0.29886748  1  0  0.111876  0.124248  0  1.01302  0
H  H17  1  0.04316254  0.14177869  0.20125047  1  0  0.112008  0.12401  0  1.012656  0
H  H18  1  0.55931373  0.15777218  0.70113215  1  0  0.11184  0.124217  0  1.013  0
H  H19  1  0.95683894  0.85822525  0.79874846  1  0  0.111993  0.124009  0  1.012579  0
H  H20  1  0.28330267  0.34320799  0.25574179  1  0  0.113205  0.126679  0  1.016173  0
H  H21  1  0.58721263  0.02745737  0.24426507  1  0  0.11308  0.126074  0  1.017166  0
H  H22  1  0.71670006  0.65678650  0.74425674  1  0  0.113209  0.126693  0  1.016133  0
H  H23  1  0.41278388  0.97253702  0.75573284  1  0  0.113072  0.126041  0  1.017176  0
H  H24  1  0.67380956  0.39727841  0.13797054  1  0  0.109507  0.073926  0  1.032247  0
H  H25  1  0.75944206  0.53592993  0.36190582  1  0  0.109607  0.07355  0  1.032003  0
H  H26  1  0.32619881  0.60272682  0.86203249  1  0  0.109495  0.073916  0  1.03233  0
H  H27  1  0.24055745  0.46407396  0.63810018  1  0  0.109628  0.073508  0  1.032079  0
H  H28  1  0.51695854  0.76682788  0.05158135  1  0  0.110543  0.129382  0  1.034149  0
H  H29  1  0.21526041  0.46540675  0.44850894  1  0  0.110471  0.12864  0  1.034965  0
H  H30  1  0.48304173  0.23317367  0.94841956  1  0  0.110553  0.129398  0  1.034154  0
H  H31  1  0.78474021  0.53459363  0.55148691  1  0  0.110481  0.128648  0  1.034875  0
H  H32  1  0.63559504  0.66391530  0.46946210  1  0  0.109815  0.104299  0  1.047137  0
H  H33  1  0.69441038  0.16620570  0.03062724  1  0  0.109744  0.104062  0  1.046477  0
H  H34  1  0.36440380  0.33606966  0.53053776  1  0  0.109827  0.104272  0  1.047158  0
H  H35  1  0.30558635  0.83379107  0.96937138  1  0  0.109754  0.104062  0  1.046497  0
H  H36  1  0.94203076  0.59141779  0.20646181  1  0  0.099907  0.139438  0  1.050271  0
H  H37  1  0.88443089  0.73535072  0.29353852  1  0  0.100103  0.140183  0  1.049119  0
H  H38  1  0.05797879  0.40859574  0.79353787  1  0  0.099927  0.139427  0  1.050257  0
H  H39  1  0.11555965  0.26464594  0.70646173  1  0  0.100104  0.140163  0  1.049124  0
H  H40  1  0.12677847  0.69324100  0.28199349  1  0  0.108067  0.16505  0  0.975041  0
H  H41  1  0.91016118  0.84429988  0.21792610  1  0  0.108428  0.165866  0  0.974793  0
H  H42  1  0.87323235  0.30676900  0.71800724  1  0  0.108019  0.165012  0  0.975004  0
H  H43  1  0.08983308  0.15569803  0.78207346  1  0  0.108416  0.165846  0  0.974789  0
H  H44  1  0.00444017  0.48216938  0.26250050  1  0  0.096667  0.143367  0  1.032706  0
H  H45  1  0.71885713  0.74159513  0.23769005  1  0  0.096797  0.143865  0  1.033057  0
H  H46  1  0.99556549  0.51784054  0.73750196  1  0  0.096637  0.14333  0  1.032686  0
H  H47  1  0.28114165  0.25840759  0.76230798  1  0  0.096799  0.143877  0  1.033018  0
C  C48  1  0.68423770  0.68884764  0.05967449  1  0  0.042334  0.092912  0  3.885885  0
C  C49  1  0.12927438  0.62467762  0.44035061  1  0  0.042109  0.0943  0  3.885584  0
C  C50  1  0.31576649  0.31115752  0.94032533  1  0  0.042337  0.092901  0  3.885906  0
C  C51  1  0.87072730  0.37532277  0.55964758  1  0  0.042125  0.094262  0  3.885663  0
C  C52  1  0.54809998  0.68393850  0.07283140  1  0  -0.078887  -0.146747  0  3.913845  0
C  C53  1  0.11118745  0.47536867  0.42719105  1  0  -0.07852  -0.145829  0  3.917501  0
C  C54  1  0.45190359  0.31606547  0.92716885  1  0  -0.078874  -0.146757  0  3.913885  0
C  C55  1  0.88881444  0.52463410  0.57280673  1  0  -0.078571  -0.145804  0  3.91746  0
C  C56  1  0.45094331  0.56963439  0.11070337  1  0  0.006416  0.040469  0  4.019171  0
C  C57  1  0.95902697  0.34031996  0.38932173  1  0  0.006857  0.040426  0  4.021452  0
C  C58  1  0.54906173  0.43036842  0.88929808  1  0  0.006384  0.040475  0  4.019197  0
C  C59  1  0.04096770  0.65967677  0.61067725  1  0  0.006895  0.040441  0  4.021489  0
C  C60  1  0.30447264  0.56176921  0.12145991  1  0  0.240996  0.253286  0  3.948143  0
C  C61  1  0.94039862  0.18308335  0.37860724  1  0  0.240959  0.252825  0  3.948486  0
C  C62  1  0.69553033  0.43823357  0.87854133  1  0  0.241007  0.253305  0  3.948298  0
C  C63  1  0.05960000  0.81691699  0.62139400  1  0  0.240966  0.252785  0  3.948407  0
C  C64  1  0.49726230  0.46471895  0.13509885  1  0  -0.077438  -0.145451  0  3.938068  0
C  C65  1  0.82970600  0.36220962  0.36482684  1  0  -0.078205  -0.146516  0  3.938833  0
C  C66  1  0.50274500  0.53528626  0.86490184  1  0  -0.077457  -0.1455  0  3.938004  0
C  C67  1  0.17028624  0.63778825  0.63517701  1  0  -0.078247  -0.146525  0  3.938773  0
C  C68  1  0.44751072  0.74334378  0.31717398  1  0  -0.076934  -0.171749  0  3.931195  0
C  C69  1  0.92597765  0.13028307  0.18292044  1  0  -0.076477  -0.169783  0  3.932258  0
C  C70  1  0.55248711  0.25664708  0.68282835  1  0  -0.076887  -0.171741  0  3.931051  0
C  C71  1  0.07402508  0.86971734  0.81707841  1  0  -0.076505  -0.169891  0  3.932397  0
C  C72  1  0.45781916  0.35793746  0.40299627  1  0  0.225847  0.566268  0  4.136906  0
C  C73  1  0.45481815  0.05483871  0.09699332  1  0  0.226418  0.566472  0  4.13378  0
C  C74  1  0.54217804  0.64205812  0.59700626  1  0  0.225791  0.566212  0  4.136934  0
C  C75  1  0.54518023  0.94515335  0.90300409  1  0  0.226383  0.566418  0  4.13382  0
C  C76  1  0.35904984  0.46199560  0.29336174  1  0  -0.07856  -0.177987  0  3.93658  0
C  C77  1  0.66841677  0.06563430  0.20667040  1  0  -0.078224  -0.175903  0  3.937003  0
C  C78  1  0.64095084  0.53799886  0.70663771  1  0  -0.078541  -0.177979  0  3.936569  0
C  C79  1  0.33158140  0.93436131  0.79332775  1  0  -0.078217  -0.175885  0  3.936841  0
C  C80  1  0.54381477  0.77011085  0.39141017  1  0  -0.009664  -0.004482  0  3.937307  0
C  C81  1  0.87858151  0.15244336  0.10869488  1  0  -0.009796  -0.005378  0  3.936214  0
C  C82  1  0.45618241  0.22988474  0.60859123  1  0  -0.009699  -0.004427  0  3.937209  0
C  C83  1  0.12141561  0.84755815  0.89130293  1  0  -0.009819  -0.005412  0  3.936206  0
C  C84  1  0.36131057  0.59222076  0.26812614  1  0  0.087204  0.174305  0  4.01818  0
C  C85  1  0.82384488  0.09309637  0.23193067  1  0  0.086893  0.172872  0  4.024041  0
C  C86  1  0.63868991  0.40777724  0.73187460  1  0  0.08718  0.174286  0  4.018288  0
C  C87  1  0.17615186  0.90690040  0.76806851  1  0  0.086951  0.173001  0  4.023919  0
C  C88  1  0.63649804  0.47898860  0.12104416  1  0  0.031698  0.078156  0  3.960618  0
C  C89  1  0.85806320  0.51552425  0.37884329  1  0  0.03185  0.079716  0  3.959435  0
C  C90  1  0.36350553  0.52101537  0.87895609  1  0  0.031715  0.078189  0  3.960691  0
C  C91  1  0.14193791  0.48448086  0.62115902  1  0  0.031853  0.079772  0  3.959631  0
C  C92  1  0.12767716  0.57318254  0.17639171  1  0  0.236593  0.350523  0  3.94815  0
C  C93  1  0.89637688  0.95109901  0.32365272  1  0  0.235974  0.349292  0  3.947607  0
C  C94  1  0.87232746  0.42682145  0.82360921  1  0  0.236644  0.350662  0  3.948089  0
C  C95  1  0.10362172  0.04890133  0.67634684  1  0  0.23594  0.349224  0  3.947729  0
C  C96  1  0.55424878  0.64360604  0.41392405  1  0  -0.070354  -0.103651  0  3.933066  0
C  C97  1  0.72959425  0.14041007  0.08617323  1  0  -0.069653  -0.101965  0  3.931716  0
C  C98  1  0.44575419  0.35639082  0.58607687  1  0  -0.070401  -0.103694  0  3.933112  0
C  C99  1  0.27040557  0.85958674  0.91382458  1  0  -0.069626  -0.101912  0  3.93164  0
C  C100  1  0.04608269  0.58587061  0.23539399  1  0  -0.232635  -0.46971  0  3.944348  0
C  C101  1  0.84974598  0.81036925  0.26463622  1  0  -0.233376  -0.472124  0  3.944933  0
C  C102  1  0.95392088  0.41413927  0.76460715  1  0  -0.23257  -0.469619  0  3.94427  0
C  C103  1  0.15024973  0.18962750  0.73536398  1  0  -0.233361  -0.472097  0  3.944981  0
C  C104  1  0.63379688  0.93582245  0.44378417  1  0  0.198632  0.571774  0  4.202263  0
C  C105  1  0.99198996  0.19010248  0.05636339  1  0  0.198904  0.573052  0  4.202109  0
C  C106  1  0.36620392  0.06416017  0.55622303  1  0  0.198706  0.571826  0  4.202653  0
C  C107  1  0.00802089  0.80990160  0.94363926  1  0  0.198854  0.573154  0  4.20182  0
C  C108  1  0.45713793  0.48874761  0.36717942  1  0  -0.014344  -0.028749  0  3.985532  0
C  C109  1  0.62141997  0.08999266  0.13286230  1  0  -0.015357  -0.031061  0  3.984234  0
C  C110  1  0.54285799  0.51124559  0.63282061  1  0  -0.014329  -0.02868  0  3.985389  0
C  C111  1  0.37857925  0.91000297  0.86713651  1  0  -0.015356  -0.03108  0  3.984262  0
N  N112  1  0.72940083  0.58745281  0.08333297  1  0  -0.375055  -0.236966  0  3.710776  0
N  N113  1  0.00421970  0.64614815  0.41663715  1  0  -0.375064  -0.237865  0  3.711863  0
N  N114  1  0.27060543  0.41255239  0.91666705  1  0  -0.375035  -0.236924  0  3.710804  0
N  N115  1  0.99578490  0.35385583  0.58336208  1  0  -0.375049  -0.237829  0  3.711908  0
N  N116  1  0.19003375  0.55465563  0.06585036  1  0  -0.26546  -0.205715  0  3.512037  0
N  N117  1  0.98891359  0.12422790  0.43419237  1  0  -0.265514  -0.205233  0  3.510252  0
N  N118  1  0.80997066  0.44535190  0.93415129  1  0  -0.265504  -0.20578  0  3.512221  0
N  N119  1  0.01108026  0.87577118  0.56580778  1  0  -0.26554  -0.205274  0  3.510235  0
N  N120  1  0.07924771  0.56180008  0.10067543  1  0  -0.278395  -0.215451  0  3.577597  0
N  N121  1  0.96095839  0.97848259  0.39935192  1  0  -0.278462  -0.214696  0  3.575649  0
N  N122  1  0.92075671  0.43820744  0.89932734  1  0  -0.278403  -0.215494  0  3.577526  0
N  N123  1  0.03903753  0.02151653  0.60064843  1  0  -0.278435  -0.214669  0  3.57578  0
N  N124  1  0.26757370  0.57152569  0.19170135  1  0  -0.211672  -0.117192  0  3.690941  0
N  N125  1  0.87956368  0.07579170  0.30836448  1  0  -0.211413  -0.116568  0  3.690262  0
N  N126  1  0.73242678  0.42847232  0.80829939  1  0  -0.211637  -0.117232  0  3.691083  0
N  N127  1  0.12043760  0.92420987  0.69163485  1  0  -0.211427  -0.116533  0  3.690171  0
O  O128  1  0.63247689  0.04469833  0.41388574  1  0  -0.324284  -0.548022  0  2.129605  0
O  O129  1  0.13064131  0.21850416  0.08626619  1  0  -0.32464  -0.548617  0  2.13131  0
O  O130  1  0.36751999  0.95530673  0.58610944  1  0  -0.324188  -0.547824  0  2.130644  0
O  O131  1  0.86934959  0.78149724  0.91373043  1  0  -0.324638  -0.548782  0  2.130739  0
O  O132  1  0.31590442  0.22059740  0.38404065  1  0  -0.336929  -0.48804  0  2.264693  0
O  O133  1  0.33641852  0.93192117  0.11594800  1  0  -0.337251  -0.488046  0  2.265754  0
O  O134  1  0.68407999  0.77939916  0.61596571  1  0  -0.33687  -0.487996  0  2.264803  0
O  O135  1  0.66358188  0.06807684  0.88404714  1  0  -0.337257  -0.488069  0  2.265592  0
O  O136  1  0.57920958  0.38267563  0.45036451  1  0  -0.276905  -0.482978  0  2.222331  0
O  O137  1  0.43215358  0.12874940  0.04956248  1  0  -0.277305  -0.483277  0  2.218353  0
O  O138  1  0.42078361  0.61731044  0.54963094  1  0  -0.276919  -0.483046  0  2.222192  0
O  O139  1  0.56785100  0.87125458  0.95043563  1  0  -0.277277  -0.48321  0  2.218561  0
O  O140  1  0.71072462  0.95485461  0.51461499  1  0  -0.336577  -0.57281  0  2.319615  0
O  O141  1  0.94027991  0.19639574  0.98554371  1  0  -0.336688  -0.573662  0  2.318438  0
O  O142  1  0.28927377  0.04514337  0.48538443  1  0  -0.336697  -0.573043  0  2.319278  0
O  O143  1  0.05971823  0.80360579  0.01445308  1  0  -0.336663  -0.573607  0  2.318746  0
