# generated using pymatgen
data_ZnH9C9NO5
_symmetry_space_group_name_H-M   'P 1'
_cell_length_a   7.46457802
_cell_length_b   7.92137803
_cell_length_c   9.78029401
_cell_angle_alpha   78.84349299
_cell_angle_beta   74.20154312
_cell_angle_gamma   63.26579043
_symmetry_Int_Tables_number   1
_chemical_formula_structural   ZnH9C9NO5
_chemical_formula_sum   'Zn2 H18 C18 N2 O10'
_cell_volume   495.27712014
_cell_formula_units_Z   2
loop_
 _symmetry_equiv_pos_site_id
 _symmetry_equiv_pos_as_xyz
  1  'x, y, z'
loop_
 _atom_site_type_symbol
 _atom_site_label
 _atom_site_symmetry_multiplicity
 _atom_site_fract_x
 _atom_site_fract_y
 _atom_site_fract_z
 _atom_site_occupancy
 _atom_site_hle17_bader_spin_density
 _atom_site_hle17_ddec_charge
 _atom_site_hle17_ddec_spin_density
 _atom_site_hle17_ddec_sum_bond_order
 _atom_site_hle17_magmom
 _atom_site_hse06_10hf_bader_spin_density
 _atom_site_hse06_10hf_ddec_charge
 _atom_site_hse06_10hf_ddec_spin_density
 _atom_site_hse06_10hf_ddec_sum_bond_order
 _atom_site_hse06_10hf_magmom
 _atom_site_hse06_bader_spin_density
 _atom_site_hse06_ddec_charge
 _atom_site_hse06_ddec_spin_density
 _atom_site_hse06_ddec_sum_bond_order
 _atom_site_hse06_magmom
 _atom_site_pbe_bader_spin_density
 _atom_site_pbe_cm5_charge
 _atom_site_pbe_ddec_charge
 _atom_site_pbe_ddec_spin_density
 _atom_site_pbe_ddec_sum_bond_order
 _atom_site_pbe_magmom
Zn  Zn0  1  0.10573994  0.14636236  0.43442021  1  0  1.120961  0  1.770322  0  0  0.937716  0  2.239268  0  0  0.985766  0  2.180238  0  0  0.694243  0.903896  0  2.27975  0
Zn  Zn1  1  0.89426067  0.85363821  0.56558079  1  0  1.12095  0  1.770355  0  0  0.93769  0  2.239308  0  0  0.985743  0  2.180286  0  0  0.694242  0.903876  0  2.279794  0
H  H2  1  0.82109438  0.49921391  0.46368025  1  0  0.43839  0  0.861681  0  0  0.404099  0  0.92878  0  0  0.416124  0  0.911471  0  0  0.292926  0.395558  0  0.941072  0
H  H3  1  0.17890346  0.50078665  0.53632030  1  0  0.438407  0  0.861663  0  0  0.404108  0  0.928776  0  0  0.416134  0  0.911465  0  0  0.292929  0.395568  0  0.941066  0
H  H4  1  0.73924837  0.37377129  0.40506875  1  0  0.4476  0  0.851835  0  0  0.414867  0  0.918024  0  0  0.425394  0  0.902736  0  0  0.302149  0.407393  0  0.928897  0
H  H5  1  0.26075151  0.62622785  0.59493057  1  0  0.447602  0  0.851832  0  0  0.414865  0  0.91803  0  0  0.425393  0  0.902739  0  0  0.302142  0.407392  0  0.928902  0
H  H6  1  0.62075817  0.50304065  0.16154756  1  0  0.085985  0  0.951924  0  0  0.100976  0  1.014532  0  0  0.102097  0  1.014888  0  0  0.094688  0.100063  0  1.014393  0
H  H7  1  0.37923903  0.49696133  0.83845188  1  0  0.085946  0  0.951956  0  0  0.100967  0  1.014517  0  0  0.102086  0  1.014871  0  0  0.094681  0.10005  0  1.014383  0
H  H8  1  0.87146249  0.48514003  0.09794144  1  0  0.088552  0  0.940005  0  0  0.106608  0  0.999124  0  0  0.107351  0  0.999664  0  0  0.098087  0.105931  0  0.998897  0
H  H9  1  0.12853462  0.51485912  0.90205743  1  0  0.088555  0  0.939982  0  0  0.10661  0  0.99911  0  0  0.107351  0  0.99965  0  0  0.098076  0.105932  0  0.998881  0
H  H10  1  0.33614846  0.79541307  0.26306918  1  0  0.095765  0  0.923282  0  0  0.105095  0  0.984002  0  0  0.108484  0  0.980754  0  0  0.122794  0.102485  0  0.986743  0
H  H11  1  0.66385228  0.20459033  0.73692829  1  0  0.095757  0  0.923262  0  0  0.105089  0  0.983995  0  0  0.108478  0  0.980746  0  0  0.122798  0.10248  0  0.986735  0
H  H12  1  0.95328245  0.75441758  0.11769204  1  0  0.120194  0  0.927158  0  0  0.132639  0  0.983437  0  0  0.13578  0  0.981358  0  0  0.11855  0.130196  0  0.98527  0
H  H13  1  0.04671881  0.24558156  0.88231007  1  0  0.120182  0  0.927148  0  0  0.132628  0  0.983428  0  0  0.135769  0  0.981348  0  0  0.118545  0.130186  0  0.98526  0
H  H14  1  0.70944732  0.51579715  0.89475092  1  0  0.095763  0  0.945821  0  0  0.120737  0  1.00074  0  0  0.121911  0  1.000946  0  0  0.086789  0.119918  0  1.000732  0
H  H15  1  0.29055053  0.48420342  0.10524860  1  0  0.095735  0  0.945859  0  0  0.120736  0  1.000743  0  0  0.121911  0  1.000946  0  0  0.086787  0.119918  0  1.000731  0
H  H16  1  0.76142662  0.71691942  0.88610001  1  0  0.097887  0  0.972384  0  0  0.114911  0  1.044117  0  0  0.1166  0  1.043757  0  0  0.08294  0.113657  0  1.044489  0
H  H17  1  0.23857187  0.28307973  0.11390062  1  0  0.097883  0  0.972402  0  0  0.114896  0  1.044154  0  0  0.116585  0  1.043794  0  0  0.082933  0.113642  0  1.044525  0
H  H18  1  0.50687556  0.73445255  0.95142495  1  0  0.094929  0  0.954481  0  0  0.116597  0  1.014148  0  0  0.117195  0  1.016119  0  0  0.083797  0.116236  0  1.012747  0
H  H19  1  0.49312164  0.26554944  0.04857448  1  0  0.094937  0  0.954491  0  0  0.116599  0  1.014165  0  0  0.117196  0  1.016137  0  0  0.083803  0.116238  0  1.012765  0
C  C20  1  0.70985725  0.58223112  0.10063316  1  0  -0.124905  0  3.721874  0  0  -0.163722  0  3.971239  0  0  -0.164739  0  3.985113  0  0  -0.163143  -0.162701  0  3.961591  0
C  C21  1  0.29014124  0.41776803  0.89936645  1  0  -0.124856  0  3.72188  0  0  -0.163676  0  3.971216  0  0  -0.164688  0  3.985087  0  0  -0.163106  -0.162649  0  3.961567  0
C  C22  1  0.65452114  0.75052154  0.17816989  1  0  0.096426  0  3.674998  0  0  0.118939  0  3.91643  0  0  0.117522  0  3.938044  0  0  0.017655  0.119555  0  3.902523  0
C  C23  1  0.34547798  0.24947618  0.82183186  1  0  0.096327  0  3.67507  0  0  0.118847  0  3.916509  0  0  0.117426  0  3.938123  0  0  0.017637  0.119465  0  3.9026  0
C  C24  1  0.45385756  0.84483132  0.25446697  1  0  0.107977  0  3.626862  0  0  0.064982  0  3.881231  0  0  0.072154  0  3.896101  0  0  0.059961  0.059897  0  3.872083  0
C  C25  1  0.54614307  0.15516925  0.74553199  1  0  0.10806  0  3.626813  0  0  0.065027  0  3.881219  0  0  0.072199  0  3.896095  0  0  0.059968  0.059942  0  3.872071  0
C  C26  1  0.73703744  0.97902414  0.25125742  1  0  -0.075682  0  3.70579  0  0  -0.060479  0  3.947361  0  0  -0.066177  0  3.965284  0  0  0.005321  -0.057238  0  3.93568  0
C  C27  1  0.26296510  0.02097216  0.74874487  1  0  -0.075708  0  3.705969  0  0  -0.060505  0  3.947557  0  0  -0.066232  0  3.965487  0  0  0.005317  -0.057263  0  3.935877  0
C  C28  1  0.79571088  0.82160845  0.17707657  1  0  -0.048684  0  3.598482  0  0  -0.08488  0  3.842484  0  0  -0.081924  0  3.85725  0  0  -0.049611  -0.086688  0  3.833032  0
C  C29  1  0.20428963  0.17838928  0.82292490  1  0  -0.048623  0  3.598426  0  0  -0.084807  0  3.842413  0  0  -0.08185  0  3.857189  0  0  -0.049598  -0.086611  0  3.832956  0
C  C30  1  0.44308439  0.24923871  0.39263595  1  0  0.622289  0  3.933085  0  0  0.565736  0  4.237622  0  0  0.598179  0  4.231931  0  0  0.213228  0.54368  0  4.240925  0
C  C31  1  0.55691271  0.75076044  0.60736394  1  0  0.622361  0  3.933151  0  0  0.565791  0  4.237758  0  0  0.598219  0  4.232056  0  0  0.21322  0.543735  0  4.241062  0
C  C32  1  0.53112842  0.06844891  0.32041487  1  0  0.051201  0  3.757072  0  0  0.041063  0  4.007275  0  0  0.041721  0  4.027669  0  0  0.104715  0.040754  0  3.992756  0
C  C33  1  0.46887218  0.93155165  0.67958818  1  0  0.051171  0  3.757223  0  0  0.040974  0  4.007522  0  0  0.041689  0  4.027848  0  0  0.10469  0.040669  0  3.993002  0
C  C34  1  0.66975115  0.64101847  0.94913311  1  0  -0.280798  0  3.690989  0  0  -0.354481  0  3.934052  0  0  -0.358053  0  3.946518  0  0  -0.246923  -0.351967  0  3.925549  0
C  C35  1  0.33024669  0.35898209  0.05086744  1  0  -0.280787  0  3.691001  0  0  -0.354486  0  3.934074  0  0  -0.358061  0  3.946538  0  0  -0.246932  -0.351974  0  3.925568  0
C  C36  1  0.89849140  0.04209693  0.25509352  1  0  0.675551  0  3.885782  0  0  0.620276  0  4.187139  0  0  0.655142  0  4.177203  0  0  0.218987  0.596389  0  4.193315  0
C  C37  1  0.10151674  0.95789938  0.74490456  1  0  0.675538  0  3.885698  0  0  0.620283  0  4.187016  0  0  0.655152  0  4.177081  0  0  0.219001  0.596398  0  4.193194  0
N  N38  1  0.39514228  0.99943685  0.32106261  1  0  -0.357133  0  3.392661  0  0  -0.281535  0  3.677788  0  0  -0.299211  0  3.693084  0  0  -0.32952  -0.26943  0  3.667061  0
N  N39  1  0.60485899  0.00056229  0.67893848  1  0  -0.357133  0  3.39277  0  0  -0.281482  0  3.677905  0  0  -0.299176  0  3.693187  0  0  -0.329483  -0.26938  0  3.667182  0
O  O40  1  0.55132212  0.33576504  0.38163473  1  0  -0.588985  0  2.02323  0  0  -0.539445  0  2.254195  0  0  -0.562348  0  2.245788  0  0  -0.29819  -0.523614  0  2.260037  0
O  O41  1  0.44867671  0.66424261  0.61836043  1  0  -0.588984  0  2.023465  0  0  -0.539437  0  2.254458  0  0  -0.562338  0  2.246053  0  0  -0.298155  -0.523607  0  2.260304  0
O  O42  1  0.86387560  0.38686504  0.40919959  1  0  -0.84772  0  1.926393  0  0  -0.774743  0  2.155047  0  0  -0.798116  0  2.116834  0  0  -0.578284  -0.758227  0  2.181595  0
O  O43  1  0.13612288  0.61313411  0.59080206  1  0  -0.847736  0  1.926386  0  0  -0.77475  0  2.155039  0  0  -0.798124  0  2.116828  0  0  -0.578285  -0.758235  0  2.181588  0
O  O44  1  0.25381270  0.30660654  0.45997708  1  0  -0.64624  0  2.084793  0  0  -0.565632  0  2.32992  0  0  -0.595388  0  2.318826  0  0  -0.308859  -0.544815  0  2.337205  0
O  O45  1  0.74618729  0.69339544  0.54002179  1  0  -0.646258  0  2.084737  0  0  -0.565647  0  2.32988  0  0  -0.595411  0  2.318807  0  0  -0.308869  -0.544828  0  2.337164  0
O  O46  1  0.96457591  0.99244947  0.37536161  1  0  -0.720835  0  2.154728  0  0  -0.629131  0  2.453486  0  0  -0.661568  0  2.432964  0  0  -0.33227  -0.606126  0  2.466824  0
O  O47  1  0.03542264  0.00755251  0.62464266  1  0  -0.720868  0  2.154846  0  0  -0.629173  0  2.453588  0  0  -0.661605  0  2.433059  0  0  -0.332296  -0.606166  0  2.466926  0
O  O48  1  0.97021377  0.12279414  0.14936139  1  0  -0.548469  0  1.899032  0  0  -0.511178  0  2.119257  0  0  -0.533877  0  2.112103  0  0  -0.290037  -0.494797  0  2.123403  0
O  O49  1  0.02979332  0.87719225  0.85063742  1  0  -0.548475  0  1.898714  0  0  -0.511164  0  2.118889  0  0  -0.533863  0  2.111735  0  0  -0.290042  -0.494784  0  2.123038  0
