# generated using pymatgen
data_HgH20C26(N3Cl)2
_symmetry_space_group_name_H-M   'P 1'
_cell_length_a   6.96403757
_cell_length_b   9.04938780
_cell_length_c   21.27400000
_cell_angle_alpha   91.80657442
_cell_angle_beta   90.00000000
_cell_angle_gamma   112.63038199
_symmetry_Int_Tables_number   1
_chemical_formula_structural   HgH20C26(N3Cl)2
_chemical_formula_sum   'Hg2 H40 C52 N12 Cl4'
_cell_volume   1236.74642203
_cell_formula_units_Z   2
loop_
 _symmetry_equiv_pos_site_id
 _symmetry_equiv_pos_as_xyz
  1  'x, y, z'
loop_
 _atom_site_type_symbol
 _atom_site_label
 _atom_site_symmetry_multiplicity
 _atom_site_fract_x
 _atom_site_fract_y
 _atom_site_fract_z
 _atom_site_occupancy
 _atom_site_hle17_bader_spin_density
 _atom_site_hle17_ddec_charge
 _atom_site_hle17_ddec_spin_density
 _atom_site_hle17_ddec_sum_bond_order
 _atom_site_hle17_magmom
 _atom_site_hse06_10hf_bader_spin_density
 _atom_site_hse06_10hf_ddec_charge
 _atom_site_hse06_10hf_ddec_spin_density
 _atom_site_hse06_10hf_ddec_sum_bond_order
 _atom_site_hse06_10hf_magmom
 _atom_site_hse06_bader_spin_density
 _atom_site_hse06_ddec_charge
 _atom_site_hse06_ddec_spin_density
 _atom_site_hse06_ddec_sum_bond_order
 _atom_site_hse06_magmom
 _atom_site_pbe_bader_charge
 _atom_site_pbe_bader_spin_density
 _atom_site_pbe_cm5_charge
 _atom_site_pbe_ddec_charge
 _atom_site_pbe_ddec_spin_density
 _atom_site_pbe_ddec_sum_bond_order
 _atom_site_pbe_magmom
Hg  Hg0  1  0.41776878  0.99997142  0.74997311  1  0  0.745334  0  2.074301  0  0  0.57649  0  2.578416  0  0  0.626433  0  2.54181  0  0.81021  0  0.510752  0.542424  0  2.602858  0
Hg  Hg1  1  0.58223446  0.00003234  0.25002582  1  0  0.745381  0  2.07423  0  0  0.576526  0  2.578346  0  0  0.626468  0  2.541746  0  0.810193  0  0.510767  0.54246  0  2.60279  0
H  H2  1  0.25292026  0.88518865  0.58622741  1  0  0.101021  0  0.982129  0  0  0.10867  0  1.048957  0  0  0.110719  0  1.049343  0  0.084882  0  0.102283  0.107199  0  1.048775  0
H  H3  1  0.36820644  0.11513376  0.91377108  1  0  0.100488  0  0.982507  0  0  0.108188  0  1.0493  0  0  0.110216  0  1.049718  0  0.095467  0  0.101899  0.106738  0  1.049071  0
H  H4  1  0.74708142  0.11480912  0.41377237  1  0  0.101061  0  0.982109  0  0  0.108711  0  1.048926  0  0  0.110761  0  1.049311  0  0.084873  0  0.102326  0.10724  0  1.048745  0
H  H5  1  0.63179284  0.88485922  0.08622628  1  0  0.100513  0  0.982477  0  0  0.108233  0  1.049231  0  0  0.110263  0  1.049641  0  0.095459  0  0.101907  0.10678  0  1.049012  0
H  H6  1  0.99478082  0.65125428  0.70774766  1  0  0.07601  0  0.944134  0  0  0.082836  0  1.01144  0  0  0.085164  0  1.009243  0  0.084745  0  0.107179  0.081151  0  1.012975  0
H  H7  1  0.34405963  0.34899506  0.79244070  1  0  0.075083  0  0.945412  0  0  0.082319  0  1.012389  0  0  0.084557  0  1.010285  0  0.093949  0  0.106904  0.080707  0  1.013864  0
H  H8  1  0.00521882  0.34874230  0.29225117  1  0  0.076035  0  0.944093  0  0  0.082851  0  1.011403  0  0  0.085181  0  1.009205  0  0.084806  0  0.107187  0.081165  0  1.012937  0
H  H9  1  0.65595151  0.65101589  0.20756349  1  0  0.075112  0  0.945387  0  0  0.082341  0  1.012387  0  0  0.08458  0  1.010282  0  0.094086  0  0.106903  0.080732  0  1.01386  0
H  H10  1  0.66899852  0.56416513  0.64504364  1  0  0.118807  0  0.967436  0  0  0.128022  0  1.027433  0  0  0.131494  0  1.026887  0  0.091515  0  0.101972  0.125577  0  1.027957  0
H  H11  1  0.10532213  0.43596441  0.85515345  1  0  0.118738  0  0.966804  0  0  0.127647  0  1.027234  0  0  0.131174  0  1.026608  0  0.084442  0  0.101819  0.125208  0  1.027764  0
H  H12  1  0.33099933  0.43582784  0.35495608  1  0  0.118766  0  0.967431  0  0  0.12801  0  1.027395  0  0  0.1315  0  1.026826  0  0.091502  0  0.101964  0.125564  0  1.027919  0
H  H13  1  0.89468517  0.56404175  0.14484973  1  0  0.118775  0  0.966745  0  0  0.127696  0  1.027166  0  0  0.131224  0  1.026537  0  0.084522  0  0.101849  0.125258  0  1.027696  0
H  H14  1  0.15340705  0.12640264  0.66459250  1  0  0.069448  0  0.956303  0  0  0.074482  0  1.028376  0  0  0.076655  0  1.026276  0  0.098647  0  0.104898  0.072889  0  1.029893  0
H  H15  1  0.02748464  0.87375805  0.83544613  1  0  0.07001  0  0.955915  0  0  0.074733  0  1.02839  0  0  0.076925  0  1.026267  0  0.082472  0  0.104973  0.073121  0  1.029935  0
H  H16  1  0.84658481  0.87359273  0.33540819  1  0  0.069348  0  0.956412  0  0  0.074435  0  1.02844  0  0  0.07661  0  1.02634  0  0.098576  0  0.104866  0.072842  0  1.029959  0
H  H17  1  0.97251608  0.12624931  0.16455096  1  0  0.069994  0  0.955899  0  0  0.074718  0  1.028377  0  0  0.07691  0  1.026252  0  0.082377  0  0.10496  0.073104  0  1.029923  0
H  H18  1  0.35197832  0.59208517  0.47654807  1  0  0.121476  0  0.937056  0  0  0.131949  0  0.995104  0  0  0.135443  0  0.994162  0  0.096377  0  0.110406  0.129461  0  0.995944  0
H  H19  1  0.76017372  0.40817375  0.02346462  1  0  0.120872  0  0.93739  0  0  0.131481  0  0.995364  0  0  0.134973  0  0.994399  0  0.098856  0  0.110121  0.129006  0  0.996202  0
H  H20  1  0.64801103  0.40791380  0.52345126  1  0  0.121465  0  0.937047  0  0  0.13194  0  0.995085  0  0  0.135432  0  0.994151  0  0.096457  0  0.110412  0.129452  0  0.995925  0
H  H21  1  0.23981910  0.59182642  0.97653755  1  0  0.120929  0  0.937449  0  0  0.131522  0  0.995447  0  0  0.135015  0  0.994482  0  0.099137  0  0.110106  0.129045  0  0.996289  0
H  H22  1  0.34747200  0.60674538  0.68007784  1  0  0.11376  0  0.976548  0  0  0.11941  0  1.046092  0  0  0.122786  0  1.0449  0  0.132601  0  0.096919  0.116929  0  1.047161  0
H  H23  1  0.74077980  0.39295291  0.81994425  1  0  0.113143  0  0.976813  0  0  0.118893  0  1.046232  0  0  0.122289  0  1.044992  0  0.114161  0  0.0967  0.116428  0  1.047289  0
H  H24  1  0.65252908  0.39325120  0.31992146  1  0  0.113737  0  0.97651  0  0  0.119382  0  1.046062  0  0  0.122769  0  1.04486  0  0.132538  0  0.096923  0.116902  0  1.047128  0
H  H25  1  0.25922571  0.60704965  0.18005842  1  0  0.113085  0  0.976823  0  0  0.118829  0  1.046259  0  0  0.122235  0  1.04501  0  0.114446  0  0.096683  0.116364  0  1.047317  0
H  H26  1  0.20732934  0.08967067  0.51842069  1  0  0.108706  0  0.944742  0  0  0.119232  0  1.00543  0  0  0.121636  0  1.005149  0  0.084402  0  0.107761  0.117491  0  1.005759  0
H  H27  1  0.11770098  0.91074757  0.98152456  1  0  0.108907  0  0.944104  0  0  0.11906  0  1.005161  0  0  0.121537  0  1.004797  0  0.051897  0  0.107588  0.117294  0  1.005511  0
H  H28  1  0.79267174  0.91032590  0.48157954  1  0  0.108676  0  0.944779  0  0  0.119194  0  1.00548  0  0  0.121597  0  1.0052  0  0.084332  0  0.107745  0.117466  0  1.005782  0
H  H29  1  0.88229746  0.08924660  0.01847329  1  0  0.108913  0  0.944124  0  0  0.119066  0  1.005182  0  0  0.121544  0  1.004816  0  0.051829  0  0.107595  0.117299  0  1.005533  0
H  H30  1  0.04202539  0.34608650  0.67362149  1  0  0.071205  0  0.949124  0  0  0.078707  0  1.013816  0  0  0.081082  0  1.011936  0  0.083124  0  0.101798  0.076967  0  1.015209  0
H  H31  1  0.69539318  0.65338898  0.82625847  1  0  0.070891  0  0.948842  0  0  0.078564  0  1.013402  0  0  0.08095  0  1.0115  0  0.076448  0  0.101666  0.07682  0  1.014803  0
H  H32  1  0.95797545  0.65391247  0.32637878  1  0  0.071239  0  0.949123  0  0  0.078741  0  1.013815  0  0  0.081115  0  1.011936  0  0.083003  0  0.101817  0.077  0  1.01521  0
H  H33  1  0.30461640  0.34661598  0.17374235  1  0  0.070935  0  0.948786  0  0  0.078605  0  1.013351  0  0  0.080992  0  1.011448  0  0.076204  0  0.101689  0.07686  0  1.014752  0
H  H34  1  0.05574794  0.32699277  0.47924116  1  0  0.063369  0  0.950325  0  0  0.070979  0  1.017468  0  0  0.072919  0  1.016788  0  0.085408  0  0.103396  0.069524  0  1.018097  0
H  H35  1  0.72829103  0.67303016  0.02063862  1  0  0.063117  0  0.950237  0  0  0.070861  0  1.017469  0  0  0.072744  0  1.016854  0  0.096891  0  0.103173  0.069451  0  1.018049  0
H  H36  1  0.94424345  0.67300739  0.52075959  1  0  0.063387  0  0.950307  0  0  0.07101  0  1.017431  0  0  0.07295  0  1.01675  0  0.085565  0  0.103399  0.069554  0  1.01806  0
H  H37  1  0.27170957  0.32697121  0.97936262  1  0  0.063111  0  0.950252  0  0  0.070856  0  1.01748  0  0  0.072738  0  1.016868  0  0.096941  0  0.103199  0.069448  0  1.018059  0
H  H38  1  0.83456657  0.06647285  0.60247597  1  0  0.118055  0  1.015225  0  0  0.115683  0  1.094537  0  0  0.120499  0  1.092332  0  0.149109  0  0.101134  0.112215  0  1.096304  0
H  H39  1  0.76842211  0.93351174  0.89753257  1  0  0.118225  0  1.014983  0  0  0.11559  0  1.094535  0  0  0.120467  0  1.092251  0  0.148063  0  0.101033  0.112089  0  1.096349  0
H  H40  1  0.16542015  0.93352372  0.39752756  1  0  0.117987  0  1.015268  0  0  0.115628  0  1.094582  0  0  0.12044  0  1.092377  0  0.149123  0  0.101105  0.112149  0  1.096356  0
H  H41  1  0.23157885  0.06649322  0.10246496  1  0  0.118142  0  1.015001  0  0  0.115512  0  1.094565  0  0  0.12038  0  1.092284  0  0.153898  0  0.101006  0.11201  0  1.096378  0
C  C42  1  0.35907397  0.93482826  0.54781815  1  0  -0.1201  0  3.723622  0  0  -0.141443  0  3.974487  0  0  -0.144469  0  3.995383  0  0.010353  0  -0.084858  -0.139302  0  3.960315  0
C  C43  1  0.42447817  0.06533243  0.95217864  1  0  -0.120389  0  3.724211  0  0  -0.141773  0  3.974989  0  0  -0.144796  0  3.995898  0  -0.025483  0  -0.085128  -0.139625  0  3.960805  0
C  C44  1  0.64092603  0.06517191  0.45218213  1  0  -0.120171  0  3.723642  0  0  -0.141508  0  3.974518  0  0  -0.144535  0  3.995414  0  0.010388  0  -0.084895  -0.13937  0  3.960352  0
C  C45  1  0.57552148  0.93466414  0.04781924  1  0  -0.120519  0  3.724169  0  0  -0.141919  0  3.974969  0  0  -0.144943  0  3.99588  0  -0.025358  0  -0.085183  -0.139772  0  3.960783  0
C  C46  1  0.37761256  0.61806337  0.57836020  1  0  0.228854  0  3.793349  0  0  0.219763  0  4.040454  0  0  0.230128  0  4.060707  0  0.292625  0  0.105279  0.212921  0  4.026528  0
C  C47  1  0.75966578  0.38190565  0.92167915  1  0  0.228465  0  3.79289  0  0  0.219671  0  4.039499  0  0  0.230053  0  4.059715  0  0.306906  0  0.105703  0.212814  0  4.025614  0
C  C48  1  0.62238935  0.38193200  0.42163861  1  0  0.228855  0  3.79337  0  0  0.219715  0  4.040529  0  0  0.230079  0  4.060785  0  0.292497  0  0.105287  0.212874  0  4.026602  0
C  C49  1  0.24033278  0.61809452  0.07832254  1  0  0.228416  0  3.792833  0  0  0.219661  0  4.03939  0  0  0.230042  0  4.05961  0  0.306922  0  0.105669  0.212804  0  4.025504  0
C  C50  1  0.52458801  0.88590501  0.53792828  1  0  0.179121  0  3.777714  0  0  0.175879  0  4.020832  0  0  0.180999  0  4.042976  0  0.315554  0  0.091356  0.172361  0  4.005679  0
C  C51  1  0.63885179  0.11410115  0.96213460  1  0  0.179162  0  3.779173  0  0  0.176065  0  4.02188  0  0  0.181175  0  4.044068  0  0.3537  0  0.091498  0.172556  0  4.00671  0
C  C52  1  0.47541283  0.11409396  0.46207104  1  0  0.179125  0  3.777766  0  0  0.175856  0  4.020915  0  0  0.180976  0  4.043058  0  0.315536  0  0.091339  0.172339  0  4.00576  0
C  C53  1  0.36114702  0.88589662  0.03786471  1  0  0.179196  0  3.779064  0  0  0.176101  0  4.021777  0  0  0.181212  0  4.043965  0  0.35375  0  0.091521  0.172591  0  4.006607  0
C  C54  1  0.95287379  0.73881660  0.68311949  1  0  0.129255  0  3.758618  0  0  0.099272  0  4.014602  0  0  0.108858  0  4.03243  0  0.46176  0  0.03368  0.093142  0  4.002214  0
C  C55  1  0.21453064  0.26137045  0.81702526  1  0  0.130147  0  3.761247  0  0  0.099751  0  4.016959  0  0  0.109401  0  4.034849  0  0.458104  0  0.033945  0.09355  0  4.004569  0
C  C56  1  0.04712609  0.26117758  0.31687977  1  0  0.129242  0  3.758738  0  0  0.099267  0  4.0147  0  0  0.108851  0  4.032535  0  0.46178  0  0.033685  0.093138  0  4.002311  0
C  C57  1  0.78547703  0.73863930  0.18297657  1  0  0.1302  0  3.76125  0  0  0.099744  0  4.016972  0  0  0.109395  0  4.034865  0  0.457527  0  0.03396  0.093543  0  4.00458  0
C  C58  1  0.76973773  0.69078580  0.64800938  1  0  -0.231668  0  3.716972  0  0  -0.247465  0  3.968975  0  0  -0.257966  0  3.988248  0  0.003521  0  -0.102063  -0.240621  0  3.95601  0
C  C59  1  0.07938472  0.30934734  0.85214593  1  0  -0.231931  0  3.716324  0  0  -0.247156  0  3.969242  0  0  -0.257678  0  3.988414  0  0.005189  0  -0.102015  -0.240327  0  3.956306  0
C  C60  1  0.23025928  0.30920838  0.35198989  1  0  -0.231615  0  3.717067  0  0  -0.247412  0  3.969047  0  0  -0.257931  0  3.988312  0  0.00364  0  -0.102015  -0.240568  0  3.956086  0
C  C61  1  0.92062031  0.69066002  0.14785680  1  0  -0.231965  0  3.716335  0  0  -0.24718  0  3.969241  0  0  -0.2577  0  3.988406  0  0.005268  0  -0.102016  -0.240352  0  3.956306  0
C  C62  1  0.72041901  0.80743853  0.61671434  1  0  0.256081  0  3.786123  0  0  0.242153  0  4.03622  0  0  0.257238  0  4.052901  0  0.39723  0  0.116467  0.232201  0  4.024616  0
C  C63  1  0.91334413  0.19263351  0.88339596  1  0  0.257538  0  3.784237  0  0  0.2421  0  4.036237  0  0  0.257211  0  4.052918  0  0.402047  0  0.116433  0.232137  0  4.024618  0
C  C64  1  0.27957716  0.19255685  0.38328682  1  0  0.25613  0  3.78599  0  0  0.242163  0  4.03614  0  0  0.257248  0  4.052823  0  0.397306  0  0.116449  0.232207  0  4.024546  0
C  C65  1  0.08665827  0.80737144  0.11660439  1  0  0.25746  0  3.784264  0  0  0.242004  0  4.036259  0  0  0.257114  0  4.052944  0  0.402245  0  0.116449  0.232042  0  4.024637  0
C  C66  1  0.04024472  0.00324398  0.65956639  1  0  0.134546  0  3.751109  0  0  0.106522  0  4.0008  0  0  0.115898  0  4.018945  0  0.459948  0  0.034147  0.100528  0  3.988255  0
C  C67  1  0.03742403  0.99689994  0.84050163  1  0  0.134863  0  3.752749  0  0  0.106969  0  4.002122  0  0  0.116334  0  4.020286  0  0.502163  0  0.033984  0.100992  0  3.989536  0
C  C68  1  0.95974834  0.99675379  0.34043433  1  0  0.134625  0  3.751037  0  0  0.106553  0  4.000753  0  0  0.11593  0  4.018895  0  0.460081  0  0.034174  0.100559  0  3.988212  0
C  C69  1  0.96257753  0.00310622  0.15949592  1  0  0.134831  0  3.752703  0  0  0.106906  0  4.002077  0  0  0.116267  0  4.020248  0  0.50192  0  0.033971  0.10093  0  3.989491  0
C  C70  1  0.29113030  0.53912012  0.52127496  1  0  -0.205626  0  3.725874  0  0  -0.227076  0  3.9816  0  0  -0.234701  0  4.001269  0  0.002046  0  -0.091541  -0.222216  0  3.968509  0
C  C71  1  0.75205339  0.46096989  0.97872042  1  0  -0.204515  0  3.726043  0  0  -0.226175  0  3.981837  0  0  -0.23377  0  4.00146  0  -0.0118  0  -0.091248  -0.221332  0  3.968783  0
C  C72  1  0.70886192  0.46087885  0.47872484  1  0  -0.20558  0  3.725844  0  0  -0.227005  0  3.981563  0  0  -0.23463  0  4.001233  0  0.002085  0  -0.091565  -0.222144  0  3.968471  0
C  C73  1  0.24794398  0.53902788  0.02128030  1  0  -0.204593  0  3.726133  0  0  -0.226259  0  3.981884  0  0  -0.233854  0  4.001506  0  -0.012068  0  -0.091223  -0.221415  0  3.968829  0
C  C74  1  0.28924210  0.54729356  0.63454147  1  0  -0.216325  0  3.734398  0  0  -0.231834  0  3.980785  0  0  -0.240732  0  4.002272  0  -0.052305  0  -0.095018  -0.225962  0  3.966381  0
C  C75  1  0.74193197  0.45246463  0.86546591  1  0  -0.215387  0  3.733139  0  0  -0.231007  0  3.979735  0  0  -0.239914  0  4.001192  0  -0.036496  0  -0.095052  -0.225157  0  3.965347  0
C  C76  1  0.71075443  0.45270541  0.36545786  1  0  -0.216211  0  3.734177  0  0  -0.231698  0  3.980572  0  0  -0.240605  0  4.002053  0  -0.052325  0  -0.094952  -0.225827  0  3.966169  0
C  C77  1  0.25807150  0.54753674  0.13453486  1  0  -0.215232  0  3.733102  0  0  -0.230857  0  3.979687  0  0  -0.239774  0  4.00114  0  -0.03685  0  -0.094983  -0.225009  0  3.965299  0
C  C78  1  0.33397434  0.04913169  0.51011500  1  0  -0.115006  0  3.71724  0  0  -0.13423  0  3.965088  0  0  -0.13654  0  3.9844  0  -0.027923  0  -0.081499  -0.132558  0  3.952022  0
C  C79  1  0.28485381  0.95105655  0.98983657  1  0  -0.114607  0  3.716459  0  0  -0.133515  0  3.964315  0  0  -0.135872  0  3.9836  0  -0.015537  0  -0.080754  -0.131832  0  3.951249  0
C  C80  1  0.66602710  0.95086847  0.48988481  1  0  -0.114994  0  3.717285  0  0  -0.134218  0  3.96513  0  0  -0.136528  0  3.984443  0  -0.027841  0  -0.081508  -0.132549  0  3.952065  0
C  C81  1  0.71514320  0.04893763  0.01016129  1  0  -0.114518  0  3.716502  0  0  -0.133421  0  3.964348  0  0  -0.135777  0  3.983634  0  -0.015652  0  -0.080695  -0.131738  0  3.95128  0
C  C82  1  0.11961477  0.40144021  0.63077208  1  0  0.12297  0  3.754094  0  0  0.101406  0  4.007145  0  0  0.107032  0  4.02519  0  0.483764  0  0.036123  0.097861  0  3.994767  0
C  C83  1  0.71765351  0.59815506  0.86913957  1  0  0.123954  0  3.753215  0  0  0.102248  0  4.006433  0  0  0.107862  0  4.024508  0  0.502501  0  0.03717  0.098713  0  3.994038  0
C  C84  1  0.88038775  0.59855636  0.36922768  1  0  0.122839  0  3.754135  0  0  0.101273  0  4.00719  0  0  0.106897  0  4.025238  0  0.483745  0  0.036028  0.097726  0  3.994816  0
C  C85  1  0.28235116  0.40184870  0.13086123  1  0  0.123813  0  3.753227  0  0  0.102118  0  4.006447  0  0  0.107731  0  4.024524  0  0.502714  0  0.037048  0.098584  0  3.99405  0
C  C86  1  0.12419601  0.39203890  0.52308279  1  0  0.122509  0  3.774637  0  0  0.098812  0  4.036019  0  0  0.105318  0  4.052599  0  0.503706  0  0.035565  0.09466  0  4.024679  0
C  C87  1  0.73182894  0.60792174  0.97682813  1  0  0.122398  0  3.774322  0  0  0.098578  0  4.035727  0  0  0.105109  0  4.052372  0  0.473797  0  0.035494  0.094399  0  4.024355  0
C  C88  1  0.87579705  0.60795887  0.47691700  1  0  0.122495  0  3.774589  0  0  0.098783  0  4.035988  0  0  0.105289  0  4.052569  0  0.503593  0  0.03556  0.094632  0  4.024649  0
C  C89  1  0.26817597  0.39207963  0.02317358  1  0  0.122463  0  3.774396  0  0  0.098647  0  4.035796  0  0  0.105179  0  4.052441  0  0.473773  0  0.035487  0.094468  0  4.024424  0
C  C90  1  0.86035620  0.96830787  0.62439526  1  0  -0.236262  0  3.730787  0  0  -0.251278  0  3.984997  0  0  -0.26278  0  4.004988  0  -0.041593  0  -0.104282  -0.243755  0  3.971638  0
C  C91  1  0.89241537  0.03177256  0.87567520  1  0  -0.236975  0  3.731198  0  0  -0.251118  0  3.985424  0  0  -0.262675  0  4.005353  0  -0.07945  0  -0.103872  -0.243594  0  3.972138  0
C  C92  1  0.13963710  0.03168751  0.37560637  1  0  -0.236236  0  3.730557  0  0  -0.251285  0  3.984846  0  0  -0.262781  0  4.004837  0  -0.041758  0  -0.104287  -0.243734  0  3.971462  0
C  C93  1  0.10758415  0.96823240  0.12432280  1  0  -0.236814  0  3.731074  0  0  -0.250954  0  3.985297  0  0  -0.262503  0  4.005237  0  -0.085182  0  -0.103853  -0.24343  0  3.972008  0
N  N94  1  0.08941413  0.89184192  0.68838441  1  0  -0.342941  0  3.28086  0  0  -0.270469  0  3.547752  0  0  -0.292321  0  3.56797  0  -1.223919  0  -0.336139  -0.255579  0  3.533443  0
N  N95  1  0.19803945  0.10835351  0.81172190  1  0  -0.34385  0  3.282838  0  0  -0.271094  0  3.549587  0  0  -0.292938  0  3.569743  0  -1.225059  0  -0.336002  -0.256219  0  3.535327  0
N  N96  1  0.91058468  0.10815585  0.31161490  1  0  -0.342947  0  3.280894  0  0  -0.270464  0  3.547795  0  0  -0.292317  0  3.568013  0  -1.223997  0  -0.336141  -0.255577  0  3.533486  0
N  N97  1  0.80196678  0.89165624  0.18827757  1  0  -0.343965  0  3.282884  0  0  -0.271135  0  3.549603  0  0  -0.29298  0  3.569757  0  -1.224573  0  -0.336069  -0.256261  0  3.535343  0
N  N98  1  0.54604571  0.76878269  0.57816973  1  0  -0.245813  0  3.460012  0  0  -0.167472  0  3.679  0  0  -0.188277  0  3.700666  0  -1.250069  0  -0.247309  -0.152959  0  3.663474  0
N  N99  1  0.77758087  0.23125701  0.92192744  1  0  -0.246227  0  3.459709  0  0  -0.167557  0  3.678984  0  0  -0.188421  0  3.700736  0  -1.226672  0  -0.24775  -0.153022  0  3.663436  0
N  N100  1  0.45395393  0.23121388  0.42183003  1  0  -0.245857  0  3.460058  0  0  -0.167465  0  3.679018  0  0  -0.188274  0  3.700693  0  -1.250212  0  -0.247301  -0.152951  0  3.663495  0
N  N101  1  0.22241686  0.76874436  0.07807286  1  0  -0.246134  0  3.459701  0  0  -0.167466  0  3.678946  0  0  -0.18833  0  3.700699  0  -1.226818  0  -0.247679  -0.152931  0  3.663396  0
N  N102  1  0.03732128  0.32269821  0.57640083  1  0  -0.318508  0  3.088175  0  0  -0.278763  0  3.353535  0  0  -0.290104  0  3.36891  0  -1.209329  0  -0.324662  -0.271022  0  3.342904  0
N  N103  1  0.71404850  0.67702044  0.92347487  1  0  -0.319564  0  3.089025  0  0  -0.279885  0  3.354643  0  0  -0.291231  0  3.370035  0  -1.211815  0  -0.325415  -0.272139  0  3.344005  0
N  N104  1  0.96267405  0.67729836  0.42359987  1  0  -0.318485  0  3.08828  0  0  -0.278734  0  3.353651  0  0  -0.290076  0  3.369027  0  -1.20913  0  -0.324636  -0.270995  0  3.343021  0
N  N105  1  0.28595785  0.32298092  0.07652543  1  0  -0.319562  0  3.089024  0  0  -0.279897  0  3.354671  0  0  -0.291243  0  3.370058  0  -1.211842  0  -0.325381  -0.272151  0  3.344034  0
Cl  Cl106  1  0.61868763  0.24797166  0.70195557  1  0  -0.475403  0  0.918418  0  0  -0.411871  0  1.176346  0  0  -0.429068  0  1.158061  0  -0.520777  0  -0.278379  -0.400185  0  1.188773  0
Cl  Cl107  1  0.37062207  0.75198898  0.79801504  1  0  -0.475446  0  0.91875  0  0  -0.411814  0  1.17656  0  0  -0.429034  0  1.158325  0  -0.520302  0  -0.27825  -0.400131  0  1.188994  0
Cl  Cl108  1  0.38131728  0.75202971  0.29804332  1  0  -0.475399  0  0.918392  0  0  -0.411872  0  1.176324  0  0  -0.42907  0  1.158046  0  -0.520745  0  -0.278377  -0.400189  0  1.188754  0
Cl  Cl109  1  0.62938117  0.24801478  0.20198341  1  0  -0.475469  0  0.918726  0  0  -0.411838  0  1.176537  0  0  -0.429057  0  1.158304  0  -0.52033  0  -0.278259  -0.400155  0  1.188972  0
