# generated using pymatgen
data_AgH6C8N5O
_symmetry_space_group_name_H-M   'P 1'
_cell_length_a   7.18813462
_cell_length_b   9.89525926
_cell_length_c   12.76066432
_cell_angle_alpha   90.00050163
_cell_angle_beta   106.98155551
_cell_angle_gamma   90.00030343
_symmetry_Int_Tables_number   1
_chemical_formula_structural   AgH6C8N5O
_chemical_formula_sum   'Ag4 H24 C32 N20 O4'
_cell_volume   868.07190013
_cell_formula_units_Z   4
loop_
 _symmetry_equiv_pos_site_id
 _symmetry_equiv_pos_as_xyz
  1  'x, y, z'
loop_
 _atom_site_type_symbol
 _atom_site_label
 _atom_site_symmetry_multiplicity
 _atom_site_fract_x
 _atom_site_fract_y
 _atom_site_fract_z
 _atom_site_occupancy
 _atom_site_hle17_bader_spin_density
 _atom_site_hle17_ddec_charge
 _atom_site_hle17_ddec_spin_density
 _atom_site_hle17_ddec_sum_bond_order
 _atom_site_hle17_magmom
 _atom_site_hse06_10hf_bader_spin_density
 _atom_site_hse06_10hf_ddec_charge
 _atom_site_hse06_10hf_ddec_spin_density
 _atom_site_hse06_10hf_ddec_sum_bond_order
 _atom_site_hse06_10hf_magmom
 _atom_site_hse06_bader_spin_density
 _atom_site_hse06_ddec_charge
 _atom_site_hse06_ddec_spin_density
 _atom_site_hse06_ddec_sum_bond_order
 _atom_site_hse06_magmom
 _atom_site_pbe_bader_spin_density
 _atom_site_pbe_cm5_charge
 _atom_site_pbe_ddec_charge
 _atom_site_pbe_ddec_spin_density
 _atom_site_pbe_ddec_sum_bond_order
 _atom_site_pbe_magmom
Ag  Ag0  1  0.04154538  0.15644934  0.10682358  1  0  0.496239  0  1.470701  0  0  0.35199  0  1.917161  0  0  0.375685  0  1.877456  0  0  0.479494  0.336035  0  1.943733  0
Ag  Ag1  1  0.95845304  0.65644870  0.39317882  1  0  0.496175  0  1.470813  0  0  0.351935  0  1.917241  0  0  0.375633  0  1.877541  0  0  0.479471  0.335976  0  1.94381  0
Ag  Ag2  1  0.95845411  0.84354819  0.89317784  1  0  0.496226  0  1.4707  0  0  0.351962  0  1.917161  0  0  0.375661  0  1.877456  0  0  0.47947  0.336006  0  1.943732  0
Ag  Ag3  1  0.04154499  0.34355287  0.60682237  1  0  0.496178  0  1.470728  0  0  0.35194  0  1.917167  0  0  0.37563  0  1.877471  0  0  0.479485  0.335981  0  1.943738  0
H  H4  1  0.10349894  0.48425307  0.85311038  1  0  0.29146  0  0.948262  0  0  0.257118  0  1.042227  0  0  0.266226  0  1.034656  0  0  0.302903  0.250625  0  1.047902  0
H  H5  1  0.89649892  0.98425244  0.64688980  1  0  0.291537  0  0.948248  0  0  0.257201  0  1.042219  0  0  0.266302  0  1.034644  0  0  0.302941  0.250705  0  1.047897  0
H  H6  1  0.89650491  0.51574547  0.14689333  1  0  0.291511  0  0.948236  0  0  0.257184  0  1.042215  0  0  0.266285  0  1.034635  0  0  0.302918  0.250689  0  1.047891  0
H  H7  1  0.10349912  0.01574913  0.35310982  1  0  0.291466  0  0.948304  0  0  0.257143  0  1.042261  0  0  0.266243  0  1.034685  0  0  0.302931  0.250649  0  1.047935  0
H  H8  1  0.33796104  0.55032296  0.21408564  1  0  0.093657  0  0.9612  0  0  0.101585  0  1.028301  0  0  0.104945  0  1.025797  0  0  0.101631  0.099033  0  1.030254  0
H  H9  1  0.66204049  0.05031889  0.28591811  1  0  0.093671  0  0.961288  0  0  0.101605  0  1.028373  0  0  0.104966  0  1.025871  0  0  0.101677  0.099063  0  1.030316  0
H  H10  1  0.66204281  0.44968265  0.78591885  1  0  0.093648  0  0.961228  0  0  0.101574  0  1.028338  0  0  0.104935  0  1.025835  0  0  0.101655  0.099024  0  1.03029  0
H  H11  1  0.33795610  0.94967863  0.71408048  1  0  0.093637  0  0.961257  0  0  0.101569  0  1.028349  0  0  0.104923  0  1.025851  0  0  0.101641  0.099006  0  1.030314  0
H  H12  1  0.46985892  0.78363423  0.26903070  1  0  0.103847  0  0.977655  0  0  0.115111  0  1.037612  0  0  0.118224  0  1.035887  0  0  0.101609  0.112815  0  1.039147  0
H  H13  1  0.53015121  0.28362702  0.23097136  1  0  0.103849  0  0.977661  0  0  0.115134  0  1.037584  0  0  0.118248  0  1.035864  0  0  0.101603  0.112838  0  1.039116  0
H  H14  1  0.53015076  0.21637138  0.73097084  1  0  0.103839  0  0.977668  0  0  0.115125  0  1.037593  0  0  0.11824  0  1.035874  0  0  0.101602  0.112831  0  1.039129  0
H  H15  1  0.46985121  0.71637050  0.76902428  1  0  0.103888  0  0.97765  0  0  0.115139  0  1.037611  0  0  0.118251  0  1.035887  0  0  0.101637  0.112846  0  1.039144  0
H  H16  1  0.49637850  0.94566259  0.12672955  1  0  0.079989  0  0.962836  0  0  0.09291  0  1.02427  0  0  0.095525  0  1.022157  0  0  0.099517  0.091191  0  1.025318  0
H  H17  1  0.50362774  0.44565890  0.37327061  1  0  0.080054  0  0.962828  0  0  0.092941  0  1.024295  0  0  0.095558  0  1.022181  0  0  0.099521  0.091221  0  1.025341  0
H  H18  1  0.50363119  0.05433797  0.87326886  1  0  0.080049  0  0.962838  0  0  0.092952  0  1.0243  0  0  0.095574  0  1.022177  0  0  0.0995  0.091233  0  1.025348  0
H  H19  1  0.49637322  0.55433761  0.62672557  1  0  0.080043  0  0.962786  0  0  0.092927  0  1.024267  0  0  0.095544  0  1.022151  0  0  0.099521  0.091208  0  1.025315  0
H  H20  1  0.41132533  0.87360923  0.93099699  1  0  0.087403  0  0.959322  0  0  0.100148  0  1.017016  0  0  0.102644  0  1.015772  0  0  0.10061  0.098137  0  1.018351  0
H  H21  1  0.58867267  0.37360546  0.56900324  1  0  0.087257  0  0.959206  0  0  0.10002  0  1.016919  0  0  0.102514  0  1.015677  0  0  0.100575  0.098009  0  1.018253  0
H  H22  1  0.58868290  0.12638931  0.06900196  1  0  0.08728  0  0.959221  0  0  0.100045  0  1.016917  0  0  0.102543  0  1.015667  0  0  0.100533  0.098034  0  1.018251  0
H  H23  1  0.41132393  0.62639307  0.43099222  1  0  0.087351  0  0.959332  0  0  0.100095  0  1.01703  0  0  0.102588  0  1.015789  0  0  0.100585  0.098084  0  1.018363  0
H  H24  1  0.29292751  0.64259707  0.87831997  1  0  0.089231  0  0.992661  0  0  0.097119  0  1.058847  0  0  0.099894  0  1.057372  0  0  0.104208  0.095095  0  1.06  0
H  H25  1  0.70706483  0.14259334  0.62168012  1  0  0.089251  0  0.992691  0  0  0.097129  0  1.058878  0  0  0.099902  0  1.057408  0  0  0.104236  0.09512  0  1.060016  0
H  H26  1  0.70707343  0.35740248  0.12168091  1  0  0.089249  0  0.992681  0  0  0.09712  0  1.058878  0  0  0.099893  0  1.057407  0  0  0.104217  0.095097  0  1.06003  0
H  H27  1  0.29292595  0.85740418  0.37831516  1  0  0.089263  0  0.992638  0  0  0.097154  0  1.058815  0  0  0.099929  0  1.057341  0  0  0.104228  0.095129  0  1.059972  0
C  C28  1  0.35471468  0.62303423  0.15332960  1  0  -0.063015  0  3.714833  0  0  -0.08828  0  3.964638  0  0  -0.087144  0  3.983647  0  0  -0.085318  -0.088168  0  3.951357  0
C  C29  1  0.64528772  0.12302473  0.34667088  1  0  -0.063038  0  3.71485  0  0  -0.088319  0  3.964689  0  0  -0.087185  0  3.983693  0  0  -0.085367  -0.088215  0  3.951406  0
C  C30  1  0.64528918  0.37697441  0.84667255  1  0  -0.063048  0  3.714905  0  0  -0.088341  0  3.964746  0  0  -0.087206  0  3.983753  0  0  -0.085371  -0.088232  0  3.951474  0
C  C31  1  0.35470888  0.87697179  0.65332458  1  0  -0.062978  0  3.714896  0  0  -0.088241  0  3.964698  0  0  -0.087105  0  3.983708  0  0  -0.085278  -0.08812  0  3.951428  0
C  C32  1  0.42441330  0.75281183  0.18335818  1  0  -0.065171  0  3.727539  0  0  -0.081974  0  3.984213  0  0  -0.084554  0  4.004156  0  0  -0.092466  -0.080673  0  3.97072  0
C  C33  1  0.57559355  0.25280475  0.31664391  1  0  -0.065157  0  3.727545  0  0  -0.081953  0  3.98416  0  0  -0.084537  0  4.004114  0  0  -0.092463  -0.080654  0  3.97067  0
C  C34  1  0.57559638  0.24719378  0.81664414  1  0  -0.065154  0  3.727635  0  0  -0.08195  0  3.984251  0  0  -0.084539  0  4.004211  0  0  -0.092455  -0.080651  0  3.970762  0
C  C35  1  0.42440450  0.74719277  0.68335179  1  0  -0.065158  0  3.727622  0  0  -0.08194  0  3.98427  0  0  -0.084515  0  4.004211  0  0  -0.092463  -0.080641  0  3.970778  0
C  C36  1  0.44223196  0.84396820  0.10313598  1  0  -0.035115  0  3.721717  0  0  -0.05925  0  3.981904  0  0  -0.057925  0  4.000255  0  0  -0.084924  -0.059256  0  3.96812  0
C  C37  1  0.55776725  0.34396398  0.39686233  1  0  -0.035178  0  3.721641  0  0  -0.059309  0  3.981854  0  0  -0.057978  0  4.000184  0  0  -0.084897  -0.059314  0  3.968067  0
C  C38  1  0.55777627  0.15603438  0.89686376  1  0  -0.03524  0  3.721738  0  0  -0.059389  0  3.981934  0  0  -0.058062  0  4.000276  0  0  -0.084912  -0.059393  0  3.968151  0
C  C39  1  0.44222643  0.65603355  0.60313265  1  0  -0.035181  0  3.721765  0  0  -0.059311  0  3.98196  0  0  -0.057979  0  4.000289  0  0  -0.084959  -0.059316  0  3.968176  0
C  C40  1  0.39179676  0.80462499  0.99343726  1  0  -0.075293  0  3.773129  0  0  -0.085141  0  4.028473  0  0  -0.08734  0  4.046478  0  0  -0.096645  -0.083912  0  4.016431  0
C  C41  1  0.60820042  0.30461858  0.50656238  1  0  -0.075086  0  3.772756  0  0  -0.084947  0  4.028094  0  0  -0.087142  0  4.0461  0  0  -0.09659  -0.08372  0  4.016052  0
C  C42  1  0.60821291  0.19537556  0.00656350  1  0  -0.075059  0  3.772948  0  0  -0.084909  0  4.028254  0  0  -0.087112  0  4.04628  0  0  -0.096523  -0.083681  0  4.016211  0
C  C43  1  0.39179327  0.69537895  0.49343260  1  0  -0.075203  0  3.773089  0  0  -0.085033  0  4.028385  0  0  -0.087233  0  4.046405  0  0  -0.096551  -0.083804  0  4.016339  0
C  C44  1  0.32311280  0.67391159  0.96332263  1  0  -0.088786  0  3.759618  0  0  -0.110188  0  4.00698  0  0  -0.109035  0  4.024736  0  0  -0.09521  -0.111358  0  3.995596  0
C  C45  1  0.67688428  0.17390578  0.53667688  1  0  -0.088824  0  3.759739  0  0  -0.110202  0  4.007089  0  0  -0.109052  0  4.02485  0  0  -0.095252  -0.111382  0  3.995696  0
C  C46  1  0.67688814  0.32609099  0.03667903  1  0  -0.088886  0  3.759695  0  0  -0.110278  0  4.007057  0  0  -0.109131  0  4.02482  0  0  -0.095253  -0.111448  0  3.99567  0
C  C47  1  0.32310650  0.82609276  0.46331840  1  0  -0.088919  0  3.759654  0  0  -0.110312  0  4.00702  0  0  -0.109164  0  4.02478  0  0  -0.095313  -0.11148  0  3.995633  0
C  C48  1  0.30333533  0.58223620  0.04308404  1  0  -0.07397  0  3.777737  0  0  -0.050287  0  4.010486  0  0  -0.058366  0  4.034668  0  0  -0.023935  -0.045406  0  3.994365  0
C  C49  1  0.69666367  0.08223521  0.45691794  1  0  -0.073995  0  3.777749  0  0  -0.050357  0  4.010511  0  0  -0.05843  0  4.034693  0  0  -0.023995  -0.045478  0  3.994392  0
C  C50  1  0.69666852  0.41776638  0.95691889  1  0  -0.073769  0  3.777537  0  0  -0.050079  0  4.010227  0  0  -0.05816  0  4.034405  0  0  -0.023866  -0.045199  0  3.994106  0
C  C51  1  0.30333147  0.91776636  0.54308041  1  0  -0.073864  0  3.777596  0  0  -0.050212  0  4.010357  0  0  -0.058293  0  4.034537  0  0  -0.023952  -0.045332  0  3.99423  0
C  C52  1  0.24062607  0.43932407  0.01874447  1  0  0.559434  0  3.798733  0  0  0.509717  0  4.081907  0  0  0.539325  0  4.081712  0  0  0.2411  0.490133  0  4.081185  0
C  C53  1  0.75936410  0.93931356  0.48124986  1  0  0.559227  0  3.799256  0  0  0.509587  0  4.082317  0  0  0.539184  0  4.082128  0  0  0.241007  0.490006  0  4.081589  0
C  C54  1  0.75937195  0.56067750  0.98126142  1  0  0.559216  0  3.798881  0  0  0.509527  0  4.082027  0  0  0.539151  0  4.081807  0  0  0.240985  0.489943  0  4.081302  0
C  C55  1  0.24061940  0.06068194  0.51874422  1  0  0.559106  0  3.799029  0  0  0.509448  0  4.082142  0  0  0.539065  0  4.081937  0  0  0.240992  0.489866  0  4.081414  0
C  C56  1  0.08777685  0.27874060  0.87406296  1  0  0.481718  0  3.790245  0  0  0.439016  0  4.061889  0  0  0.456034  0  4.07855  0  0  0.32838  0.427557  0  4.05074  0
C  C57  1  0.91223166  0.77874081  0.62593915  1  0  0.481819  0  3.790182  0  0  0.439034  0  4.061917  0  0  0.456053  0  4.078576  0  0  0.328381  0.427577  0  4.050762  0
C  C58  1  0.91222846  0.72125794  0.12593708  1  0  0.481872  0  3.790158  0  0  0.439138  0  4.061837  0  0  0.456159  0  4.078494  0  0  0.328453  0.427678  0  4.050688  0
C  C59  1  0.08776782  0.22125975  0.37406384  1  0  0.48185  0  3.790127  0  0  0.439021  0  4.061945  0  0  0.456039  0  4.078606  0  0  0.32839  0.427565  0  4.050787  0
N  N60  1  0.14421886  0.40784719  0.91127241  1  0  -0.485057  0  3.322434  0  0  -0.422113  0  3.565642  0  0  -0.445828  0  3.572003  0  0  -0.386431  -0.406483  0  3.561432  0
N  N61  1  0.85577810  0.90785182  0.58872710  1  0  -0.485206  0  3.3222  0  0  -0.422264  0  3.565362  0  0  -0.445968  0  3.571737  0  0  -0.3865  -0.406635  0  3.561151  0
N  N62  1  0.85578354  0.59215034  0.08873106  1  0  -0.4851  0  3.322488  0  0  -0.42218  0  3.565631  0  0  -0.445886  0  3.572003  0  0  -0.386433  -0.40655  0  3.561421  0
N  N63  1  0.14421412  0.09215380  0.41127077  1  0  -0.485018  0  3.322435  0  0  -0.42208  0  3.565661  0  0  -0.445788  0  3.572042  0  0  -0.386472  -0.406453  0  3.561446  0
N  N64  1  0.04529622  0.24369283  0.76729273  1  0  -0.339206  0  3.138166  0  0  -0.279948  0  3.44467  0  0  -0.298001  0  3.457387  0  0  -0.245581  -0.26776  0  3.436367  0
N  N65  1  0.95470314  0.74369239  0.73270842  1  0  -0.339294  0  3.138268  0  0  -0.279985  0  3.444778  0  0  -0.298038  0  3.457493  0  0  -0.245592  -0.267799  0  3.436476  0
N  N66  1  0.95470472  0.75630672  0.23271129  1  0  -0.339364  0  3.13806  0  0  -0.280077  0  3.444559  0  0  -0.29813  0  3.457272  0  0  -0.245668  -0.267887  0  3.436254  0
N  N67  1  0.04529345  0.25630817  0.26728939  1  0  -0.339389  0  3.137957  0  0  -0.280082  0  3.444505  0  0  -0.298136  0  3.457221  0  0  -0.245675  -0.267896  0  3.4362  0
N  N68  1  0.99667167  0.11205583  0.76343078  1  0  -0.091851  0  3.079145  0  0  -0.068422  0  3.359983  0  0  -0.069721  0  3.375139  0  0  -0.094183  -0.067583  0  3.349931  0
N  N69  1  0.00333049  0.61205685  0.73656994  1  0  -0.091817  0  3.079144  0  0  -0.0684  0  3.359964  0  0  -0.069697  0  3.375124  0  0  -0.094178  -0.06756  0  3.34991  0
N  N70  1  0.00332927  0.88794473  0.23657088  1  0  -0.09182  0  3.079093  0  0  -0.068397  0  3.359918  0  0  -0.069692  0  3.375066  0  0  -0.094162  -0.067557  0  3.349862  0
N  N71  1  0.99667046  0.38794573  0.26343016  1  0  -0.091748  0  3.078946  0  0  -0.068318  0  3.359766  0  0  -0.069617  0  3.374918  0  0  -0.094081  -0.067479  0  3.34971  0
N  N72  1  0.00874935  0.06992726  0.86256019  1  0  -0.096777  0  3.236341  0  0  -0.057962  0  3.555971  0  0  -0.062076  0  3.567624  0  0  -0.123337  -0.054443  0  3.54703  0
N  N73  1  0.99125377  0.56992689  0.63744040  1  0  -0.096776  0  3.236359  0  0  -0.057957  0  3.555988  0  0  -0.062071  0  3.567639  0  0  -0.123356  -0.054439  0  3.547045  0
N  N74  1  0.99125305  0.93007229  0.13744250  1  0  -0.096709  0  3.236284  0  0  -0.05788  0  3.555908  0  0  -0.061994  0  3.567558  0  0  -0.123258  -0.054362  0  3.546966  0
N  N75  1  0.00874718  0.43007468  0.36255970  1  0  -0.096743  0  3.236356  0  0  -0.057927  0  3.555984  0  0  -0.062042  0  3.567636  0  0  -0.123341  -0.054408  0  3.547038  0
N  N76  1  0.06598877  0.17184931  0.93485504  1  0  -0.330711  0  3.161656  0  0  -0.272418  0  3.460232  0  0  -0.289517  0  3.474139  0  0  -0.245908  -0.260869  0  3.450039  0
N  N77  1  0.93401265  0.67184892  0.56514753  1  0  -0.330699  0  3.161845  0  0  -0.272386  0  3.460442  0  0  -0.289487  0  3.474354  0  0  -0.245882  -0.260835  0  3.45024  0
N  N78  1  0.93401654  0.82814822  0.06514892  1  0  -0.330727  0  3.161769  0  0  -0.272463  0  3.460395  0  0  -0.289561  0  3.474299  0  0  -0.245964  -0.260912  0  3.450198  0
N  N79  1  0.06598103  0.32815063  0.43485136  1  0  -0.330728  0  3.16181  0  0  -0.272378  0  3.460391  0  0  -0.289485  0  3.474317  0  0  -0.245893  -0.260829  0  3.450188  0
O  O80  1  0.27727893  0.35374419  0.09307913  1  0  -0.538045  0  2.028  0  0  -0.488757  0  2.282436  0  0  -0.509011  0  2.273694  0  0  -0.285512  -0.474733  0  2.287975  0
O  O81  1  0.72271747  0.85374382  0.40692584  1  0  -0.537759  0  2.028641  0  0  -0.488484  0  2.282968  0  0  -0.508758  0  2.274293  0  0  -0.285339  -0.474464  0  2.288506  0
O  O82  1  0.72271182  0.64625940  0.90692634  1  0  -0.538023  0  2.028069  0  0  -0.488695  0  2.282403  0  0  -0.508988  0  2.273721  0  0  -0.285466  -0.474672  0  2.287942  0
O  O83  1  0.27726455  0.14625573  0.59307662  1  0  -0.537836  0  2.028219  0  0  -0.488588  0  2.282658  0  0  -0.508837  0  2.2739  0  0  -0.285433  -0.474566  0  2.288193  0
