# generated using pymatgen
data_CdH20C30N2(O2F3)2
_symmetry_space_group_name_H-M   'P 1'
_cell_length_a   8.16649900
_cell_length_b   8.16651050
_cell_length_c   22.71452115
_cell_angle_alpha   100.00791942
_cell_angle_beta   100.00783694
_cell_angle_gamma   91.94778259
_symmetry_Int_Tables_number   1
_chemical_formula_structural   CdH20C30N2(O2F3)2
_chemical_formula_sum   'Cd2 H40 C60 N4 O8 F12'
_cell_volume   1465.90047108
_cell_formula_units_Z   2
loop_
 _symmetry_equiv_pos_site_id
 _symmetry_equiv_pos_as_xyz
  1  'x, y, z'
loop_
 _atom_site_type_symbol
 _atom_site_label
 _atom_site_symmetry_multiplicity
 _atom_site_fract_x
 _atom_site_fract_y
 _atom_site_fract_z
 _atom_site_occupancy
 _atom_site_hle17_bader_spin_density
 _atom_site_hle17_ddec_charge
 _atom_site_hle17_ddec_spin_density
 _atom_site_hle17_ddec_sum_bond_order
 _atom_site_hle17_magmom
 _atom_site_hse06_10hf_bader_charge
 _atom_site_hse06_10hf_bader_spin_density
 _atom_site_hse06_10hf_ddec_charge
 _atom_site_hse06_10hf_ddec_spin_density
 _atom_site_hse06_10hf_ddec_sum_bond_order
 _atom_site_hse06_10hf_magmom
 _atom_site_hse06_bader_spin_density
 _atom_site_hse06_ddec_charge
 _atom_site_hse06_ddec_spin_density
 _atom_site_hse06_ddec_sum_bond_order
 _atom_site_hse06_magmom
 _atom_site_pbe_bader_spin_density
 _atom_site_pbe_cm5_charge
 _atom_site_pbe_ddec_charge
 _atom_site_pbe_ddec_spin_density
 _atom_site_pbe_ddec_sum_bond_order
 _atom_site_pbe_magmom
Cd  Cd0  1  0.87568307  0.12431721  0.49999970  1  0  1.113605  0  1.784309  0  1.341847  0  0.93308  0  2.23531  0  0  0.986487  0  2.183561  0  0  0.787499  0.89528  0  2.27061  0
Cd  Cd1  1  0.62546554  0.37453341  0.00000059  1  0  1.113667  0  1.786134  0  1.346102  0  0.933232  0  2.236571  0  0  0.986511  0  2.18491  0  0  0.787779  0.895503  0  2.271857  0
H  H2  1  0.68528565  0.22283510  0.30975302  1  0  0.121377  0  0.996922  0  0.064833  0  0.123938  0  1.071286  0  0  0.128222  0  1.071123  0  0  0.091044  0.120924  0  1.071526  0
H  H3  1  0.77716608  0.31471444  0.69024696  1  0  0.121376  0  0.996947  0  0.064833  0  0.123938  0  1.071305  0  0  0.128223  0  1.07114  0  0  0.091037  0.120925  0  1.071544  0
H  H4  1  0.33651525  0.37406895  0.80958854  1  0  0.121609  0  0.996021  0  0.092123  0  0.124354  0  1.070299  0  0  0.128619  0  1.070179  0  0  0.091275  0.121349  0  1.070518  0
H  H5  1  0.62593032  0.66348858  0.19041170  1  0  0.121611  0  0.995974  0  0.092098  0  0.124352  0  1.07026  0  0  0.128617  0  1.070139  0  0  0.091266  0.121347  0  1.070481  0
H  H6  1  0.73405894  0.50850618  0.32650597  1  0  0.09136  0  0.955459  0  0.090231  0  0.100719  0  1.018485  0  0  0.104141  0  1.016061  0  0  0.096331  0.098266  0  1.020247  0
H  H7  1  0.49149666  0.26594196  0.67349424  1  0  0.091338  0  0.955459  0  0.09069  0  0.100699  0  1.018487  0  0  0.104121  0  1.016062  0  0  0.09633  0.098247  0  1.020248  0
H  H8  1  0.06732946  0.34198716  0.82620880  1  0  0.091987  0  0.954693  0  0.05131  0  0.101736  0  1.017415  0  0  0.105173  0  1.014959  0  0  0.096352  0.099261  0  1.019214  0
H  H9  1  0.65801158  0.93267273  0.17379093  1  0  0.091979  0  0.954687  0  0.051295  0  0.101723  0  1.017415  0  0  0.10516  0  1.01496  0  0  0.096329  0.099248  0  1.019214  0
H  H10  1  0.86145481  0.72549363  0.28099592  1  0  0.08834  0  0.952624  0  0.072792  0  0.099756  0  1.010864  0  0  0.102077  0  1.010875  0  0  0.096822  0.098061  0  1.011005  0
H  H11  1  0.27450716  0.13854833  0.71900476  1  0  0.088346  0  0.952664  0  0.07276  0  0.099762  0  1.010901  0  0  0.102084  0  1.010914  0  0  0.096838  0.098067  0  1.011041  0
H  H12  1  0.80505602  0.16866669  0.78072941  1  0  0.088447  0  0.953336  0  0.085047  0  0.099515  0  1.011897  0  0  0.101827  0  1.011919  0  0  0.096697  0.09782  0  1.012031  0
H  H13  1  0.83133303  0.19494607  0.21927099  1  0  0.08843  0  0.95333  0  0.085018  0  0.099493  0  1.0119  0  0  0.101807  0  1.011921  0  0  0.096684  0.097798  0  1.012034  0
H  H14  1  0.16417399  0.73617473  0.27910744  1  0  0.087183  0  0.959575  0  0.079612  0  0.092839  0  1.028586  0  0  0.095885  0  1.026857  0  0  0.093149  0.090618  0  1.029891  0
H  H15  1  0.26382465  0.83582950  0.72089338  1  0  0.087175  0  0.9596  0  0.079559  0  0.092828  0  1.028617  0  0  0.095873  0  1.026889  0  0  0.093141  0.090604  0  1.02993  0
H  H16  1  0.79273983  0.86418417  0.77900808  1  0  0.087546  0  0.960556  0  0.046853  0  0.093475  0  1.029142  0  0  0.096658  0  1.027159  0  0  0.093258  0.091221  0  1.030522  0
H  H17  1  0.13581680  0.20725915  0.22099242  1  0  0.087552  0  0.960564  0  0.04685  0  0.093481  0  1.02915  0  0  0.096664  0  1.027169  0  0  0.093258  0.091228  0  1.03053  0
H  H18  1  0.34358647  0.53524623  0.32632976  1  0  0.090383  0  0.958759  0  0.051829  0  0.098421  0  1.021644  0  0  0.101741  0  1.019627  0  0  0.091932  0.096029  0  1.023217  0
H  H19  1  0.46475111  0.65641510  0.67367158  1  0  0.090364  0  0.958786  0  0.051839  0  0.098399  0  1.021678  0  0  0.10172  0  1.019661  0  0  0.091927  0.096007  0  1.02325  0
H  H20  1  0.04104762  0.73243916  0.82642655  1  0  0.089802  0  0.959573  0  0.093907  0  0.097862  0  1.022417  0  0  0.10119  0  1.0204  0  0  0.091793  0.095463  0  1.023984  0
H  H21  1  0.26756084  0.95895184  0.17357365  1  0  0.089809  0  0.959548  0  0.093913  0  0.097871  0  1.022393  0  0  0.101199  0  1.020376  0  0  0.091784  0.095473  0  1.023959  0
H  H22  1  0.21721341  0.32221823  0.37438824  1  0  0.093442  0  0.956095  0  0.096981  0  0.100234  0  1.022952  0  0  0.10378  0  1.020772  0  0  0.096705  0.097677  0  1.024586  0
H  H23  1  0.67778061  0.78278657  0.62561220  1  0  0.093431  0  0.956123  0  0.096984  0  0.100232  0  1.022967  0  0  0.103777  0  1.020786  0  0  0.096696  0.097676  0  1.024599  0
H  H24  1  0.30178556  0.90742512  0.87457062  1  0  0.092731  0  0.956297  0  0.089585  0  0.100165  0  1.022558  0  0  0.103871  0  1.020076  0  0  0.096473  0.097573  0  1.024256  0
H  H25  1  0.09257190  0.69821514  0.12542813  1  0  0.09274  0  0.956297  0  0.0896  0  0.100187  0  1.02255  0  0  0.103896  0  1.020065  0  0  0.096474  0.097593  0  1.024248  0
H  H26  1  0.48929449  0.16024115  0.51167221  1  0  0.076748  0  0.942731  0  0.089524  0  0.084749  0  1.007863  0  0  0.086616  0  1.007276  0  0  0.11477  0.083372  0  1.008338  0
H  H27  1  0.83975946  0.51070572  0.48832778  1  0  0.076759  0  0.942721  0  0.08951  0  0.084787  0  1.007821  0  0  0.086636  0  1.007253  0  0  0.114778  0.083409  0  1.008297  0
H  H28  1  0.60139666  0.77241352  0.01163809  1  0  0.077217  0  0.9423  0  0.117291  0  0.08482  0  1.007751  0  0  0.086727  0  1.007114  0  0  0.114978  0.083454  0  1.008224  0
H  H29  1  0.22758420  0.39860347  0.98836275  1  0  0.077233  0  0.942341  0  0.117268  0  0.084845  0  1.007787  0  0  0.086753  0  1.00715  0  0  0.11499  0.083479  0  1.008259  0
H  H30  1  0.26817308  0.36417479  0.51132415  1  0  0.123845  0  0.946199  0  0.135341  0  0.13231  0  1.008468  0  0  0.136194  0  1.006156  0  0  0.11326  0.129515  0  1.010297  0
H  H31  1  0.63582287  0.73182427  0.48867561  1  0  0.123785  0  0.946062  0  0.13537  0  0.132246  0  1.008344  0  0  0.13613  0  1.006031  0  0  0.1132  0.129451  0  1.010174  0
H  H32  1  0.39710131  0.99313338  0.01121617  1  0  0.124213  0  0.945907  0  0.12764  0  0.132924  0  1.008015  0  0  0.136802  0  1.005712  0  0  0.113435  0.130118  0  1.009878  0
H  H33  1  0.00686387  0.60289729  0.98878334  1  0  0.12418  0  0.945876  0  0.127609  0  0.132927  0  1.007951  0  0  0.136807  0  1.005644  0  0  0.113442  0.130121  0  1.009818  0
H  H34  1  0.18014453  0.02304268  0.43601541  1  0  0.087093  0  0.948219  0  0.12713  0  0.094109  0  1.012698  0  0  0.096684  0  1.010461  0  0  0.115768  0.092185  0  1.014421  0
H  H35  1  0.97695556  0.81986416  0.56398193  1  0  0.087116  0  0.948112  0  0.127112  0  0.094117  0  1.0126  0  0  0.096693  0  1.010364  0  0  0.115781  0.092193  0  1.014324  0
H  H36  1  0.66271216  0.00609704  0.93598161  1  0  0.087941  0  0.946427  0  0.128707  0  0.094626  0  1.011303  0  0  0.097273  0  1.008886  0  0  0.116232  0.092748  0  1.013021  0
H  H37  1  0.99390391  0.33728762  0.06401916  1  0  0.087937  0  0.946419  0  0.12871  0  0.094632  0  1.011286  0  0  0.097279  0  1.008868  0  0  0.116243  0.092756  0  1.013001  0
H  H38  1  0.40166009  0.81949369  0.43487120  1  0  0.11376  0  0.957706  0  0.126345  0  0.117438  0  1.029259  0  0  0.12113  0  1.027234  0  0  0.106802  0.114763  0  1.030883  0
H  H39  1  0.18049848  0.59834335  0.56512692  1  0  0.113837  0  0.957671  0  0.126416  0  0.117484  0  1.029261  0  0  0.121177  0  1.027235  0  0  0.106813  0.114807  0  1.030887  0
H  H40  1  0.86511149  0.78351039  0.93484824  1  0  0.113737  0  0.957079  0  0.095874  0  0.117692  0  1.028318  0  0  0.121505  0  1.026092  0  0  0.106859  0.114971  0  1.030027  0
H  H41  1  0.21648992  0.13488650  0.06515123  1  0  0.113736  0  0.957099  0  0.095915  0  0.117701  0  1.028319  0  0  0.121515  0  1.026092  0  0  0.106862  0.11498  0  1.030027  0
C  C42  1  0.50203755  0.97203738  0.32475748  1  0  0.708912  0  3.626226  0  1.720413  0  0.6358  0  3.966345  0  0  0.664125  0  3.939705  0  0  0.29626  0.615424  0  3.98565  0
C  C43  1  0.02796041  0.49796405  0.67524177  1  0  0.708984  0  3.626142  0  1.720433  0  0.635858  0  3.966252  0  0  0.664181  0  3.939618  0  0  0.296292  0.615483  0  3.985557  0
C  C44  1  0.60250350  0.57232563  0.82470271  1  0  0.708352  0  3.627709  0  1.691243  0  0.636125  0  3.966272  0  0  0.665558  0  3.937692  0  0  0.296385  0.615276  0  3.986418  0
C  C45  1  0.42767633  0.39749760  0.17529883  1  0  0.708291  0  3.627783  0  1.690757  0  0.635944  0  3.966512  0  0  0.665403  0  3.937891  0  0  0.296333  0.615092  0  3.986658  0
C  C46  1  0.66103839  0.05293275  0.36872921  1  0  0.253394  0  3.918678  0  0.80001  0  0.237801  0  4.183839  0  0  0.258826  0  4.193217  0  0  0.09095  0.223941  0  4.177216  0
C  C47  1  0.94706594  0.33896082  0.63127007  1  0  0.253422  0  3.918684  0  0.800085  0  0.237845  0  4.18382  0  0  0.258872  0  4.193198  0  0  0.090994  0.223986  0  4.177196  0
C  C48  1  0.56540555  0.45722075  0.86861161  1  0  0.255709  0  3.917273  0  0.808277  0  0.239912  0  4.182864  0  0  0.26107  0  4.191637  0  0  0.091611  0.225956  0  4.176603  0
C  C49  1  0.54278053  0.43459633  0.13138859  1  0  0.25575  0  3.917337  0  0.808591  0  0.240051  0  4.182835  0  0  0.261178  0  4.191651  0  0  0.091697  0.226104  0  4.17656  0
C  C50  1  0.74190513  0.18643939  0.35206442  1  0  -0.404934  0  3.771582  0  0.023503  0  -0.444004  0  4.046027  0  0  -0.468557  0  4.068125  0  0  -0.162368  -0.427681  0  4.030834  0
C  C51  1  0.81356146  0.25809445  0.64793592  1  0  -0.40497  0  3.771623  0  0.023683  0  -0.444051  0  4.046072  0  0  -0.468605  0  4.068167  0  0  -0.162382  -0.427724  0  4.030883  0
C  C52  1  0.41520033  0.35978893  0.85190578  1  0  -0.40624  0  3.772273  0  -0.013888  0  -0.445803  0  4.046622  0  0  -0.470525  0  4.068588  0  0  -0.162806  -0.429352  0  4.031542  0
C  C53  1  0.64021227  0.58480261  0.14809450  1  0  -0.406275  0  3.772235  0  -0.013898  0  -0.445857  0  4.046562  0  0  -0.47057  0  4.068541  0  0  -0.162847  -0.42941  0  4.03148  0
C  C54  1  0.89833137  0.26936141  0.38142796  1  0  0.447368  0  3.790157  0  0.778124  0  0.426732  0  4.053669  0  0  0.455508  0  4.055949  0  0  0.128966  0.407535  0  4.051483  0
C  C55  1  0.73064111  0.10166915  0.61857208  1  0  0.447372  0  3.79018  0  0.777884  0  0.426736  0  4.053691  0  0  0.455511  0  4.055973  0  0  0.128969  0.407527  0  4.051525  0
C  C56  1  0.36150823  0.23307781  0.88136415  1  0  0.447123  0  3.791846  0  0.780963  0  0.427354  0  4.053533  0  0  0.456375  0  4.055389  0  0  0.129548  0.407963  0  4.051652  0
C  C57  1  0.76692117  0.63849376  0.11863547  1  0  0.447077  0  3.791828  0  0.78091  0  0.427312  0  4.053534  0  0  0.456332  0  4.055392  0  0  0.129549  0.407919  0  4.051648  0
C  C58  1  0.96796853  0.39984548  0.35264740  1  0  -0.035241  0  3.77275  0  -0.0685  0  -0.009775  0  3.995582  0  0  -0.01711  0  4.020002  0  0  -0.021173  -0.005046  0  3.979048  0
C  C59  1  0.60015540  0.03203213  0.64735257  1  0  -0.035197  0  3.772606  0  -0.068451  0  -0.009738  0  3.995453  0  0  -0.017074  0  4.019874  0  0  -0.021151  -0.005005  0  3.978921  0
C  C60  1  0.20231853  0.13457571  0.85259288  1  0  -0.032456  0  3.772629  0  -0.040962  0  -0.006823  0  3.994506  0  0  -0.014241  0  4.018904  0  0  -0.020827  -0.002077  0  3.978054  0
C  C61  1  0.86542258  0.79768389  0.14740585  1  0  -0.032521  0  3.772663  0  -0.040849  0  -0.006915  0  3.994606  0  0  -0.014333  0  4.019005  0  0  -0.020875  -0.002155  0  3.978128  0
C  C62  1  0.86748895  0.51327847  0.32605483  1  0  -0.095219  0  3.742821  0  -0.08578  0  -0.116195  0  3.984899  0  0  -0.116732  0  4.005516  0  0  -0.090653  -0.115589  0  3.970803  0
C  C63  1  0.48672292  0.13251126  0.67394520  1  0  -0.095183  0  3.742766  0  -0.086244  0  -0.11616  0  3.984852  0  0  -0.116698  0  4.005471  0  0  -0.09065  -0.115554  0  3.970753  0
C  C64  1  0.06226961  0.20814675  0.82586350  1  0  -0.097806  0  3.744169  0  -0.014362  0  -0.119263  0  3.986147  0  0  -0.119833  0  4.0068  0  0  -0.090953  -0.118624  0  3.972039  0
C  C65  1  0.79185177  0.93773298  0.17413621  1  0  -0.097781  0  3.744157  0  -0.014428  0  -0.119225  0  3.986144  0  0  -0.119795  0  4.006796  0  0  -0.090929  -0.118588  0  3.972029  0
C  C66  1  0.93892417  0.63539479  0.30060175  1  0  -0.067425  0  3.769124  0  -0.065375  0  -0.077694  0  4.015161  0  0  -0.080906  0  4.03798  0  0  -0.093143  -0.075558  0  3.999571  0
C  C67  1  0.36460491  0.06107951  0.69939885  1  0  -0.067418  0  3.769073  0  -0.065388  0  -0.077685  0  4.015107  0  0  -0.0809  0  4.037929  0  0  -0.093155  -0.075547  0  3.999516  0
C  C68  1  0.91481770  0.11101033  0.80041244  1  0  -0.067201  0  3.771191  0  -0.036649  0  -0.077152  0  4.017236  0  0  -0.080383  0  4.040133  0  0  -0.093463  -0.075013  0  4.001606  0
C  C69  1  0.88898875  0.08518386  0.19958739  1  0  -0.067156  0  3.771115  0  -0.036658  0  -0.077101  0  4.017141  0  0  -0.080332  0  4.040038  0  0  -0.093418  -0.074963  0  4.001512  0
C  C70  1  0.10981046  0.64256293  0.30009998  1  0  -0.053845  0  3.750104  0  -0.011356  0  -0.074179  0  4.006599  0  0  -0.074464  0  4.02714  0  0  -0.090828  -0.073766  0  3.992516  0
C  C71  1  0.35743562  0.89019283  0.69990076  1  0  -0.053837  0  3.750026  0  -0.011476  0  -0.074178  0  4.006534  0  0  -0.074462  0  4.027074  0  0  -0.090809  -0.073766  0  3.992447  0
C  C72  1  0.90727175  0.93967876  0.80001383  1  0  -0.054192  0  3.751253  0  -0.039887  0  -0.074496  0  4.007254  0  0  -0.074737  0  4.027693  0  0  -0.090161  -0.074102  0  3.993214  0
C  C73  1  0.06032072  0.09272855  0.19998620  1  0  -0.054255  0  3.75125  0  -0.039738  0  -0.07456  0  4.007246  0  0  -0.074801  0  4.027685  0  0  -0.090191  -0.074166  0  3.993207  0
C  C74  1  0.21032456  0.52983146  0.32663285  1  0  -0.080821  0  3.787858  0  -0.025881  0  -0.095868  0  4.046727  0  0  -0.098977  0  4.068242  0  0  -0.098173  -0.093824  0  4.032105  0
C  C75  1  0.47016698  0.78967691  0.67336772  1  0  -0.080753  0  3.787896  0  -0.025708  0  -0.095802  0  4.046773  0  0  -0.098912  0  4.068288  0  0  -0.098137  -0.093759  0  4.032154  0
C  C76  1  0.04655814  0.86595558  0.82665914  1  0  -0.079609  0  3.7883  0  -0.079845  0  -0.094422  0  4.046888  0  0  -0.097576  0  4.068524  0  0  -0.098264  -0.092371  0  4.032231  0
C  C77  1  0.13404286  0.95344274  0.17334021  1  0  -0.079617  0  3.788285  0  -0.079978  0  -0.094427  0  4.046876  0  0  -0.097581  0  4.068513  0  0  -0.098272  -0.092376  0  4.03222  0
C  C78  1  0.14028737  0.41051900  0.35341634  1  0  -0.07856  0  3.73377  0  -0.034333  0  -0.10163  0  3.980809  0  0  -0.102082  0  4.001663  0  0  -0.088041  -0.101122  0  3.966646  0
C  C79  1  0.58948041  0.85971258  0.64658374  1  0  -0.078637  0  3.733785  0  -0.034334  0  -0.10171  0  3.980816  0  0  -0.102162  0  4.001672  0  0  -0.088079  -0.101202  0  3.966651  0
C  C80  1  0.19246032  0.96308873  0.85348816  1  0  -0.079312  0  3.734702  0  -0.054599  0  -0.10315  0  3.981635  0  0  -0.103577  0  4.002435  0  0  -0.088113  -0.102609  0  3.967469  0
C  C81  1  0.03690950  0.80754098  0.14651120  1  0  -0.079242  0  3.734677  0  -0.054597  0  -0.103095  0  3.981633  0  0  -0.103526  0  4.002433  0  0  -0.088061  -0.102557  0  3.967462  0
C  C82  1  0.51625071  0.28839982  0.50668292  1  0  0.12947  0  3.727479  0  0.485242  0  0.099791  0  3.979674  0  0  0.105959  0  3.999789  0  0  0.046046  0.095827  0  3.965983  0
C  C83  1  0.71160119  0.48374967  0.49331669  1  0  0.129483  0  3.727413  0  0.485219  0  0.099776  0  3.979619  0  0  0.10596  0  3.999737  0  0  0.046031  0.095812  0  3.965928  0
C  C84  1  0.46824699  0.74046297  0.00664074  1  0  0.129186  0  3.725777  0  0.462758  0  0.099857  0  3.978168  0  0  0.106019  0  3.998189  0  0  0.046048  0.09588  0  3.964466  0
C  C85  1  0.25953772  0.53175166  0.99335933  1  0  0.12909  0  3.725882  0  0.462654  0  0.099739  0  3.978294  0  0  0.105899  0  3.998317  0  0  0.045999  0.095762  0  3.964591  0
C  C86  1  0.39402982  0.40261713  0.50706854  1  0  -0.152056  0  3.680995  0  -0.003942  0  -0.168828  0  3.924897  0  0  -0.175869  0  3.944814  0  0  -0.07552  -0.16429  0  3.911594  0
C  C87  1  0.59738025  0.60596748  0.49293116  1  0  -0.152007  0  3.680896  0  -0.003885  0  -0.168764  0  3.924793  0  0  -0.175805  0  3.944704  0  0  -0.075449  -0.164227  0  3.911489  0
C  C88  1  0.35438320  0.86303461  0.00700312  1  0  -0.151358  0  3.680642  0  -0.022335  0  -0.168696  0  3.923785  0  0  -0.175757  0  3.943773  0  0  -0.075328  -0.164137  0  3.910443  0
C  C89  1  0.13696341  0.64561515  0.99299684  1  0  -0.151242  0  3.680368  0  -0.021911  0  -0.1686  0  3.923496  0  0  -0.17566  0  3.943483  0  0  -0.07527  -0.164043  0  3.910153  0
C  C90  1  0.43441460  0.56558294  0.50000010  1  0  0.104675  0  3.75245  0  -0.027008  0  0.114924  0  3.981725  0  0  0.11814  0  4.004446  0  0  0.019061  0.112963  0  3.96616  0
C  C91  1  0.18431835  0.81568039  0.99999979  1  0  0.101685  0  3.750869  0  0.024832  0  0.113482  0  3.979334  0  0  0.116667  0  4.002146  0  0  0.018211  0.111515  0  3.963735  0
C  C92  1  0.18773237  0.92819316  0.46460219  1  0  0.12956  0  3.710311  0  0.521793  0  0.09954  0  3.959403  0  0  0.10616  0  3.978499  0  0  0.049134  0.09527  0  3.946362  0
C  C93  1  0.07180826  0.81227087  0.53539527  1  0  0.129554  0  3.710045  0  0.521464  0  0.099574  0  3.959109  0  0  0.10619  0  3.978207  0  0  0.049151  0.095305  0  3.946066  0
C  C94  1  0.78612696  0.02716326  0.96460110  1  0  0.128656  0  3.708077  0  0.489415  0  0.098871  0  3.957374  0  0  0.105616  0  3.976352  0  0  0.048334  0.094519  0  3.944347  0
C  C95  1  0.97283822  0.21387195  0.03539918  1  0  0.128656  0  3.708069  0  0.489132  0  0.098861  0  3.957394  0  0  0.105608  0  3.97637  0  0  0.048304  0.094509  0  3.944367  0
C  C96  1  0.30973578  0.81395900  0.46403596  1  0  -0.146586  0  3.692842  0  -0.027154  0  -0.165307  0  3.942661  0  0  -0.173085  0  3.964466  0  0  -0.075292  -0.160266  0  3.928069  0
C  C97  1  0.18603897  0.69026494  0.53596238  1  0  -0.146662  0  3.692877  0  -0.027281  0  -0.165376  0  3.942711  0  0  -0.173155  0  3.964518  0  0  -0.075324  -0.160333  0  3.928117  0
C  C98  1  0.89986666  0.90460150  0.96402552  1  0  -0.145592  0  3.68992  0  -0.018061  0  -0.163877  0  3.939921  0  0  -0.171577  0  3.961547  0  0  -0.074948  -0.158861  0  3.925387  0
C  C99  1  0.09539743  0.10013133  0.03597433  1  0  -0.145629  0  3.689935  0  -0.017811  0  -0.163929  0  3.939974  0  0  -0.171629  0  3.9616  0  0  -0.074965  -0.158914  0  3.925441  0
C  C100  1  0.30914920  0.69085053  0.49999852  1  0  0.101896  0  3.755205  0  -0.086308  0  0.115015  0  3.981555  0  0  0.118175  0  4.004746  0  0  0.01939  0.113082  0  3.96571  0
C  C101  1  0.05897840  0.94101952  0.00000026  1  0  0.101939  0  3.752171  0  -0.030579  0  0.113107  0  3.980998  0  0  0.116166  0  4.004388  0  0  0.01947  0.111211  0  3.965072  0
N  N102  1  0.67233410  0.32766549  0.50000016  1  0  -0.340156  0  3.272215  0  -1.256305  0  -0.265346  0  3.531011  0  0  -0.285361  0  3.55348  0  0  -0.32881  -0.25162  0  3.515351  0
N  N103  1  0.42228839  0.57770898  0.00000011  1  0  -0.340033  0  3.270894  0  -1.266139  0  -0.265302  0  3.529423  0  0  -0.285358  0  3.552045  0  0  -0.329319  -0.251565  0  3.51378  0
N  N104  1  0.07168611  0.92831821  0.49999887  1  0  -0.328425  0  3.262463  0  -1.315946  0  -0.249457  0  3.522821  0  0  -0.269  0  3.540789  0  0  -0.331224  -0.236075  0  3.510233  0
N  N105  1  0.82138382  0.17861535  0.00000055  1  0  -0.328329  0  3.264323  0  -1.267568  0  -0.248969  0  3.524365  0  0  -0.268557  0  3.542389  0  0  -0.330598  -0.235588  0  3.511785  0
O  O106  1  0.69424354  0.98370694  0.41503354  1  0  -0.52544  0  2.045423  0  -1.150389  0  -0.476897  0  2.286659  0  0  -0.50172  0  2.280224  0  0  -0.315831  -0.459656  0  2.290379  0
O  O107  1  0.01629349  0.30575749  0.58496668  1  0  -0.525445  0  2.04546  0  -1.150414  0  -0.476907  0  2.286675  0  0  -0.501728  0  2.280232  0  0  -0.315852  -0.459665  0  2.290395  0
O  O108  1  0.68087052  0.47032597  0.91494459  1  0  -0.526459  0  2.044794  0  -1.153737  0  -0.477297  0  2.285555  0  0  -0.50209  0  2.278871  0  0  -0.316276  -0.460118  0  2.289567  0
O  O109  1  0.52967755  0.31912924  0.08505691  1  0  -0.52647  0  2.044873  0  -1.153792  0  -0.477312  0  2.285547  0  0  -0.502096  0  2.278876  0  0  -0.316308  -0.460138  0  2.289556  0
O  O110  1  0.98850603  0.23784515  0.42944989  1  0  -0.568103  0  2.010229  0  -1.176193  0  -0.506574  0  2.255011  0  0  -0.531694  0  2.244863  0  0  -0.308242  -0.488998  0  2.261133  0
O  O111  1  0.76215758  0.01149502  0.57055060  1  0  -0.568089  0  2.010261  0  -1.176194  0  -0.506549  0  2.255033  0  0  -0.531668  0  2.244885  0  0  -0.308242  -0.488976  0  2.261177  0
O  O112  1  0.44102595  0.19119500  0.92944165  1  0  -0.569465  0  2.009843  0  -1.177123  0  -0.507809  0  2.253413  0  0  -0.533088  0  2.243237  0  0  -0.309477  -0.490273  0  2.259871  0
O  O113  1  0.80880450  0.55897445  0.07055830  1  0  -0.569406  0  2.009843  0  -1.177133  0  -0.507757  0  2.253426  0  0  -0.533036  0  2.24325  0  0  -0.309458  -0.490222  0  2.259884  0
F  F114  1  0.50505581  0.80259735  0.31410934  1  0  -0.252948  0  1.171638  0  -0.662928  0  -0.205947  0  1.330167  0  0  -0.215294  0  1.313694  0  0  -0.097789  -0.199178  0  1.34163  0
F  F115  1  0.19740296  0.49494838  0.68589151  1  0  -0.253043  0  1.171678  0  -0.662922  0  -0.205981  0  1.330153  0  0  -0.215327  0  1.31368  0  0  -0.097805  -0.199211  0  1.341616  0
F  F116  1  0.76138314  0.55870847  0.81413705  1  0  -0.25158  0  1.170417  0  -0.635526  0  -0.205108  0  1.329088  0  0  -0.214427  0  1.312193  0  0  -0.097366  -0.19832  0  1.340701  0
F  F117  1  0.44129220  0.23861804  0.18586480  1  0  -0.25158  0  1.170419  0  -0.635531  0  -0.205076  0  1.32912  0  0  -0.214399  0  1.312215  0  0  -0.097356  -0.198288  0  1.340735  0
F  F118  1  0.36298964  0.00974213  0.34957755  1  0  -0.264078  0  1.139597  0  -0.635769  0  -0.216204  0  1.2941  0  0  -0.225865  0  1.27902  0  0  -0.10057  -0.209157  0  1.30458  0
F  F119  1  0.99025639  0.63701304  0.65042202  1  0  -0.264113  0  1.139544  0  -0.635815  0  -0.216259  0  1.294057  0  0  -0.225919  0  1.278978  0  0  -0.100616  -0.209212  0  1.304538  0
F  F120  1  0.58955772  0.73618398  0.84956261  1  0  -0.264901  0  1.137714  0  -0.633771  0  -0.219885  0  1.295591  0  0  -0.231124  0  1.281401  0  0  -0.101272  -0.212026  0  1.305475  0
F  F121  1  0.26381624  0.41043876  0.15043726  1  0  -0.264871  0  1.137736  0  -0.63375  0  -0.219846  0  1.295661  0  0  -0.23109  0  1.281459  0  0  -0.101267  -0.211988  0  1.305545  0
F  F122  1  0.47732809  0.01984869  0.26951690  1  0  -0.242813  0  1.186923  0  -0.64407  0  -0.209083  0  1.362701  0  0  -0.218884  0  1.346491  0  0  -0.093157  -0.202005  0  1.374008  0
F  F123  1  0.98014957  0.52267462  0.73048262  1  0  -0.24279  0  1.186888  0  -0.644052  0  -0.20907  0  1.362668  0  0  -0.218872  0  1.346458  0  0  -0.09314  -0.201992  0  1.373974  0
F  F124  1  0.49960904  0.54184762  0.76941769  1  0  -0.242515  0  1.188046  0  -0.643694  0  -0.208399  0  1.363796  0  0  -0.218108  0  1.347064  0  0  -0.092928  -0.20133  0  1.375284  0
F  F125  1  0.45814999  0.50039418  0.23058329  1  0  -0.242486  0  1.188075  0  -0.643437  0  -0.208336  0  1.363857  0  0  -0.218049  0  1.347114  0  0  -0.092897  -0.201267  0  1.375346  0
