# generated using pymatgen
data_H5PbC4O5
_symmetry_space_group_name_H-M   'P 1'
_cell_length_a   7.83643789
_cell_length_b   7.27676268
_cell_length_c   12.02026469
_cell_angle_alpha   102.17625680
_cell_angle_beta   89.99873949
_cell_angle_gamma   90.00842087
_symmetry_Int_Tables_number   1
_chemical_formula_structural   H5PbC4O5
_chemical_formula_sum   'H20 Pb4 C16 O20'
_cell_volume   670.02221595
_cell_formula_units_Z   4
loop_
 _symmetry_equiv_pos_site_id
 _symmetry_equiv_pos_as_xyz
  1  'x, y, z'
loop_
 _atom_site_type_symbol
 _atom_site_label
 _atom_site_symmetry_multiplicity
 _atom_site_fract_x
 _atom_site_fract_y
 _atom_site_fract_z
 _atom_site_occupancy
 _atom_site_hle17_bader_spin_density
 _atom_site_hle17_ddec_charge
 _atom_site_hle17_ddec_spin_density
 _atom_site_hle17_ddec_sum_bond_order
 _atom_site_hle17_magmom
 _atom_site_hse06_10hf_bader_spin_density
 _atom_site_hse06_10hf_ddec_charge
 _atom_site_hse06_10hf_ddec_spin_density
 _atom_site_hse06_10hf_ddec_sum_bond_order
 _atom_site_hse06_10hf_magmom
 _atom_site_hse06_bader_spin_density
 _atom_site_hse06_ddec_charge
 _atom_site_hse06_ddec_spin_density
 _atom_site_hse06_ddec_sum_bond_order
 _atom_site_hse06_magmom
 _atom_site_pbe_bader_spin_density
 _atom_site_pbe_cm5_charge
 _atom_site_pbe_ddec_charge
 _atom_site_pbe_ddec_spin_density
 _atom_site_pbe_ddec_sum_bond_order
 _atom_site_pbe_magmom
H  H0  1  0.30844871  0.14518350  0.39336810  1  0  0.105115  0  0.927454  0  0  0.121422  0  0.990163  0  0  0.123388  0  0.989333  0  0  0.107032  0.120009  0  0.990879  0
H  H1  1  0.80835619  0.85471426  0.10658291  1  0  0.104899  0  0.927551  0  0  0.121268  0  0.990323  0  0  0.123235  0  0.989492  0  0  0.106956  0.119843  0  0.991033  0
H  H2  1  0.69161330  0.85485299  0.60663016  1  0  0.105272  0  0.927436  0  0  0.121463  0  0.990115  0  0  0.123422  0  0.989298  0  0  0.107043  0.120047  0  0.990829  0
H  H3  1  0.19160373  0.14527321  0.89340485  1  0  0.105  0  0.927492  0  0  0.121427  0  0.990173  0  0  0.123393  0  0.989343  0  0  0.107044  0.12001  0  0.990886  0
H  H4  1  0.20701724  0.97851309  0.45751652  1  0  0.127428  0  0.922369  0  0  0.143417  0  0.979447  0  0  0.145935  0  0.978654  0  0  0.110445  0.141605  0  0.980115  0
H  H5  1  0.70692763  0.02141245  0.04246343  1  0  0.127315  0  0.922379  0  0  0.143469  0  0.97932  0  0  0.145993  0  0.978518  0  0  0.110476  0.141646  0  0.979988  0
H  H6  1  0.79301669  0.02153876  0.54248565  1  0  0.127475  0  0.92263  0  0  0.143439  0  0.979578  0  0  0.145959  0  0.978781  0  0  0.110401  0.141622  0  0.980247  0
H  H7  1  0.29302719  0.97855065  0.95750328  1  0  0.127472  0  0.922133  0  0  0.143536  0  0.97919  0  0  0.146057  0  0.978397  0  0  0.110466  0.141717  0  0.979861  0
H  H8  1  0.41495911  0.03661020  0.61740974  1  0  0.086098  0  0.926698  0  0  0.095687  0  0.987577  0  0  0.098386  0  0.985755  0  0  0.104494  0.093742  0  0.988948  0
H  H9  1  0.91491750  0.96336907  0.88258903  1  0  0.086046  0  0.926737  0  0  0.095611  0  0.987569  0  0  0.098311  0  0.985749  0  0  0.10448  0.093667  0  0.988939  0
H  H10  1  0.58506079  0.96339242  0.38258606  1  0  0.086088  0  0.926557  0  0  0.095645  0  0.987402  0  0  0.098342  0  0.985583  0  0  0.104444  0.093698  0  0.988769  0
H  H11  1  0.08505135  0.03660022  0.11739441  1  0  0.086025  0  0.926837  0  0  0.095627  0  0.987673  0  0  0.098327  0  0.985851  0  0  0.104451  0.093684  0  0.989042  0
H  H12  1  0.89894410  0.27613394  0.85854695  1  0  0.428724  0  0.878122  0  0  0.396091  0  0.944347  0  0  0.408132  0  0.927262  0  0  0.288379  0.387603  0  0.956349  0
H  H13  1  0.39894986  0.72386751  0.64147805  1  0  0.428599  0  0.878284  0  0  0.395985  0  0.944474  0  0  0.408025  0  0.927392  0  0  0.288372  0.3875  0  0.956472  0
H  H14  1  0.10106942  0.72392459  0.14146285  1  0  0.428682  0  0.878098  0  0  0.396002  0  0.944422  0  0  0.408043  0  0.92734  0  0  0.288475  0.387512  0  0.956423  0
H  H15  1  0.60110065  0.27609938  0.35855082  1  0  0.42869  0  0.878136  0  0  0.39606  0  0.944354  0  0  0.408103  0  0.927268  0  0  0.288387  0.387576  0  0.956349  0
H  H16  1  0.77504765  0.20811303  0.75356498  1  0  0.418695  0  0.861565  0  0  0.394894  0  0.92394  0  0  0.404881  0  0.909415  0  0  0.301791  0.387819  0  0.934212  0
H  H17  1  0.27500922  0.79192956  0.74645816  1  0  0.418737  0  0.861676  0  0  0.394866  0  0.924033  0  0  0.404859  0  0.909499  0  0  0.301825  0.387787  0  0.934308  0
H  H18  1  0.22494162  0.79195045  0.24645803  1  0  0.418588  0  0.861528  0  0  0.39478  0  0.92405  0  0  0.404762  0  0.909535  0  0  0.301776  0.387706  0  0.934325  0
H  H19  1  0.72493029  0.20808202  0.25350232  1  0  0.418642  0  0.861657  0  0  0.394845  0  0.924017  0  0  0.404833  0  0.909492  0  0  0.301825  0.387771  0  0.934292  0
Pb  Pb20  1  0.89605601  0.51024769  0.67340529  1  0  1.396561  0  1.352473  0  0  1.216145  0  1.740027  0  0  1.278181  0  1.69313  0  0  0.663112  1.170945  0  1.773148  0
Pb  Pb21  1  0.39599984  0.48969952  0.82658478  1  0  1.396656  0  1.352501  0  0  1.216266  0  1.740073  0  0  1.278291  0  1.693185  0  0  0.663163  1.171074  0  1.773192  0
Pb  Pb22  1  0.10391284  0.48974566  0.32657833  1  0  1.3967  0  1.352441  0  0  1.216286  0  1.739998  0  0  1.278324  0  1.693103  0  0  0.663143  1.171093  0  1.773116  0
Pb  Pb23  1  0.60391413  0.51031289  0.17346654  1  0  1.396504  0  1.352596  0  0  1.21608  0  1.740198  0  0  1.278113  0  1.693311  0  0  0.663028  1.170891  0  1.773311  0
C  C24  1  0.28111088  0.11012057  0.47646587  1  0  -0.277355  0  3.660919  0  0  -0.322874  0  3.910872  0  0  -0.328179  0  3.917913  0  0  -0.159077  -0.319218  0  3.905995  0
C  C25  1  0.78105440  0.88984181  0.02350202  1  0  -0.277151  0  3.661138  0  0  -0.322925  0  3.911129  0  0  -0.328235  0  3.918173  0  0  -0.159147  -0.319219  0  3.906191  0
C  C26  1  0.71893965  0.88992290  0.52353424  1  0  -0.277951  0  3.661828  0  0  -0.323146  0  3.911189  0  0  -0.328465  0  3.918252  0  0  -0.159065  -0.319452  0  3.906244  0
C  C27  1  0.21891190  0.11012336  0.97647915  1  0  -0.277431  0  3.660839  0  0  -0.3232  0  3.911128  0  0  -0.328507  0  3.918158  0  0  -0.159131  -0.319522  0  3.906234  0
C  C28  1  0.44630995  0.07938655  0.53744070  1  0  -0.108271  0  3.621321  0  0  -0.115321  0  3.858736  0  0  -0.119805  0  3.871302  0  0  -0.087818  -0.11214  0  3.84998  0
C  C29  1  0.94627628  0.92058688  0.96255028  1  0  -0.108329  0  3.621369  0  0  -0.115119  0  3.858652  0  0  -0.119599  0  3.871226  0  0  -0.087833  -0.111949  0  3.849887  0
C  C30  1  0.55373164  0.92063255  0.46256500  1  0  -0.108288  0  3.621435  0  0  -0.115166  0  3.858267  0  0  -0.119671  0  3.870875  0  0  -0.087748  -0.111982  0  3.849507  0
C  C31  1  0.05368747  0.07938096  0.03743377  1  0  -0.108226  0  3.621224  0  0  -0.115271  0  3.858704  0  0  -0.119744  0  3.871269  0  0  -0.087808  -0.112097  0  3.849949  0
C  C32  1  0.55749901  0.25570728  0.56834023  1  0  0.684413  0  3.824567  0  0  0.630912  0  4.128299  0  0  0.664245  0  4.122642  0  0  0.220531  0.608196  0  4.131343  0
C  C33  1  0.05744944  0.74425249  0.93165131  1  0  0.684661  0  3.824049  0  0  0.631071  0  4.127855  0  0  0.664395  0  4.122197  0  0  0.220644  0.60835  0  4.130903  0
C  C34  1  0.44255916  0.74429343  0.43169191  1  0  0.684993  0  3.824329  0  0  0.631734  0  4.127523  0  0  0.665066  0  4.121844  0  0  0.220781  0.609014  0  4.130582  0
C  C35  1  0.94251303  0.25571808  0.06833481  1  0  0.684633  0  3.824305  0  0  0.631341  0  4.127727  0  0  0.664664  0  4.122068  0  0  0.220659  0.608626  0  4.130772  0
C  C36  1  0.15954384  0.25554683  0.54151007  1  0  0.709827  0  3.851788  0  0  0.662587  0  4.146347  0  0  0.697233  0  4.140686  0  0  0.21465  0.639013  0  4.149202  0
C  C37  1  0.65948970  0.74440356  0.95842950  1  0  0.709875  0  3.851958  0  0  0.662711  0  4.146478  0  0  0.697355  0  4.14082  0  0  0.214803  0.639127  0  4.149334  0
C  C38  1  0.84051306  0.74450389  0.45848693  1  0  0.710168  0  3.852252  0  0  0.662925  0  4.146646  0  0  0.697568  0  4.140979  0  0  0.21462  0.639349  0  4.149505  0
C  C39  1  0.34049319  0.25554330  0.04154983  1  0  0.709869  0  3.852159  0  0  0.662591  0  4.14687  0  0  0.697233  0  4.141219  0  0  0.214486  0.639016  0  4.14972  0
O  O40  1  0.59969439  0.31102502  0.67446575  1  0  -0.757005  0  2.071641  0  0  -0.671967  0  2.314488  0  0  -0.705634  0  2.305413  0  0  -0.310549  -0.647991  0  2.319798  0
O  O41  1  0.09967380  0.68891021  0.82553077  1  0  -0.757233  0  2.071929  0  0  -0.672054  0  2.314689  0  0  -0.705785  0  2.305751  0  0  -0.310588  -0.648071  0  2.319994  0
O  O42  1  0.40027318  0.68899490  0.32557752  1  0  -0.757176  0  2.071832  0  0  -0.672219  0  2.31453  0  0  -0.705906  0  2.305489  0  0  -0.31046  -0.648243  0  2.319858  0
O  O43  1  0.90024401  0.31102522  0.17445021  1  0  -0.757039  0  2.071774  0  0  -0.672022  0  2.314439  0  0  -0.705743  0  2.305482  0  0  -0.310465  -0.648046  0  2.319757  0
O  O44  1  0.61350952  0.33642499  0.49323815  1  0  -0.602259  0  1.98861  0  0  -0.546919  0  2.216331  0  0  -0.573501  0  2.209441  0  0  -0.290397  -0.528485  0  2.220682  0
O  O45  1  0.11341414  0.66353154  0.00675471  1  0  -0.602326  0  1.988337  0  0  -0.546942  0  2.216103  0  0  -0.573507  0  2.209202  0  0  -0.2904  -0.528508  0  2.220465  0
O  O46  1  0.38664308  0.66353717  0.50680002  1  0  -0.602655  0  1.98843  0  0  -0.547413  0  2.215965  0  0  -0.573982  0  2.209062  0  0  -0.290709  -0.528986  0  2.22033  0
O  O47  1  0.88659427  0.33647288  0.99323386  1  0  -0.602436  0  1.988456  0  0  -0.547172  0  2.216058  0  0  -0.573738  0  2.209161  0  0  -0.290488  -0.528742  0  2.220418  0
O  O48  1  0.19594203  0.34814734  0.64088821  1  0  -0.681652  0  1.996078  0  0  -0.605101  0  2.232423  0  0  -0.63816  0  2.225419  0  0  -0.291218  -0.58184  0  2.236477  0
O  O49  1  0.69588990  0.65179084  0.85905826  1  0  -0.681489  0  1.996266  0  0  -0.604979  0  2.232635  0  0  -0.638035  0  2.225622  0  0  -0.291087  -0.581722  0  2.2367  0
O  O50  1  0.80402681  0.65176491  0.35915597  1  0  -0.681917  0  1.996049  0  0  -0.605403  0  2.232418  0  0  -0.638461  0  2.225402  0  0  -0.291257  -0.582145  0  2.236483  0
O  O51  1  0.30405599  0.34822789  0.14090078  1  0  -0.681833  0  1.996192  0  0  -0.605182  0  2.232506  0  0  -0.638245  0  2.225502  0  0  -0.291145  -0.581921  0  2.236563  0
O  O52  1  0.01819106  0.27835178  0.49269833  1  0  -0.700489  0  1.942183  0  0  -0.631946  0  2.171795  0  0  -0.663669  0  2.165145  0  0  -0.309622  -0.609589  0  2.175687  0
O  O53  1  0.51812815  0.72160040  0.00724295  1  0  -0.700569  0  1.942072  0  0  -0.632055  0  2.171658  0  0  -0.663775  0  2.165006  0  0  -0.309786  -0.609701  0  2.175556  0
O  O54  1  0.98192966  0.72182027  0.50725399  1  0  -0.700353  0  1.942342  0  0  -0.631893  0  2.171911  0  0  -0.663602  0  2.165258  0  0  -0.30953  -0.609546  0  2.175805  0
O  O55  1  0.48188663  0.27827300  0.99275976  1  0  -0.700305  0  1.942219  0  0  -0.63178  0  2.171845  0  0  -0.663493  0  2.165198  0  0  -0.309559  -0.609431  0  2.17574  0
O  O56  1  0.89543543  0.23755904  0.77225795  1  0  -0.829726  0  1.80206  0  0  -0.767069  0  1.980781  0  0  -0.791447  0  1.94993  0  0  -0.561742  -0.749718  0  2.002146  0
O  O57  1  0.39538262  0.76244130  0.72776812  1  0  -0.829634  0  1.802278  0  0  -0.766977  0  1.980838  0  0  -0.791355  0  1.949994  0  0  -0.561769  -0.749624  0  2.002202  0
O  O58  1  0.10455640  0.76251951  0.22774812  1  0  -0.829642  0  1.801938  0  0  -0.766966  0  1.980708  0  0  -0.791341  0  1.949863  0  0  -0.561904  -0.749614  0  2.002071  0
O  O59  1  0.60456581  0.23752979  0.27226136  1  0  -0.829708  0  1.802004  0  0  -0.767102  0  1.980851  0  0  -0.791468  0  1.94998  0  0  -0.56188  -0.749755  0  2.002204  0
