# generated using pymatgen
data_Al6H53C87N3O28
_symmetry_space_group_name_H-M   'P 1'
_cell_length_a   13.41546771
_cell_length_b   13.40202463
_cell_length_c   27.57829698
_cell_angle_alpha   90.55040912
_cell_angle_beta   90.52455657
_cell_angle_gamma   120.02082246
_symmetry_Int_Tables_number   1
_chemical_formula_structural   Al6H53C87N3O28
_chemical_formula_sum   'Al6 H53 C87 N3 O28'
_cell_volume   4292.46372091
_cell_formula_units_Z   1
loop_
 _symmetry_equiv_pos_site_id
 _symmetry_equiv_pos_as_xyz
  1  'x, y, z'
loop_
 _atom_site_type_symbol
 _atom_site_label
 _atom_site_symmetry_multiplicity
 _atom_site_fract_x
 _atom_site_fract_y
 _atom_site_fract_z
 _atom_site_occupancy
 _atom_site_pbe_bader_charge
 _atom_site_pbe_bader_spin_density
 _atom_site_pbe_cm5_charge
 _atom_site_pbe_ddec_charge
 _atom_site_pbe_ddec_spin_density
 _atom_site_pbe_ddec_sum_bond_order
 _atom_site_pbe_magmom
Al  Al0  1  0.40206979  0.81959809  0.49446137  1  2.493522  0  0.394732  1.68813  0  2.552515  0
Al  Al1  1  0.64103333  0.06028111  0.49797438  1  2.477025  0  0.503853  1.664261  0  2.506865  0
Al  Al2  1  0.42206118  0.06821357  0.49912096  1  2.481519  0  0.503815  1.659707  0  2.513189  0
Al  Al3  1  0.91255901  0.83487502  0.98650860  1  2.497123  0  0.39444  1.687631  0  2.556765  0
Al  Al4  1  0.91390366  0.59589957  0.98505398  1  2.477618  0  0.504977  1.661014  0  2.508004  0
Al  Al5  1  0.68530789  0.58454135  0.98277349  1  2.478031  0  0.502124  1.660024  0  2.514458  0
H  H6  1  0.84790574  0.34632525  0.21430403  1  0.093183  0  0.103781  0.093702  0  0.999849  0
H  H7  1  0.82627966  0.47945695  0.28990475  1  0.082067  0  0.101365  0.091215  0  0.996174  0
H  H8  1  0.50053896  0.28734665  0.78157052  1  0.064106  0  0.103201  0.101403  0  1.00474  0
H  H9  1  0.53349544  0.34891128  0.86815478  1  0.094964  0  0.113641  0.116495  0  0.983728  0
H  H10  1  0.79074215  0.25608741  0.71417362  1  0.05337  0  0.103234  0.1012  0  1.005711  0
H  H11  1  0.86151870  0.39945102  0.76833812  1  0.080514  0  0.1034  0.101254  0  1.005888  0
H  H12  1  0.89157312  0.45369613  0.85566620  1  0.152703  0  0.111657  0.114786  0  0.997396  0
H  H13  1  0.52661739  0.34924609  0.70456250  1  0.049444  0  0.102682  0.100382  0  1.005688  0
H  H14  1  0.49569997  0.29107843  0.61759429  1  0.098236  0  0.113041  0.115529  0  0.985668  0
H  H15  1  0.30557245  0.06128766  0.63492157  1  0.100936  0  0.105624  0.107066  0  1.008336  0
H  H16  1  0.18759956  0.68650293  0.77769970  1  0.02334  0  0.101236  0.099164  0  1.007164  0
H  H17  1  0.28673275  0.76151559  0.21122257  1  0.06248  0  0.10101  0.10929  0  0.992619  0
H  H18  1  0.12336429  0.65052615  0.86332182  1  0.095572  0  0.109408  0.111664  0  0.990894  0
H  H19  1  0.66280790  0.14603716  0.25227182  1  0.044666  0  0.099393  0.08525  0  1.02009  0
H  H20  1  0.24660770  0.02630334  0.72120609  1  0.057497  0  0.099134  0.096056  0  1.012429  0
H  H21  1  0.09563588  0.95163123  0.77018756  1  0.051048  0  0.101095  0.098958  0  1.007871  0
H  H22  1  0.03799879  0.91895508  0.85667058  1  0.107155  0  0.112218  0.116586  0  0.99442  0
H  H23  1  0.12741967  0.66457388  0.69955713  1  0.043031  0  0.100629  0.09785  0  1.008323  0
H  H24  1  0.19510049  0.70286952  0.61423636  1  0.110207  0  0.11481  0.120821  0  0.983347  0
H  H25  1  0.45186872  0.72210433  0.62025348  1  0.098502  0  0.113219  0.117329  0  0.991796  0
H  H26  1  0.77635624  0.98478763  0.78315697  1  0.044171  0  0.101059  0.098379  0  1.008079  0
H  H27  1  0.80473145  0.94725894  0.86916298  1  0.118327  0  0.115434  0.121223  0  0.982391  0
H  H28  1  0.96553390  0.70836547  0.22168854  1  0.080307  0  0.100369  0.100928  0  0.991797  0
H  H29  1  0.47595772  0.68571158  0.70675437  1  0.054533  0  0.101127  0.098936  0  1.007385  0
H  H30  1  0.55954587  0.61935030  0.75755703  1  0.077263  0  0.099363  0.096305  0  1.012155  0
H  H31  1  0.50714908  0.18043042  0.19258069  1  0.052686  0  0.103648  0.091199  0  0.995999  0
H  H32  1  0.58117414  0.58434699  0.84446820  1  0.078225  0  0.105385  0.107272  0  1.008912  0
H  H33  1  0.82429887  0.97109254  0.70637832  1  0.07584  0  0.100952  0.098466  0  1.007996  0
H  H34  1  0.79675606  0.00963061  0.62062281  1  0.092087  0  0.109239  0.111691  0  0.992178  0
H  H35  1  0.48449303  0.30978853  0.26875949  1  0.08641  0  0.104976  0.094486  0  0.9973  0
H  H36  1  0.66958964  0.51186907  0.23007984  1  0.095306  0  0.097827  0.088241  0  1.037577  0
H  H37  1  0.22861329  0.02725001  0.20438701  1  0.066673  0  0.105787  0.105637  0  0.979747  0
H  H38  1  0.05198295  0.92025996  0.27369880  1  0.06871  0  0.102809  0.092432  0  0.992586  0
H  H39  1  0.73283028  0.71755825  0.28593540  1  0.070822  0  0.104189  0.10236  0  0.986245  0
H  H40  1  0.07211395  0.62278168  0.31814210  1  0.415337  0  0.302323  0.247468  0  0.953188  0
H  H41  1  0.05772220  0.46103671  0.27718798  1  0.053398  0  0.106357  0.114551  0  0.977332  0
H  H42  1  0.14418803  0.55010222  0.22962522  1  0.027055  0  0.098415  0.102212  0  0.991548  0
H  H43  1  0.99892123  0.51741747  0.23405495  1  0.021712  0  0.084579  0.075488  0  1.035149  0
H  H44  1  0.49993048  0.58355689  0.18021793  1  0.412704  0  0.300629  0.245943  0  0.956029  0
H  H45  1  0.40215527  0.42998414  0.23488652  1  0.08224  0  0.103753  0.108517  0  0.986788  0
H  H46  1  0.38337391  0.54452017  0.25812725  1  0.017138  0  0.089471  0.084923  0  1.002971  0
H  H47  1  0.49106323  0.51921740  0.28342445  1  0.055673  0  0.103676  0.110642  0  0.976599  0
H  H48  1  0.44603208  0.02931600  0.23680759  1  0.397236  0  0.286362  0.222309  0  1.002518  0
H  H49  1  0.54343393  0.00441082  0.29790682  1  -0.001244  0  0.09573  0.097795  0  1.022609  0
H  H50  1  0.46345533  0.76359540  0.26132950  1  0.086952  0  0.100092  0.098005  0  1.021274  0
H  H51  1  0.41622393  0.86792406  0.30284019  1  0.079502  0  0.093127  0.096314  0  1.013624  0
H  H52  1  0.43705978  0.98593758  0.34000432  1  0.061483  0  0.098248  0.111558  0  0.999105  0
H  H53  1  0.59418952  0.93407975  0.19183869  1  0.06384  0  0.100595  0.089505  0  0.991239  0
H  H54  1  0.78448950  0.03184673  0.25809232  1  0.094571  0  0.101533  0.090373  0  0.99203  0
H  H55  1  0.86225971  0.88885505  0.21648747  1  0.077935  0  0.105058  0.096773  0  0.98941  0
H  H56  1  0.76320482  0.20439753  0.62657047  1  0.112643  0  0.111965  0.115136  0  0.997575  0
H  H57  1  0.34873504  0.62869105  0.51197617  1  0.572819  0  0.286831  0.374616  0  0.93673  0
H  H58  1  0.03795266  0.02585363  0.96443669  1  0.574151  0  0.286525  0.373283  0  0.938548  0
C  C59  1  0.60442654  0.89795032  0.42710280  1  1.64817  0  0.274635  0.708616  0  4.170539  0
C  C60  1  0.63630828  0.27029787  0.33952212  1  -0.184552  0  -0.012602  -0.009229  0  4.039126  0
C  C61  1  0.10354947  0.88486772  0.25915318  1  -0.01814  0  -0.071013  -0.063408  0  3.677748  0
C  C62  1  0.59794714  0.19463297  0.42972864  1  1.667398  0  0.280877  0.722458  0  4.149894  0
C  C63  1  0.20209645  0.94477488  0.22168402  1  -0.0257  0  -0.071683  -0.134657  0  3.621995  0
C  C64  1  0.10116607  0.78719041  0.10049927  1  -0.322573  0  -0.04868  -0.210617  0  3.985285  0
C  C65  1  0.21822945  0.88256843  0.38633475  1  0.198147  0  -0.046815  -0.224596  0  3.962107  0
C  C66  1  0.05576435  0.76699900  0.23176379  1  -0.084887  0  -0.077197  -0.148728  0  3.594011  0
C  C67  1  0.15530288  0.82626345  0.19328501  1  0.108994  0  0.00475  0.139647  0  3.835817  0
C  C68  1  0.13803330  0.73824207  0.26357780  1  0.469291  0  0.097009  0.195188  0  3.784043  0
C  C69  1  0.18239806  0.85617154  0.29212311  1  0.097367  0  0.005472  0.014585  0  3.799778  0
C  C70  1  0.62317843  0.24365804  0.38219093  1  -0.129829  0  -0.043463  -0.212073  0  3.953723  0
C  C71  1  0.23495917  0.79724884  0.22535809  1  -0.073898  0  -0.085755  -0.219175  0  3.61829  0
C  C72  1  0.28242855  0.91712425  0.25326688  1  0.445732  0  0.105062  0.207688  0  3.732418  0
C  C73  1  0.13147392  0.80665025  0.14299237  1  0.029685  0  -0.02574  -0.033301  0  4.080123  0
C  C74  1  0.27503697  0.90356842  0.43268356  1  1.669667  0  0.279145  0.708716  0  4.171867  0
C  C75  1  0.19884691  0.87105396  0.34272543  1  -0.489756  0  -0.016479  0.005756  0  4.077014  0
C  C76  1  0.70211531  0.76547848  0.26459536  1  -0.037958  0  -0.071368  -0.137385  0  3.607479  0
C  C77  1  0.59589333  0.71102290  0.22847758  1  0.46572  0  0.099199  0.200089  0  3.732779  0
C  C78  1  0.67612368  0.76791703  0.09733104  1  0.019493  0  -0.043164  -0.207754  0  3.972922  0
C  C79  1  0.63680340  0.87749454  0.38013630  1  -0.097557  0  -0.043991  -0.201708  0  3.972844  0
C  C80  1  0.77401069  0.86108560  0.22717817  1  -0.017521  0  -0.066614  -0.06634  0  3.631727  0
C  C81  1  0.66925637  0.43108900  0.23587944  1  -0.010161  0  -0.067584  -0.069362  0  3.597043  0
C  C82  1  0.66791818  0.80660570  0.19037130  1  0.100805  0  0.007215  0.067286  0  3.816854  0
C  C83  1  0.73051606  0.94018222  0.24910896  1  -0.047883  0  -0.071437  -0.082422  0  3.640293  0
C  C84  1  0.65782047  0.84479828  0.28750741  1  0.141844  0  0.006128  0.126236  0  3.828027  0
C  C85  1  0.62418340  0.88620737  0.21362885  1  -0.032945  0  -0.070391  -0.068645  0  3.655708  0
C  C86  1  0.60229337  0.89299940  0.56516705  1  1.547248  0  0.269306  0.638592  0  4.099981  0
C  C87  1  0.55166977  0.79098056  0.25083811  1  -0.072097  0  -0.08135  -0.162545  0  3.622319  0
C  C88  1  0.67137671  0.78604077  0.14041040  1  -0.309031  0  -0.022317  -0.024242  0  4.09164  0
C  C89  1  0.64971978  0.86278640  0.33751100  1  -0.215637  0  -0.024243  -0.034817  0  4.081517  0
C  C90  1  0.62878298  0.24579121  0.61640148  1  0.008008  0  -0.013883  -0.051949  0  3.973498  0
C  C91  1  0.71279269  0.23752463  0.64394453  1  -0.030145  0  -0.073529  -0.073154  0  3.964968  0
C  C92  1  0.68250789  0.35798673  0.19318780  1  0.094071  0  0.008335  0.115976  0  3.780938  0
C  C93  1  0.72804632  0.26713422  0.69297942  1  -0.027775  0  -0.086499  -0.131483  0  3.97548  0
C  C94  1  0.66126775  0.30725946  0.71607704  1  -0.040297  0  0.003417  0.080124  0  3.980943  0
C  C95  1  0.57792569  0.31612617  0.68791534  1  -0.021441  0  -0.086304  -0.131801  0  3.973957  0
C  C96  1  0.56123822  0.28520806  0.63897186  1  -0.036484  0  -0.074671  -0.0763  0  3.972764  0
C  C97  1  0.58698353  0.32533965  0.79733923  1  -0.067793  0  -0.086518  -0.132464  0  3.973679  0
C  C98  1  0.60522543  0.20225353  0.56545052  1  1.538832  0  0.278204  0.64523  0  4.082806  0
C  C99  1  0.60447597  0.35806415  0.84607963  1  0.02904  0  -0.074427  -0.076243  0  3.972364  0
C  C100  1  0.80598354  0.41591606  0.83915056  1  -0.059482  0  -0.073443  -0.07326  0  3.963885  0
C  C101  1  0.78831113  0.38475621  0.79026748  1  -0.048791  0  -0.086571  -0.131358  0  3.973837  0
C  C102  1  0.67864241  0.33895398  0.76823226  1  -0.054263  0  0.002571  0.07908  0  3.981224  0
C  C103  1  0.56561872  0.31902716  0.25623335  1  -0.027135  0  -0.068801  -0.077496  0  3.629722  0
C  C104  1  0.71430522  0.40364605  0.86752062  1  -0.037008  0  -0.013937  -0.052109  0  3.977225  0
C  C105  1  0.25337295  0.88398560  0.61955485  1  -0.051027  0  -0.015084  -0.044569  0  3.979995  0
C  C106  1  0.26607671  0.97472310  0.64954204  1  -0.098186  0  -0.081481  -0.083944  0  3.988154  0
C  C107  1  0.23208844  0.95436832  0.69759524  1  -0.03194  0  -0.091406  -0.136021  0  3.991024  0
C  C108  1  0.18254251  0.84282666  0.71668132  1  0.003454  0  -0.002268  0.07444  0  3.997644  0
C  C109  1  0.16853836  0.75217693  0.68588140  1  -0.027303  0  -0.089252  -0.1335  0  3.988277  0
C  C110  1  0.29853495  0.90620483  0.56944695  1  1.536707  0  0.267939  0.634811  0  4.101441  0
C  C111  1  0.20452607  0.77246209  0.63811455  1  0.029507  0  -0.076011  -0.080028  0  3.973223  0
C  C112  1  0.15310669  0.73655722  0.79457292  1  0.009073  0  -0.09003  -0.135893  0  3.98442  0
C  C113  1  0.11861629  0.71692136  0.84260941  1  -0.025593  0  -0.079771  -0.083231  0  3.988569  0
C  C114  1  0.65089607  0.30022057  0.28989538  1  0.126289  0  0.010227  0.113736  0  3.777938  0
C  C115  1  0.07178686  0.86935131  0.83888897  1  -0.009172  0  -0.077515  -0.078877  0  3.976105  0
C  C116  1  0.10478421  0.88752707  0.79075953  1  -0.012277  0  -0.089819  -0.134539  0  3.988391  0
C  C117  1  0.14660196  0.82198043  0.76768548  1  -0.057164  0  -0.001169  0.077592  0  3.995125  0
C  C118  1  0.07820187  0.78368799  0.86523473  1  -0.063146  0  -0.016716  -0.050374  0  3.983962  0
C  C119  1  0.62300450  0.86741732  0.61528221  1  0.027529  0  -0.01646  -0.050182  0  3.985321  0
C  C120  1  0.53328989  0.77518315  0.63955946  1  -0.011395  0  -0.076492  -0.0772  0  3.97367  0
C  C121  1  0.54761515  0.75514303  0.68772200  1  -0.031615  0  -0.08941  -0.135101  0  3.987339  0
C  C122  1  0.75547492  0.41296645  0.26792278  1  -0.038134  0  -0.068112  -0.076959  0  3.6226  0
C  C123  1  0.65198421  0.82573061  0.71284598  1  -0.004141  0  -0.00063  0.079318  0  3.996029  0
C  C124  1  0.74180792  0.91722460  0.68789716  1  -0.043417  0  -0.090388  -0.136231  0  3.986799  0
C  C125  1  0.57785069  0.24561922  0.21500900  1  -0.014068  0  -0.067703  -0.081004  0  3.641634  0
C  C126  1  0.72746377  0.93837480  0.63984363  1  -0.101113  0  -0.079587  -0.083036  0  3.990795  0
C  C127  1  0.73525281  0.89660284  0.79616093  1  -0.020364  0  -0.08942  -0.134294  0  3.988465  0
C  C128  1  0.75005220  0.87662756  0.84428734  1  -0.0297  0  -0.076129  -0.079749  0  3.975538  0
C  C129  1  0.62299301  0.67168950  0.83057768  1  -0.031237  0  -0.081265  -0.08472  0  3.986954  0
C  C130  1  0.61059948  0.69195932  0.78218277  1  -0.059116  0  -0.090574  -0.13468  0  3.991313  0
C  C131  1  0.66609054  0.80463153  0.76410276  1  -0.046818  0  -0.002394  0.074433  0  4.000503  0
C  C132  1  0.69355882  0.76394726  0.86185591  1  -0.039818  0  -0.015436  -0.045667  0  3.984072  0
C  C133  1  0.04440038  0.76137354  0.05391266  1  1.66065  0  0.274291  0.709244  0  4.168168  0
C  C134  1  0.76744790  0.33889360  0.22678990  1  -0.045781  0  -0.071547  -0.081896  0  3.641221  0
C  C135  1  0.73598652  0.46180641  0.05323754  1  1.618128  0  0.280838  0.724577  0  4.146426  0
C  C136  1  0.66393255  0.22736240  0.24710717  1  -0.007723  0  -0.068173  -0.076062  0  3.628611  0
C  C137  1  0.70832673  0.74937937  0.05007382  1  1.664444  0  0.27992  0.708611  0  4.17018  0
C  C138  1  0.03493748  0.76147311  0.91561601  1  1.548408  0  0.268708  0.639647  0  4.097182  0
C  C139  1  0.73684415  0.44976919  0.91804986  1  1.540303  0  0.27838  0.645104  0  4.083634  0
C  C140  1  0.71603615  0.74249763  0.91239965  1  1.57051  0  0.268969  0.63681  0  4.100989  0
C  C141  1  0.71291076  0.41415282  0.10097651  1  0.164007  0  -0.045562  -0.213635  0  3.967733  0
C  C142  1  0.07672656  0.53653365  0.25548452  1  0.278281  0  -0.142746  -0.212551  0  4.025944  0
C  C143  1  0.44761641  0.51863426  0.24931708  1  0.233295  0  -0.139126  -0.206675  0  4.003753  0
C  C144  1  0.45037968  0.96170743  0.30358329  1  0.24836  0  -0.148104  -0.21502  0  3.970973  0
C  C145  1  0.69797948  0.38769154  0.14361965  1  -0.400535  0  -0.015396  -0.014806  0  4.054947  0
N  N146  1  0.11783335  0.63758073  0.28711795  1  -1.133229  0  -0.469604  -0.353058  0  3.535545  0
N  N147  1  0.53312155  0.59364930  0.21453183  1  -1.139682  0  -0.467732  -0.359853  0  3.516425  0
N  N148  1  0.39659491  0.99948631  0.26689129  1  -1.121452  0  -0.474384  -0.35696  0  3.481549  0
O  O149  1  0.29998245  0.82933655  0.44689965  1  -1.218104  0  -0.19916  -0.529554  0  2.282711  0
O  O150  1  0.66013615  0.48138330  0.03411722  1  -1.243635  0  -0.231146  -0.593279  0  2.247826  0
O  O151  1  0.63635376  0.65666456  0.02656939  1  -1.260729  0  -0.245444  -0.610696  0  2.233801  0
O  O152  1  0.50262597  0.82991417  0.43992592  1  -1.209968  0  -0.205848  -0.548852  0  2.287073  0
O  O153  1  0.80455864  0.82070050  0.93395248  1  -1.245893  0  -0.217275  -0.572125  0  2.359733  0
O  O154  1  0.01180821  0.83318187  0.93512335  1  -1.255913  0  -0.222589  -0.588578  0  2.369725  0
O  O155  1  0.01980867  0.66824939  0.93555261  1  -1.269229  0  -0.248832  -0.612322  0  2.284524  0
O  O156  1  0.83508943  0.47895479  0.93737830  1  -1.26426  0  -0.233818  -0.595028  0  2.300047  0
O  O157  1  0.65939467  0.46390455  0.93853488  1  -1.264954  0  -0.235202  -0.598126  0  2.300403  0
O  O158  1  0.64510251  0.64294571  0.93009665  1  -1.281343  0  -0.25204  -0.618592  0  2.285727  0
O  O159  1  0.83639019  0.66980366  0.98465907  1  -1.609547  0  -0.391408  -1.26695  0  2.290374  0
O  O160  1  0.67545322  0.17599911  0.54589879  1  -1.262609  0  -0.233636  -0.596993  0  2.305636  0
O  O161  1  0.68125961  0.98703974  0.45132457  1  -1.257971  0  -0.247408  -0.613966  0  2.233767  0
O  O162  1  0.67078060  0.17119456  0.44916788  1  -1.238415  0  -0.231004  -0.594662  0  2.244142  0
O  O163  1  0.50228813  0.17342688  0.44825062  1  -1.242082  0  -0.229238  -0.589764  0  2.244392  0
O  O164  1  0.30124043  0.99941630  0.45475786  1  -1.249802  0  -0.244416  -0.608964  0  2.233043  0
O  O165  1  0.31379913  0.83015478  0.54912326  1  -1.239586  0  -0.218059  -0.571329  0  2.358761  0
O  O166  1  0.51011703  0.82056850  0.54362079  1  -1.258533  0  -0.222911  -0.588359  0  2.366855  0
O  O167  1  0.67827182  0.99042676  0.54755041  1  -1.277071  0  -0.248735  -0.612119  0  2.284356  0
O  O168  1  0.51274909  0.18738495  0.54468499  1  -1.263434  0  -0.235329  -0.597451  0  2.293001  0
O  O169  1  0.32263326  0.00383655  0.55090116  1  -1.275137  0  -0.251239  -0.617711  0  2.292436  0
O  O170  1  0.48959038  0.98457444  0.49722639  1  -1.614469  0  -0.391719  -1.268854  0  2.291915  0
O  O171  1  0.80726054  0.82406361  0.03647927  1  -1.212426  0  -0.196404  -0.523047  0  2.284666  0
O  O172  1  0.01133049  0.82894190  0.03903658  1  -1.212472  0  -0.205456  -0.54967  0  2.291135  0
O  O173  1  0.02797813  0.66828212  0.03197623  1  -1.253508  0  -0.247855  -0.613591  0  2.229789  0
O  O174  1  0.83182259  0.48551915  0.03417914  1  -1.240083  0  -0.22933  -0.591454  0  2.242032  0
O  O175  1  0.32197000  0.66845653  0.49124035  1  -1.365949  0  -0.581258  -0.996629  0  1.79922  0
O  O176  1  0.98109012  0.98592591  0.98895117  1  -1.369817  0  -0.58162  -0.995717  0  1.80157  0
