# generated using pymatgen
data_Co3Mo8H24C18(N7O16)2
_symmetry_space_group_name_H-M   'P 1'
_cell_length_a   10.90315163
_cell_length_b   12.18297360
_cell_length_c   12.27593722
_cell_angle_alpha   108.77462495
_cell_angle_beta   112.40847576
_cell_angle_gamma   101.42168433
_symmetry_Int_Tables_number   1
_chemical_formula_structural   Co3Mo8H24C18(N7O16)2
_chemical_formula_sum   'Co3 Mo8 H24 C18 N14 O32'
_cell_volume   1328.04031731
_cell_formula_units_Z   1
loop_
 _symmetry_equiv_pos_site_id
 _symmetry_equiv_pos_as_xyz
  1  'x, y, z'
loop_
 _atom_site_type_symbol
 _atom_site_label
 _atom_site_symmetry_multiplicity
 _atom_site_fract_x
 _atom_site_fract_y
 _atom_site_fract_z
 _atom_site_occupancy
 _atom_site_pbe_bader_charge
 _atom_site_pbe_bader_spin_density
 _atom_site_pbe_cm5_charge
 _atom_site_pbe_ddec_charge
 _atom_site_pbe_ddec_spin_density
 _atom_site_pbe_ddec_sum_bond_order
 _atom_site_pbe_magmom
Co  Co0  1  0.23055994  0.95358424  0.37299634  1  1.330757  2.600262  0.689835  1.018184  2.819686  2.482078  2.584
Co  Co1  1  0.76944394  0.04641956  0.62700586  1  1.330977  2.600377  0.689886  1.018249  2.819801  2.481931  2.585
Co  Co2  1  0.49999629  0.49999915  0.49999832  1  1.259629  2.603602  0.688059  0.80025  2.810313  2.557926  2.582
Mo  Mo3  1  0.59005175  0.92401104  0.92500346  1  2.620422  -0.000444  1.524537  2.20445  -0.000717  4.593729  0.0
Mo  Mo4  1  0.40994561  0.07599382  0.07500172  1  2.620507  -0.000445  1.524614  2.204615  -0.000719  4.593608  0.0
Mo  Mo5  1  0.49100554  0.04140506  0.70264261  1  2.599426  0.011002  1.556861  2.088014  -0.004848  4.607439  0.017
Mo  Mo6  1  0.50900263  0.95859022  0.29735435  1  2.599849  0.010952  1.556913  2.08805  -0.004865  4.607351  0.017
Mo  Mo7  1  0.70305681  0.25500077  0.00350935  1  2.598113  -0.001585  1.498482  2.128282  -0.002488  4.623666  -0.001
Mo  Mo8  1  0.29694491  0.74500492  0.99649270  1  2.597905  -0.001588  1.49853  2.128456  -0.002491  4.623528  -0.001
Mo  Mo9  1  0.23370198  0.82879160  0.75880749  1  2.628483  0.003004  1.525195  2.164292  0.001989  4.644216  0.004
Mo  Mo10  1  0.76629137  0.17120382  0.24118363  1  2.628305  0.002991  1.525193  2.164211  0.00198  4.644337  0.004
H  H11  1  0.34403462  0.72157592  0.57629335  1  0.186127  0.000588  0.135358  0.11064  -5e-06  1.05088  0.0
H  H12  1  0.65596724  0.27842325  0.42370917  1  0.186141  0.000588  0.135365  0.110642  -5e-06  1.050851  0.0
H  H13  1  0.00323643  0.98408093  0.67384979  1  0.633775  0.001719  0.323644  0.432097  0.000903  0.851563  0.003
H  H14  1  0.99676460  0.01591163  0.32614553  1  0.633883  0.001716  0.323662  0.432145  0.000903  0.851541  0.003
H  H15  1  0.87783309  0.89236786  0.53347394  1  0.659049  9.8e-05  0.294421  0.362106  -8.6e-05  0.992088  0.0
H  H16  1  0.12216702  0.10763405  0.46652232  1  0.65919  9.6e-05  0.294346  0.361968  -8.8e-05  0.99228  0.0
H  H17  1  0.90922562  0.18430374  0.87783770  1  0.612986  4e-05  0.310287  0.406747  -0.000136  0.894149  0.0
H  H18  1  0.09078474  0.81569435  0.12216333  1  0.612921  3.2e-05  0.310238  0.406663  -0.000144  0.894305  0.0
H  H19  1  0.81511075  0.05879618  0.85352865  1  0.639228  0.000162  0.294959  0.407914  0.000228  0.916003  0.0
H  H20  1  0.18488304  0.94120492  0.14646926  1  0.639215  0.00017  0.294973  0.408002  0.000237  0.915883  0.0
H  H21  1  0.37402358  0.46755678  0.25284500  1  0.605573  0.000761  0.335893  0.413193  0.000191  0.854388  0.0
H  H22  1  0.62597691  0.53244133  0.74714532  1  0.605677  0.000761  0.335932  0.413279  0.000191  0.854245  0.0
H  H23  1  0.36748849  0.33424709  0.24168121  1  0.662084  0.000972  0.295846  0.419847  0.000641  0.898693  0.002
H  H24  1  0.63250863  0.66575017  0.75831177  1  0.662166  0.000973  0.295865  0.419874  0.000641  0.89864  0.002
H  H25  1  0.76314690  0.44940687  0.38269601  1  0.592397  1e-06  0.319472  0.306755  -0.000161  0.982139  0.0
H  H26  1  0.23685438  0.55059313  0.61729761  1  0.592434  1e-06  0.31948  0.30675  -0.000161  0.982221  0.0
H  H27  1  0.92898915  0.45241580  0.31154299  1  0.135097  -3.4e-05  0.110748  0.111902  -0.000159  1.041939  0.0
H  H28  1  0.07101396  0.54759073  0.68845328  1  0.135001  -3.4e-05  0.110707  0.111873  -0.000158  1.041909  0.0
H  H29  1  0.99081926  0.84073980  0.40841780  1  0.161602  0.001891  0.126789  0.107046  0.000693  1.019356  0.001
H  H30  1  0.00918403  0.15926496  0.59158612  1  0.161771  0.001892  0.126791  0.10704  0.000693  1.01927  0.001
H  H31  1  0.11333844  0.47852249  0.23952932  1  0.100033  0.001154  0.115055  0.129649  0.000505  0.984342  0.0
H  H32  1  0.88667340  0.52149067  0.76048582  1  0.100027  0.001155  0.115057  0.129652  0.000505  0.984132  0.0
H  H33  1  0.22979134  0.68853788  0.25745156  1  0.125113  0.001685  0.118996  0.105647  0.000435  1.00373  0.001
H  H34  1  0.77022540  0.31147056  0.74256544  1  0.125338  0.001684  0.119007  0.105664  0.000435  1.0038  0.001
C  C35  1  0.43823902  0.74904601  0.56565357  1  0.992221  -7.5e-05  0.156065  0.191091  -0.000949  3.943614  0.001
C  C36  1  0.56176084  0.25094850  0.43434683  1  0.992253  -7.3e-05  0.156087  0.191141  -0.000949  3.943589  0.001
C  C37  1  0.61257017  0.74868793  0.52655288  1  0.991809  -0.004393  0.227043  0.245886  -0.006075  4.026355  -0.002
C  C38  1  0.38742969  0.25130649  0.47344016  1  0.991314  -0.004392  0.226982  0.245894  -0.006078  4.02631  -0.002
C  C39  1  0.69706351  0.69026754  0.48033971  1  1.052833  -0.002079  0.234262  0.239919  -0.003524  4.074645  -0.001
C  C40  1  0.30293361  0.30972973  0.51965408  1  1.05254  -0.00208  0.234296  0.240021  -0.003525  4.074566  -0.001
C  C41  1  0.83534219  0.63979842  0.40671500  1  0.99788  0.003165  0.252924  0.313006  0.002021  3.955715  0.003
C  C42  1  0.16465573  0.36020076  0.59328373  1  0.998024  0.003168  0.252938  0.313084  0.002022  3.955677  0.003
C  C43  1  0.94317632  0.64462838  0.36418244  1  -0.00069  0.005731  0.006045  -0.021097  0.002913  3.992737  0.005
C  C44  1  0.05682697  0.35537637  0.63582066  1  -0.000746  0.005723  0.005993  -0.02124  0.002909  3.992842  0.005
C  C45  1  0.98031874  0.54220996  0.31781265  1  0.006824  -0.007642  -0.055924  -0.040343  -0.008709  3.897304  -0.005
C  C46  1  0.01968535  0.45779665  0.68219131  1  0.007329  -0.007606  -0.05587  -0.040267  -0.008668  3.896983  -0.005
C  C47  1  0.01419912  0.75804929  0.37146014  1  0.527779  -0.004639  0.065584  0.088686  -0.00564  3.862016  -0.003
C  C48  1  0.98580596  0.24195737  0.62854906  1  0.527615  -0.004613  0.065664  0.088807  -0.005614  3.861915  -0.003
C  C49  1  0.08369321  0.55679861  0.27810559  1  -0.015647  0.005172  -0.076326  -0.115447  0.002574  3.949573  0.004
C  C50  1  0.91631582  0.44320803  0.72190739  1  -0.0163  0.005161  -0.0763  -0.11545  0.002568  3.949081  0.004
C  C51  1  0.14913277  0.67263418  0.28814999  1  0.48965  -0.00463  0.052288  0.100435  -0.005631  3.915372  -0.003
C  C52  1  0.85087882  0.32737154  0.71186603  1  0.490122  -0.00459  0.052275  0.100427  -0.005585  3.915328  -0.003
N  N53  1  0.51496092  0.86694728  0.60259628  1  -0.764625  0.007054  -0.279251  -0.248111  0.002816  3.549356  0.005
N  N54  1  0.48504033  0.13304810  0.39740079  1  -0.764793  0.007076  -0.279326  -0.248281  0.002835  3.54928  0.005
N  N55  1  0.62801451  0.86800091  0.57896528  1  -0.714367  0.045746  -0.224562  -0.224285  0.024571  3.409368  0.042
N  N56  1  0.37197962  0.13199172  0.42102688  1  -0.714059  0.045722  -0.224465  -0.224082  0.024562  3.409188  0.042
N  N57  1  0.88426880  0.22776957  0.66462675  1  -1.246367  0.061814  -0.324753  -0.256426  0.03268  3.557931  0.054
N  N58  1  0.11573942  0.77223519  0.33538375  1  -1.24583  0.061803  -0.324726  -0.256398  0.032673  3.557983  0.054
N  N59  1  0.49574113  0.67126092  0.51747506  1  -1.219228  0.0552  -0.363174  -0.391271  0.029117  3.537388  0.044
N  N60  1  0.50425756  0.32873541  0.48252061  1  -1.219123  0.055197  -0.363196  -0.391349  0.029115  3.537347  0.044
N  N61  1  0.67135348  0.57033401  0.45796260  1  -0.701473  0.051276  -0.220487  -0.245818  0.027787  3.336299  0.045
N  N62  1  0.32864700  0.42966416  0.54203262  1  -0.701486  0.051281  -0.220454  -0.24575  0.027789  3.336239  0.045
N  N63  1  0.79589920  0.73609152  0.44994044  1  -1.192913  0.000455  -0.302892  -0.36501  -0.000459  3.249989  0.0
N  N64  1  0.20409913  0.26390855  0.55005544  1  -1.192535  0.00045  -0.302876  -0.365009  -0.000463  3.250053  0.0
N  N65  1  0.75981359  0.53994243  0.41081584  1  -0.821052  0.004732  -0.236361  -0.107973  0.001707  3.539342  0.003
N  N66  1  0.24018554  0.46005952  0.58918171  1  -0.821005  0.004729  -0.236424  -0.108138  0.001704  3.539366  0.003
O  O67  1  0.66722226  0.04183710  0.87631068  1  -1.105596  0.003166  -0.588071  -0.971922  0.001279  2.087715  0.003
O  O68  1  0.33276955  0.95816408  0.12369228  1  -1.105722  0.003162  -0.588069  -0.971984  0.00128  2.087633  0.003
O  O69  1  0.42628447  0.87120121  0.94691387  1  -1.145584  0.001008  -0.614244  -1.044374  0.000443  2.211093  0.001
O  O70  1  0.57371042  0.12878873  0.05308749  1  -1.145772  0.001004  -0.614172  -1.044295  0.000441  2.211086  0.001
O  O71  1  0.60255188  0.78792306  0.83702328  1  -0.88478  0.001123  -0.521721  -0.702185  0.00036  1.698184  0.001
O  O72  1  0.39743872  0.21207540  0.16298495  1  -0.884874  0.001123  -0.52178  -0.702298  0.000359  1.698231  0.001
O  O73  1  0.40528962  0.92519738  0.76541828  1  -1.108417  0.006355  -0.613955  -0.980997  0.002628  2.248253  0.006
O  O74  1  0.59470193  0.07479628  0.23457902  1  -1.108468  0.00633  -0.613935  -0.98094  0.002612  2.24822  0.006
O  O75  1  0.72420053  0.97968002  0.08648592  1  -0.899387  6.3e-05  -0.542918  -0.733753  -6e-05  1.807906  0.0
O  O76  1  0.27579062  0.02031278  0.91351667  1  -0.899374  6.1e-05  -0.542929  -0.733768  -6.2e-05  1.80776  0.0
O  O77  1  0.32900523  0.00910245  0.57067902  1  -0.868034  0.052866  -0.511931  -0.704425  0.028246  1.988956  0.044
O  O78  1  0.67100238  0.99089853  0.42932602  1  -0.868214  0.052827  -0.512005  -0.704445  0.028222  1.988864  0.044
O  O79  1  0.62014839  0.09846202  0.66034955  1  -0.895645  0.079171  -0.522498  -0.762997  0.042259  2.084361  0.064
O  O80  1  0.37986361  0.90154452  0.33965790  1  -0.895949  0.079171  -0.522514  -0.763127  0.042261  2.08445  0.064
O  O81  1  0.52211820  0.18642672  0.83905421  1  -0.974337  -0.002065  -0.575319  -0.788907  -0.003213  1.900409  -0.001
O  O82  1  0.47788407  0.81357330  0.16094138  1  -0.974265  -0.002057  -0.575342  -0.788929  -0.003209  1.900538  -0.001
O  O83  1  0.82094854  0.30324033  0.95131944  1  -0.838502  -0.000582  -0.518981  -0.68452  -0.001035  1.650789  -0.001
O  O84  1  0.17905061  0.69676633  0.04868284  1  -0.838469  -0.000589  -0.519017  -0.684607  -0.001041  1.65078  -0.001
O  O85  1  0.68597038  0.38655652  0.09075439  1  -0.789723  0.000353  -0.515065  -0.643047  0.000127  1.593682  0.0
O  O86  1  0.31402458  0.61344272  0.90924579  1  -0.789596  0.000364  -0.515047  -0.643068  0.000133  1.593616  0.0
O  O87  1  0.83806038  0.22919525  0.14342525  1  -0.987485  0.000381  -0.583746  -0.825765  0.000218  1.924815  0.0
O  O88  1  0.16193831  0.77080106  0.85656878  1  -0.987468  0.000381  -0.583708  -0.825739  0.000217  1.924697  0.0
O  O89  1  0.21825093  0.68350430  0.65282777  1  -0.941209  -0.000927  -0.536157  -0.759301  -0.001156  1.842923  -0.001
O  O90  1  0.78173727  0.31648834  0.34715829  1  -0.941078  -0.000929  -0.536126  -0.759216  -0.001158  1.842972  -0.001
O  O91  1  0.10057220  0.86180444  0.66073750  1  -0.827977  0.003305  -0.510592  -0.667081  0.001635  1.738903  0.002
O  O92  1  0.89941757  0.13818732  0.33925452  1  -0.827837  0.003302  -0.510624  -0.667131  0.001634  1.738788  0.002
O  O93  1  0.91983390  0.98147595  0.60219546  1  -1.235673  0.078205  -0.559061  -0.736628  0.040737  2.206776  0.063
O  O94  1  0.08017273  0.01852495  0.39780189  1  -1.235905  0.078166  -0.559054  -0.736625  0.040717  2.206952  0.063
O  O95  1  0.88692994  0.09475511  0.83036982  1  -1.189144  0.071978  -0.563131  -0.733131  0.036657  2.042937  0.061
O  O96  1  0.11306103  0.90523943  0.16962266  1  -1.189089  0.071989  -0.563137  -0.733134  0.036664  2.04286  0.061
O  O97  1  0.35730018  0.41217135  0.29206220  1  -1.211701  0.065627  -0.553605  -0.741194  0.033784  2.078522  0.052
O  O98  1  0.64269420  0.58782871  0.70792744  1  -1.211878  0.065626  -0.553625  -0.741271  0.033786  2.078397  0.052
