# generated using pymatgen
data_ZnCo2H16(C3O)8
_symmetry_space_group_name_H-M   'P 1'
_cell_length_a   10.28936230
_cell_length_b   10.28931175
_cell_length_c   15.05690000
_cell_angle_alpha   109.93674313
_cell_angle_beta   109.93664104
_cell_angle_gamma   90.01550666
_symmetry_Int_Tables_number   1
_chemical_formula_structural   ZnCo2H16(C3O)8
_chemical_formula_sum   'Zn2 Co4 H32 C48 O16'
_cell_volume   1396.43671643
_cell_formula_units_Z   2
loop_
 _symmetry_equiv_pos_site_id
 _symmetry_equiv_pos_as_xyz
  1  'x, y, z'
loop_
 _atom_site_type_symbol
 _atom_site_label
 _atom_site_symmetry_multiplicity
 _atom_site_fract_x
 _atom_site_fract_y
 _atom_site_fract_z
 _atom_site_occupancy
 _atom_site_hle17_bader_spin_density
 _atom_site_hle17_ddec_charge
 _atom_site_hle17_ddec_spin_density
 _atom_site_hle17_ddec_sum_bond_order
 _atom_site_hle17_magmom
 _atom_site_hse06_10hf_bader_spin_density
 _atom_site_hse06_10hf_ddec_charge
 _atom_site_hse06_10hf_ddec_spin_density
 _atom_site_hse06_10hf_ddec_sum_bond_order
 _atom_site_hse06_10hf_magmom
 _atom_site_hse06_bader_spin_density
 _atom_site_hse06_ddec_charge
 _atom_site_hse06_ddec_spin_density
 _atom_site_hse06_ddec_sum_bond_order
 _atom_site_hse06_magmom
 _atom_site_pbe_bader_charge
 _atom_site_pbe_bader_spin_density
 _atom_site_pbe_cm5_charge
 _atom_site_pbe_ddec_charge
 _atom_site_pbe_ddec_spin_density
 _atom_site_pbe_ddec_sum_bond_order
 _atom_site_pbe_magmom
Zn  Zn0  1  0.87496549  0.62508628  0.74997869  1  0  1.136584  0  1.723564  0  0  0.961575  0  2.201197  0  0  1.014293  0  2.13597  0  1.315153  0  0.675164  0.924942  0  2.245671  0
Zn  Zn1  1  0.12503531  0.37491410  0.25002158  1  0  1.136591  0  1.723541  0  0  0.961575  0  2.201166  0  0  1.014289  0  2.13595  0  1.315162  0  0.675154  0.924943  0  2.245639  0
Co  Co2  1  0.94025496  0.19025997  0.88049223  1  0  0.215234  0  3.231376  0  0  0.348443  0  3.583161  0  0  0.353311  0  3.572392  0  0.701874  0  0.594684  0.352947  0  3.58566  0
Co  Co3  1  0.69029067  0.44024964  0.38048884  1  0  0.21551  0  3.232101  0  0  0.349009  0  3.583356  0  0  0.353862  0  3.572574  0  0.699221  0  0.595031  0.353537  0  3.585824  0
Co  Co4  1  0.05974377  0.80974040  0.11950690  1  0  0.215285  0  3.231347  0  0  0.348462  0  3.583134  0  0  0.35332  0  3.572366  0  0.701881  0  0.594702  0.352961  0  3.585628  0
Co  Co5  1  0.30970807  0.55975074  0.61951162  1  0  0.215434  0  3.232237  0  0  0.348934  0  3.583485  0  0  0.353786  0  3.572701  0  0.699227  0  0.595025  0.353459  0  3.585945  0
H  H6  1  0.88637683  0.44076486  0.99890704  1  0  0.142593  0  0.928976  0  0  0.153858  0  0.988836  0  0  0.156898  0  0.987287  0  0.163593  0  0.125045  0.151677  0  0.990178  0
H  H7  1  0.11256259  0.05815275  0.99897525  1  0  0.141672  0  0.929352  0  0  0.153431  0  0.988943  0  0  0.156441  0  0.987452  0  0.147966  0  0.124744  0.151276  0  0.990238  0
H  H8  1  0.55815590  0.38638028  0.49895142  1  0  0.142062  0  0.928334  0  0  0.153658  0  0.988008  0  0  0.156741  0  0.986408  0  0.166652  0  0.124861  0.151457  0  0.989366  0
H  H9  1  0.94080460  0.61250623  0.49891559  1  0  0.142259  0  0.929381  0  0  0.153623  0  0.989182  0  0  0.15675  0  0.98753  0  0.144528  0  0.124929  0.15137  0  0.990596  0
H  H10  1  0.11362384  0.55923448  0.00109296  1  0  0.142573  0  0.928958  0  0  0.153859  0  0.9888  0  0  0.156899  0  0.987249  0  0.16359  0  0.125038  0.151679  0  0.990141  0
H  H11  1  0.88743718  0.94184763  0.00102412  1  0  0.141698  0  0.929315  0  0  0.153446  0  0.988923  0  0  0.156457  0  0.987427  0  0.14794  0  0.12475  0.151291  0  0.990216  0
H  H12  1  0.44184490  0.61362010  0.50104952  1  0  0.141994  0  0.928255  0  0  0.153569  0  0.987983  0  0  0.156652  0  0.986385  0  0.166647  0  0.124833  0.151367  0  0.989341  0
H  H13  1  0.05919441  0.38749624  0.50108541  1  0  0.142277  0  0.929331  0  0  0.153624  0  0.989155  0  0  0.156729  0  0.987534  0  0.144498  0  0.124923  0.151368  0  0.990571  0
H  H14  1  0.69612482  0.09244074  0.71009189  1  0  0.141165  0  0.911038  0  0  0.157323  0  0.95853  0  0  0.161166  0  0.956194  0  0.119976  0  0.127763  0.154628  0  0.960316  0
H  H15  1  0.01394300  0.11774269  0.70999448  1  0  0.141101  0  0.911724  0  0  0.157397  0  0.959112  0  0  0.161176  0  0.956843  0  0.110437  0  0.127555  0.154747  0  0.960831  0
H  H16  1  0.61777541  0.19611196  0.21000694  1  0  0.141512  0  0.910897  0  0  0.157793  0  0.958279  0  0  0.161561  0  0.956028  0  0.110757  0  0.127765  0.15516  0  0.959979  0
H  H17  1  0.59242377  0.51401429  0.21009041  1  0  0.141658  0  0.910148  0  0  0.15762  0  0.957958  0  0  0.161382  0  0.955712  0  0.11941  0  0.127674  0.154971  0  0.959693  0
H  H18  1  0.30387392  0.90755963  0.28990790  1  0  0.141128  0  0.911018  0  0  0.15729  0  0.958506  0  0  0.161132  0  0.956169  0  0.119986  0  0.127747  0.154597  0  0.960293  0
H  H19  1  0.98605767  0.88225665  0.29000485  1  0  0.14114  0  0.911704  0  0  0.157414  0  0.959113  0  0  0.161191  0  0.956844  0  0.110453  0  0.127556  0.154767  0  0.960831  0
H  H20  1  0.38222553  0.80388946  0.78999361  1  0  0.141508  0  0.910869  0  0  0.157798  0  0.958241  0  0  0.161568  0  0.955989  0  0.110754  0  0.127764  0.155162  0  0.959941  0
H  H21  1  0.40757676  0.48598400  0.78990998  1  0  0.141659  0  0.910139  0  0  0.157612  0  0.957963  0  0  0.161371  0  0.955716  0  0.119404  0  0.127677  0.154961  0  0.959696  0
H  H22  1  0.85336333  0.21348228  0.04144287  1  0  0.146203  0  0.954378  0  0  0.155735  0  1.011204  0  0  0.159878  0  1.0088  0  0.188142  0  0.119218  0.152784  0  1.013148  0
H  H23  1  0.18800806  0.32784268  0.04132387  1  0  0.146746  0  0.953047  0  0  0.156094  0  1.010173  0  0  0.160317  0  1.007651  0  0.201419  0  0.119505  0.153097  0  1.012161  0
H  H24  1  0.82785612  0.35333235  0.54135381  1  0  0.146798  0  0.953345  0  0  0.156261  0  1.010315  0  0  0.160423  0  1.007881  0  0.193334  0  0.119489  0.15329  0  1.012295  0
H  H25  1  0.71353619  0.68803868  0.54142024  1  0  0.146575  0  0.952999  0  0  0.156101  0  1.010023  0  0  0.160288  0  1.007533  0  0.18629  0  0.119299  0.153074  0  1.012083  0
H  H26  1  0.14663734  0.78651706  0.95855647  1  0  0.146194  0  0.954377  0  0  0.155731  0  1.011204  0  0  0.159874  0  1.0088  0  0.188134  0  0.119207  0.152782  0  1.013146  0
H  H27  1  0.81199157  0.67215665  0.95867589  1  0  0.146708  0  0.953062  0  0  0.156059  0  1.010191  0  0  0.160281  0  1.00767  0  0.201574  0  0.119501  0.153064  0  1.012176  0
H  H28  1  0.17214351  0.64666698  0.45864661  1  0  0.146752  0  0.953328  0  0  0.156219  0  1.010314  0  0  0.16038  0  1.007881  0  0.193342  0  0.119482  0.153246  0  1.012297  0
H  H29  1  0.28646372  0.31196274  0.45858140  1  0  0.1466  0  0.952998  0  0  0.156106  0  1.010036  0  0  0.160307  0  1.007529  0  0.186268  0  0.119317  0.15308  0  1.012093  0
H  H30  1  0.73370640  0.99354661  0.86204425  1  0  0.141686  0  0.957459  0  0  0.15306  0  1.013733  0  0  0.156732  0  1.012045  0  0.186791  0  0.117364  0.15071  0  1.014773  0
H  H31  1  0.12827896  0.36855211  0.86191244  1  0  0.141313  0  0.958872  0  0  0.153099  0  1.014721  0  0  0.156694  0  1.013147  0  0.166509  0  0.117299  0.150742  0  1.015767  0
H  H32  1  0.86855394  0.23366543  0.36195625  1  0  0.141453  0  0.958432  0  0  0.152811  0  1.014765  0  0  0.156459  0  1.013094  0  0.195731  0  0.117248  0.150478  0  1.015797  0
H  H33  1  0.49359555  0.62835071  0.36205463  1  0  0.141716  0  0.957963  0  0  0.153118  0  1.01421  0  0  0.156777  0  1.012534  0  0.182916  0  0.117462  0.150776  0  1.015247  0
H  H34  1  0.26629337  0.00645377  0.13795579  1  0  0.141673  0  0.957418  0  0  0.153045  0  1.013695  0  0  0.156717  0  1.012007  0  0.18677  0  0.117337  0.150696  0  1.014735  0
H  H35  1  0.87172170  0.63144723  0.13808623  1  0  0.141301  0  0.958887  0  0  0.15309  0  1.014732  0  0  0.156686  0  1.013155  0  0.166507  0  0.117297  0.150734  0  1.015778  0
H  H36  1  0.13144700  0.76633599  0.63804563  1  0  0.141455  0  0.958425  0  0  0.152802  0  1.01477  0  0  0.156451  0  1.013101  0  0.195726  0  0.117255  0.150469  0  1.015802  0
H  H37  1  0.50640409  0.37164863  0.63794513  1  0  0.141733  0  0.957935  0  0  0.153128  0  1.014195  0  0  0.156787  0  1.012519  0  0.182926  0  0.117468  0.150785  0  1.015233  0
C  C38  1  0.78834442  0.39105269  0.77639921  1  0  0.642131  0  3.957731  0  0  0.59535  0  4.253986  0  0  0.629624  0  4.247235  0  1.610132  0  0.200582  0.572308  0  4.257864  0
C  C39  1  0.98815793  0.88550648  0.77645164  1  0  0.644212  0  3.957327  0  0  0.597052  0  4.253145  0  0  0.631363  0  4.246355  0  1.585145  0  0.201287  0.574018  0  4.257062  0
C  C40  1  0.38549670  0.28831700  0.27645189  1  0  0.643585  0  3.95873  0  0  0.596799  0  4.254568  0  0  0.631104  0  4.24779  0  1.607436  0  0.200932  0.573773  0  4.258477  0
C  C41  1  0.89100998  0.48812100  0.27637007  1  0  0.643438  0  3.95771  0  0  0.596533  0  4.254015  0  0  0.63079  0  4.247195  0  1.596878  0  0.201169  0.573513  0  4.257943  0
C  C42  1  0.21165639  0.60894769  0.22360040  1  0  0.642086  0  3.957573  0  0  0.595312  0  4.253824  0  0  0.629586  0  4.247074  0  1.610138  0  0.200534  0.572271  0  4.257703  0
C  C43  1  0.01184052  0.11449181  0.22354760  1  0  0.644267  0  3.957205  0  0  0.597114  0  4.253022  0  0  0.631428  0  4.246231  0  1.585097  0  0.201313  0.574071  0  4.256937  0
C  C44  1  0.61450410  0.71168338  0.72354905  1  0  0.643563  0  3.958801  0  0  0.596767  0  4.254663  0  0  0.631069  0  4.247885  0  1.607416  0  0.200904  0.573741  0  4.258571  0
C  C45  1  0.10899083  0.51187938  0.72363087  1  0  0.643495  0  3.957735  0  0  0.596582  0  4.25403  0  0  0.630838  0  4.247209  0  1.59685  0  0.201222  0.573563  0  4.257956  0
C  C46  1  0.78418978  0.29994171  0.83493071  1  0  -0.067553  0  3.677143  0  0  -0.059353  0  3.93366  0  0  -0.066596  0  3.950998  0  -0.112117  0  -0.055288  -0.055718  0  3.922903  0
C  C47  1  0.05083655  0.03505769  0.83493666  1  0  -0.067551  0  3.678137  0  0  -0.058162  0  3.932797  0  0  -0.065437  0  3.950182  0  -0.155825  0  -0.054944  -0.054627  0  3.922194  0
C  C48  1  0.53507374  0.28412852  0.33493154  1  0  -0.067092  0  3.67603  0  0  -0.058423  0  3.931827  0  0  -0.065688  0  3.949197  0  -0.103481  0  -0.055263  -0.054892  0  3.921225  0
C  C49  1  0.79997842  0.55085230  0.33491992  1  0  -0.06828  0  3.679163  0  0  -0.060067  0  3.935437  0  0  -0.067209  0  3.952656  0  -0.118618  0  -0.055507  -0.056534  0  3.924818  0
C  C50  1  0.21581206  0.70005867  0.16507047  1  0  -0.067614  0  3.677199  0  0  -0.059416  0  3.933729  0  0  -0.066659  0  3.951069  0  -0.112104  0  -0.055283  -0.055781  0  3.922967  0
C  C51  1  0.94916308  0.96494165  0.16506376  1  0  -0.067603  0  3.678087  0  0  -0.058235  0  3.932763  0  0  -0.065516  0  3.950155  0  -0.155862  0  -0.05499  -0.054662  0  3.922109  0
C  C52  1  0.46492720  0.71587291  0.66506968  1  0  -0.067038  0  3.67587  0  0  -0.058382  0  3.931697  0  0  -0.065649  0  3.949073  0  -0.10347  0  -0.055217  -0.054852  0  3.921091  0
C  C53  1  0.20002355  0.44914912  0.66508020  1  0  -0.068317  0  3.679284  0  0  -0.060049  0  3.935479  0  0  -0.067185  0  3.952684  0  -0.118571  0  -0.055521  -0.056516  0  3.924856  0
C  C54  1  0.83558854  0.33887082  0.94337090  1  0  -0.070006  0  3.580261  0  0  -0.111834  0  3.849728  0  0  -0.111455  0  3.863022  0  -0.128208  0  -0.112906  -0.112966  0  3.841562  0
C  C55  1  0.10780343  0.10451392  0.94336086  1  0  -0.070023  0  3.581138  0  0  -0.112569  0  3.850481  0  0  -0.112191  0  3.86391  0  -0.067712  0  -0.112949  -0.113683  0  3.842264  0
C  C56  1  0.60451949  0.33551774  0.44336930  1  0  -0.070238  0  3.57878  0  0  -0.112448  0  3.848248  0  0  -0.112106  0  3.861575  0  -0.139361  0  -0.113568  -0.113526  0  3.840079  0
C  C57  1  0.83891923  0.60776394  0.44335433  1  0  -0.069484  0  3.581624  0  0  -0.111261  0  3.850735  0  0  -0.110988  0  3.86405  0  -0.109189  0  -0.112525  -0.112294  0  3.842561  0
C  C58  1  0.16441315  0.66112851  0.05662934  1  0  -0.069932  0  3.580119  0  0  -0.111768  0  3.849587  0  0  -0.111388  0  3.862882  0  -0.128205  0  -0.112877  -0.112898  0  3.841416  0
C  C59  1  0.89219620  0.89548541  0.05663823  1  0  -0.070085  0  3.581085  0  0  -0.112614  0  3.850413  0  0  -0.112232  0  3.863841  0  -0.067654  0  -0.112957  -0.113734  0  3.842182  0
C  C60  1  0.39547924  0.66448264  0.55663183  1  0  -0.070225  0  3.578588  0  0  -0.112422  0  3.848099  0  0  -0.11208  0  3.861427  0  -0.139327  0  -0.113606  -0.113501  0  3.839929  0
C  C61  1  0.16108274  0.39223748  0.55664580  1  0  -0.069529  0  3.581762  0  0  -0.111311  0  3.850866  0  0  -0.111025  0  3.864194  0  -0.109216  0  -0.112573  -0.112344  0  3.842694  0
C  C62  1  0.73541162  0.15305798  0.79088015  1  0  -0.087707  0  3.619551  0  0  -0.128529  0  3.888024  0  0  -0.129063  0  3.902304  0  -0.105116  0  -0.11701  -0.128791  0  3.878977  0
C  C63  1  0.05545334  0.13790498  0.79079909  1  0  -0.088874  0  3.622117  0  0  -0.130057  0  3.890523  0  0  -0.130518  0  3.904817  0  -0.078332  0  -0.117326  -0.130335  0  3.881488  0
C  C64  1  0.63794543  0.23541967  0.29081681  1  0  -0.088889  0  3.619336  0  0  -0.129924  0  3.887998  0  0  -0.130383  0  3.902286  0  -0.10109  0  -0.116866  -0.130206  0  3.878969  0
C  C65  1  0.65308251  0.55556121  0.29087304  1  0  -0.088668  0  3.619447  0  0  -0.12935  0  3.888081  0  0  -0.129847  0  3.902325  0  -0.103909  0  -0.117328  -0.129626  0  3.879067  0
C  C66  1  0.26458905  0.84694135  0.20911918  1  0  -0.087558  0  3.619578  0  0  -0.12837  0  3.888024  0  0  -0.128903  0  3.902307  0  -0.105116  0  -0.116933  -0.12863  0  3.878977  0
C  C67  1  0.94454498  0.86209227  0.20919988  1  0  -0.088897  0  3.622075  0  0  -0.130048  0  3.890478  0  0  -0.130502  0  3.904767  0  -0.078507  0  -0.117277  -0.130334  0  3.881435  0
C  C68  1  0.36205510  0.76457862  0.70918292  1  0  -0.088882  0  3.619254  0  0  -0.129915  0  3.88791  0  0  -0.130378  0  3.902203  0  -0.101084  0  -0.11686  -0.130196  0  3.878877  0
C  C69  1  0.34691623  0.44443917  0.70912742  1  0  -0.088663  0  3.619493  0  0  -0.129348  0  3.888124  0  0  -0.129839  0  3.902359  0  -0.103846  0  -0.117319  -0.129621  0  3.879103  0
C  C70  1  0.81757502  0.21732346  0.96569981  1  0  -0.053685  0  3.582999  0  0  -0.082815  0  3.848465  0  0  -0.084615  0  3.862431  0  -0.124839  0  -0.1118  -0.082395  0  3.839951  0
C  C71  1  0.14804151  0.24833555  0.96559777  1  0  -0.053149  0  3.58052  0  0  -0.082119  0  3.846307  0  0  -0.08396  0  3.860202  0  -0.118357  0  -0.111798  -0.081668  0  3.83785  0
C  C72  1  0.74835513  0.31755086  0.46563068  1  0  -0.054357  0  3.583049  0  0  -0.083341  0  3.848421  0  0  -0.085129  0  3.862351  0  -0.121091  0  -0.111881  -0.082916  0  3.839922  0
C  C73  1  0.71736492  0.64805932  0.46567134  1  0  -0.052582  0  3.58096  0  0  -0.08178  0  3.846308  0  0  -0.083577  0  3.860228  0  -0.108832  0  -0.111282  -0.081315  0  3.83784  0
C  C74  1  0.18242578  0.78267692  0.03429980  1  0  -0.053723  0  3.583026  0  0  -0.082871  0  3.84852  0  0  -0.08467  0  3.862489  0  -0.124825  0  -0.111815  -0.082447  0  3.839999  0
C  C75  1  0.85195812  0.75166379  0.03440066  1  0  -0.053056  0  3.580491  0  0  -0.082031  0  3.846286  0  0  -0.083871  0  3.86018  0  -0.118407  0  -0.111798  -0.081578  0  3.837825  0
C  C76  1  0.25164464  0.68244952  0.53437002  1  0  -0.054256  0  3.583011  0  0  -0.083251  0  3.8484  0  0  -0.08504  0  3.862333  0  -0.121395  0  -0.111866  -0.082829  0  3.839903  0
C  C77  1  0.28263512  0.35194315  0.53432924  1  0  -0.05257  0  3.581153  0  0  -0.081743  0  3.846489  0  0  -0.08355  0  3.860398  0  -0.108845  0  -0.111272  -0.08128  0  3.838023  0
C  C78  1  0.75606349  0.10209949  0.87145252  1  0  -0.074552  0  3.602755  0  0  -0.103811  0  3.868808  0  0  -0.10653  0  3.884778  0  -0.162777  0  -0.116851  -0.102981  0  3.858784  0
C  C79  1  0.11529984  0.26936870  0.87129688  1  0  -0.073569  0  3.602532  0  0  -0.103389  0  3.86873  0  0  -0.106051  0  3.884759  0  -0.173365  0  -0.116296  -0.102553  0  3.858698  0
C  C80  1  0.76939487  0.25603355  0.37135732  1  0  -0.073616  0  3.602513  0  0  -0.103033  0  3.868658  0  0  -0.105723  0  3.884603  0  -0.164878  0  -0.116618  -0.102222  0  3.858639  0
C  C81  1  0.60213766  0.61540563  0.37144234  1  0  -0.075339  0  3.603216  0  0  -0.104663  0  3.869485  0  0  -0.107363  0  3.88541  0  -0.166465  0  -0.116894  -0.103842  0  3.859465  0
C  C82  1  0.24393628  0.89790088  0.12854752  1  0  -0.074591  0  3.602825  0  0  -0.103842  0  3.868881  0  0  -0.10656  0  3.88485  0  -0.162767  0  -0.116843  -0.103012  0  3.858854  0
C  C83  1  0.88469862  0.73062959  0.12870104  1  0  -0.073607  0  3.602566  0  0  -0.103427  0  3.868774  0  0  -0.106085  0  3.884798  0  -0.173339  0  -0.116323  -0.102591  0  3.858743  0
C  C84  1  0.23060504  0.74396787  0.62864299  1  0  -0.073582  0  3.60249  0  0  -0.102985  0  3.868632  0  0  -0.105675  0  3.884577  0  -0.164629  0  -0.116598  -0.102174  0  3.858611  0
C  C85  1  0.39786107  0.38459475  0.62855679  1  0  -0.075346  0  3.603211  0  0  -0.10468  0  3.869499  0  0  -0.107379  0  3.885426  0  -0.166519  0  -0.116904  -0.10386  0  3.859477  0
O  O86  1  0.97773698  0.81677614  0.83195641  1  0  -0.65297  0  2.047276  0  0  -0.583855  0  2.318925  0  0  -0.614037  0  2.304187  0  -1.165802  0  -0.321505  -0.563076  0  2.328371  0
O  O87  1  0.85412606  0.51520117  0.83192625  1  0  -0.651061  0  2.044948  0  0  -0.582404  0  2.31686  0  0  -0.612573  0  2.302134  0  -1.16199  0  -0.320962  -0.561655  0  2.326341  0
O  O88  1  0.01514398  0.47777286  0.33189942  1  0  -0.651943  0  2.044948  0  0  -0.583287  0  2.317125  0  0  -0.613568  0  2.302626  0  -1.166151  0  -0.321234  -0.562454  0  2.326448  0
O  O89  1  0.31680278  0.35414168  0.33197683  1  0  -0.651943  0  2.04662  0  0  -0.583451  0  2.318629  0  0  -0.613741  0  2.304101  0  -1.174749  0  -0.321057  -0.562612  0  2.327939  0
O  O90  1  0.02226279  0.18322424  0.16804296  1  0  -0.653001  0  2.047182  0  0  -0.58389  0  2.318836  0  0  -0.614075  0  2.3041  0  -1.165772  0  -0.321523  -0.563109  0  2.328285  0
O  O91  1  0.14587267  0.48479921  0.16807421  1  0  -0.651052  0  2.044924  0  0  -0.582416  0  2.31687  0  0  -0.612584  0  2.302142  0  -1.161988  0  -0.320968  -0.561664  0  2.326348  0
O  O92  1  0.98485799  0.52222856  0.66810270  1  0  -0.651971  0  2.04495  0  0  -0.58335  0  2.317173  0  0  -0.613633  0  2.302676  0  -1.166113  0  -0.321309  -0.56252  0  2.326496  0
O  O93  1  0.68319726  0.64586078  0.66802442  1  0  -0.651925  0  2.046673  0  0  -0.583428  0  2.318675  0  0  -0.613721  0  2.304166  0  -1.174729  0  -0.321041  -0.562592  0  2.327986  0
O  O94  1  0.73019615  0.34240538  0.68209031  1  0  -0.600672  0  1.891682  0  0  -0.560948  0  2.105797  0  0  -0.58345  0  2.09773  0  -1.151428  0  -0.321395  -0.545088  0  2.110611  0
O  O95  1  0.95210007  0.83998280  0.68213031  1  0  -0.601071  0  1.889515  0  0  -0.561632  0  2.104029  0  0  -0.58409  0  2.095859  0  -1.133239  0  -0.321557  -0.545782  0  2.108859  0
O  O96  1  0.33992938  0.23013817  0.18214624  1  0  -0.601279  0  1.891073  0  0  -0.561765  0  2.10536  0  0  -0.58421  0  2.097151  0  -1.147814  0  -0.321638  -0.545915  0  2.110203  0
O  O97  1  0.84230779  0.45197760  0.18205394  1  0  -0.601053  0  1.891129  0  0  -0.561429  0  2.10548  0  0  -0.583884  0  2.097324  0  -1.135538  0  -0.321794  -0.545568  0  2.110303  0
O  O98  1  0.26980493  0.65759709  0.31791051  1  0  -0.600663  0  1.89151  0  0  -0.560941  0  2.10563  0  0  -0.583442  0  2.097563  0  -1.151428  0  -0.321374  -0.545079  0  2.110447  0
O  O99  1  0.04789956  0.16001654  0.31787077  1  0  -0.601067  0  1.889448  0  0  -0.561627  0  2.103957  0  0  -0.584085  0  2.09578  0  -1.133201  0  -0.321548  -0.545777  0  2.108792  0
O  O100  1  0.66007245  0.76986220  0.81785361  1  0  -0.601299  0  1.891116  0  0  -0.561778  0  2.105402  0  0  -0.584224  0  2.097201  0  -1.147843  0  -0.321641  -0.545928  0  2.110243  0
O  O101  1  0.15769094  0.54802278  0.81794652  1  0  -0.601058  0  1.89115  0  0  -0.56144  0  2.105512  0  0  -0.583895  0  2.097356  0  -1.135538  0  -0.321794  -0.54558  0  2.110335  0
