# generated using pymatgen
data_CuH7C4NClO
_symmetry_space_group_name_H-M   'P 1'
_cell_length_a   7.36644587
_cell_length_b   7.37275590
_cell_length_c   7.41195693
_cell_angle_alpha   105.14212728
_cell_angle_beta   113.29922874
_cell_angle_gamma   109.93230181
_symmetry_Int_Tables_number   1
_chemical_formula_structural   CuH7C4NClO
_chemical_formula_sum   'Cu2 H14 C8 N2 Cl2 O2'
_cell_volume   308.85290727
_cell_formula_units_Z   2
loop_
 _symmetry_equiv_pos_site_id
 _symmetry_equiv_pos_as_xyz
  1  'x, y, z'
loop_
 _atom_site_type_symbol
 _atom_site_label
 _atom_site_symmetry_multiplicity
 _atom_site_fract_x
 _atom_site_fract_y
 _atom_site_fract_z
 _atom_site_occupancy
 _atom_site_hle17_bader_spin_density
 _atom_site_hle17_ddec_charge
 _atom_site_hle17_ddec_spin_density
 _atom_site_hle17_ddec_sum_bond_order
 _atom_site_hle17_magmom
 _atom_site_hse06_10hf_bader_spin_density
 _atom_site_hse06_10hf_ddec_charge
 _atom_site_hse06_10hf_ddec_spin_density
 _atom_site_hse06_10hf_ddec_sum_bond_order
 _atom_site_hse06_10hf_magmom
 _atom_site_hse06_bader_spin_density
 _atom_site_hse06_ddec_charge
 _atom_site_hse06_ddec_spin_density
 _atom_site_hse06_ddec_sum_bond_order
 _atom_site_hse06_magmom
 _atom_site_pbe_bader_spin_density
 _atom_site_pbe_cm5_charge
 _atom_site_pbe_ddec_charge
 _atom_site_pbe_ddec_spin_density
 _atom_site_pbe_ddec_sum_bond_order
 _atom_site_pbe_magmom
Cu  Cu0  1  0.16243064  0.58697604  0.74859326  1  0  0.378599  0  2.321271  0  0  0.303803  0  2.80368  0  0  0.295898  0  2.763759  0  0  0.437127  0.309413  0  2.829634  0
Cu  Cu1  1  0.83757082  0.41299815  0.25138533  1  0  0.378532  0  2.321429  0  0  0.303696  0  2.803882  0  0  0.295846  0  2.763961  0  0  0.437068  0.309303  0  2.829856  0
H  H2  1  0.37813242  0.18009319  0.85890319  1  0  0.051537  0  0.950226  0  0  0.065116  0  1.026097  0  0  0.064804  0  1.025951  0  0  0.090713  0.065203  0  1.026334  0
H  H3  1  0.32044484  0.51957224  0.14017576  1  0  0.051603  0  0.949716  0  0  0.065328  0  1.025476  0  0  0.064973  0  1.025409  0  0  0.090783  0.065429  0  1.025657  0
H  H4  1  0.62187135  0.81992082  0.14110070  1  0  0.05153  0  0.950207  0  0  0.065084  0  1.026078  0  0  0.064773  0  1.025931  0  0  0.090707  0.065171  0  1.026312  0
H  H5  1  0.67955183  0.48043349  0.85982715  1  0  0.051635  0  0.94976  0  0  0.065354  0  1.025508  0  0  0.064999  0  1.025445  0  0  0.09082  0.065455  0  1.025691  0
H  H6  1  0.12047442  0.18441280  0.79753526  1  0  0.080026  0  0.94448  0  0  0.097047  0  1.006056  0  0  0.096891  0  1.00717  0  0  0.104826  0.097117  0  1.005327  0
H  H7  1  0.38491625  0.32276650  0.20092766  1  0  0.079868  0  0.942894  0  0  0.096777  0  1.005032  0  0  0.096636  0  1.006032  0  0  0.104713  0.09684  0  1.004308  0
H  H8  1  0.87952435  0.81558834  0.20245911  1  0  0.080034  0  0.944513  0  0  0.097045  0  1.006086  0  0  0.096891  0  1.007194  0  0  0.104835  0.097116  0  1.005355  0
H  H9  1  0.61507868  0.67723286  0.79906877  1  0  0.079864  0  0.942869  0  0  0.09677  0  1.004998  0  0  0.096631  0  1.006001  0  0  0.104711  0.096834  0  1.004273  0
H  H10  1  0.07938045  0.15986541  0.44894789  1  0  0.091772  0  0.978562  0  0  0.111035  0  1.045964  0  0  0.11137  0  1.046669  0  0  0.090118  0.11077  0  1.045392  0
H  H11  1  0.70966209  0.62993393  0.55046042  1  0  0.091639  0  0.978344  0  0  0.111013  0  1.045602  0  0  0.111329  0  1.046333  0  0  0.090136  0.110766  0  1.045005  0
H  H12  1  0.92062061  0.84013732  0.55105186  1  0  0.091787  0  0.978558  0  0  0.111048  0  1.045945  0  0  0.111381  0  1.046652  0  0  0.090104  0.110782  0  1.045372  0
H  H13  1  0.29033585  0.37006553  0.44953587  1  0  0.091653  0  0.978318  0  0  0.111045  0  1.045567  0  0  0.111359  0  1.046298  0  0  0.09016  0.110795  0  1.044973  0
H  H14  1  0.35406134  0.18153798  0.53558667  1  0  0.095338  0  0.953312  0  0  0.112951  0  1.021629  0  0  0.11305  0  1.023061  0  0  0.087135  0.11275  0  1.020793  0
H  H15  1  0.64593697  0.81847102  0.46441642  1  0  0.095388  0  0.953241  0  0  0.112956  0  1.021592  0  0  0.113055  0  1.023027  0  0  0.087108  0.112756  0  1.020756  0
C  C16  1  0.18142707  0.78512173  0.96577887  1  0  0.159089  0  3.15  0  0  0.100858  0  3.557919  0  0  0.146539  0  3.524835  0  0  0.035819  0.06988  0  3.579905  0
C  C17  1  0.81857463  0.21486161  0.03422796  1  0  0.159084  0  3.150993  0  0  0.100821  0  3.558965  0  0  0.146459  0  3.525899  0  0  0.035818  0.069849  0  3.580963  0
C  C18  1  0.30544824  0.28728690  0.87838297  1  0  -0.036466  0  3.641817  0  0  -0.092097  0  3.89128  0  0  -0.088988  0  3.904517  0  0  -0.081007  -0.094005  0  3.881985  0
C  C19  1  0.40797110  0.42715396  0.12082531  1  0  -0.034224  0  3.638888  0  0  -0.090435  0  3.8893  0  0  -0.08721  0  3.902419  0  0  -0.080666  -0.092429  0  3.880228  0
C  C20  1  0.69454998  0.71271904  0.12161115  1  0  -0.036479  0  3.641924  0  0  -0.092052  0  3.891259  0  0  -0.088938  0  3.904493  0  0  -0.081058  -0.09397  0  3.881982  0
C  C21  1  0.59203089  0.57285355  0.87917881  1  0  -0.034239  0  3.638969  0  0  -0.090412  0  3.889289  0  0  -0.087196  0  3.902418  0  0  -0.08066  -0.092405  0  3.880213  0
C  C22  1  0.26271379  0.27270045  0.53503015  1  0  -0.193503  0  3.652389  0  0  -0.292878  0  3.902716  0  0  -0.289908  0  3.911679  0  0  -0.166817  -0.294631  0  3.89643  0
C  C23  1  0.73728658  0.72730384  0.46497110  1  0  -0.193526  0  3.65234  0  0  -0.29285  0  3.902667  0  0  -0.289883  0  3.911637  0  0  -0.166751  -0.294607  0  3.896376  0
N  N24  1  0.34391570  0.41912736  0.76274829  1  0  -0.153804  0  3.290666  0  0  -0.047534  0  3.534295  0  0  -0.061985  0  3.550746  0  0  -0.369198  -0.037733  0  3.522863  0
N  N25  1  0.65607693  0.58087040  0.23724276  1  0  -0.153735  0  3.290492  0  0  -0.047413  0  3.533953  0  0  -0.061876  0  3.550422  0  0  -0.369067  -0.037606  0  3.522514  0
Cl  Cl26  1  0.21481032  0.71459641  0.49996228  1  0  -0.514911  0  1.163026  0  0  -0.453384  0  1.477992  0  0  -0.468873  0  1.455672  0  0  -0.309039  -0.442585  0  1.492865  0
Cl  Cl27  1  0.78519933  0.28539690  0.50004228  1  0  -0.514928  0  1.163045  0  0  -0.453388  0  1.477979  0  0  -0.468875  0  1.455657  0  0  -0.309038  -0.442589  0  1.492851  0
O  O28  1  0.17865846  0.91378421  0.09204119  1  0  -0.146627  0  2.256669  0  0  -0.087718  0  2.482349  0  0  -0.104655  0  2.474021  0  0  -0.124717  -0.076898  0  2.48811  0
O  O29  1  0.82134259  0.08622128  0.90798360  1  0  -0.146534  0  2.257364  0  0  -0.087586  0  2.483024  0  0  -0.104499  0  2.474692  0  0  -0.124685  -0.076769  0  2.488789  0
