# generated using pymatgen
data_ZnH9C14NO5
_symmetry_space_group_name_H-M   'P 1'
_cell_length_a   7.74672770
_cell_length_b   11.74816321
_cell_length_c   13.92110000
_cell_angle_alpha   90.00000000
_cell_angle_beta   90.00000000
_cell_angle_gamma   92.59148964
_symmetry_Int_Tables_number   1
_chemical_formula_structural   ZnH9C14NO5
_chemical_formula_sum   'Zn4 H36 C56 N4 O20'
_cell_volume   1265.66110301
_cell_formula_units_Z   4
loop_
 _symmetry_equiv_pos_site_id
 _symmetry_equiv_pos_as_xyz
  1  'x, y, z'
loop_
 _atom_site_type_symbol
 _atom_site_label
 _atom_site_symmetry_multiplicity
 _atom_site_fract_x
 _atom_site_fract_y
 _atom_site_fract_z
 _atom_site_occupancy
 _atom_site_hle17_bader_spin_density
 _atom_site_hle17_ddec_charge
 _atom_site_hle17_ddec_spin_density
 _atom_site_hle17_ddec_sum_bond_order
 _atom_site_hle17_magmom
 _atom_site_hse06_10hf_bader_spin_density
 _atom_site_hse06_10hf_ddec_charge
 _atom_site_hse06_10hf_ddec_spin_density
 _atom_site_hse06_10hf_ddec_sum_bond_order
 _atom_site_hse06_10hf_magmom
 _atom_site_hse06_bader_spin_density
 _atom_site_hse06_ddec_charge
 _atom_site_hse06_ddec_spin_density
 _atom_site_hse06_ddec_sum_bond_order
 _atom_site_hse06_magmom
 _atom_site_pbe_bader_charge
 _atom_site_pbe_bader_spin_density
 _atom_site_pbe_cm5_charge
 _atom_site_pbe_ddec_charge
 _atom_site_pbe_ddec_spin_density
 _atom_site_pbe_ddec_sum_bond_order
 _atom_site_pbe_magmom
Zn  Zn0  1  0.84638019  0.44817770  0.44689356  1  0  1.067498  0  1.828086  0  0  0.896893  0  2.28784  0  0  0.948851  0  2.224389  0  1.317392  0  0.685174  0.860573  0  2.33138  0
Zn  Zn1  1  0.65361891  0.05182279  0.94689428  1  0  1.067518  0  1.828057  0  0  0.896915  0  2.287791  0  0  0.94887  0  2.224343  0  1.31739  0  0.685164  0.860596  0  2.331329  0
Zn  Zn2  1  0.15362128  0.55182329  0.55310500  1  0  1.067475  0  1.828159  0  0  0.896846  0  2.287917  0  0  0.948802  0  2.224468  0  1.317361  0  0.685144  0.860526  0  2.331455  0
Zn  Zn3  1  0.34637594  0.94817564  0.05310644  1  0  1.067559  0  1.828054  0  0  0.896911  0  2.28781  0  0  0.948869  0  2.22436  0  1.317434  0  0.685183  0.860592  0  2.331349  0
H  H4  1  0.86525247  0.15746819  0.57397332  1  0  0.118863  0  0.971156  0  0  0.126458  0  1.036939  0  0  0.130857  0  1.033639  0  0.111299  0  0.104647  0.123278  0  1.039361  0
H  H5  1  0.63474140  0.34253146  0.07397045  1  0  0.118856  0  0.971136  0  0  0.126506  0  1.036858  0  0  0.130891  0  1.033574  0  0.111205  0  0.104659  0.123325  0  1.03928  0
H  H6  1  0.13474155  0.84253707  0.42602668  1  0  0.118935  0  0.971119  0  0  0.126463  0  1.036963  0  0  0.130861  0  1.033666  0  0.111331  0  0.104667  0.123282  0  1.039386  0
H  H7  1  0.36525843  0.65746442  0.92602668  1  0  0.118905  0  0.971148  0  0  0.126448  0  1.036977  0  0  0.130847  0  1.033681  0  0.111303  0  0.104644  0.123268  0  1.0394  0
H  H8  1  0.30952098  0.25270642  0.74436647  1  0  0.115674  0  0.952305  0  0  0.119421  0  1.025587  0  0  0.124082  0  1.021323  0  0.135585  0  0.104916  0.116032  0  1.028739  0
H  H9  1  0.19047811  0.24729834  0.24436718  1  0  0.115716  0  0.952187  0  0  0.119438  0  1.025497  0  0  0.1241  0  1.021229  0  0.135639  0  0.104907  0.116049  0  1.028649  0
H  H10  1  0.69047410  0.74729543  0.25563497  1  0  0.115675  0  0.952223  0  0  0.119423  0  1.025494  0  0  0.124084  0  1.021228  0  0.135639  0  0.104901  0.116034  0  1.028645  0
H  H11  1  0.80952600  0.75270351  0.75563497  1  0  0.115682  0  0.952212  0  0  0.119402  0  1.025521  0  0  0.124064  0  1.021256  0  0.135638  0  0.104897  0.116013  0  1.028673  0
H  H12  1  0.68973353  0.80375944  0.47845573  1  0  0.108189  0  0.974484  0  0  0.117926  0  1.034979  0  0  0.120054  0  1.036018  0  0.114676  0  0.107148  0.116369  0  1.034457  0
H  H13  1  0.81027156  0.69623694  0.97845285  1  0  0.108161  0  0.974483  0  0  0.117896  0  1.034989  0  0  0.120028  0  1.036018  0  0.114627  0  0.107108  0.116339  0  1.034467  0
H  H14  1  0.31026777  0.19623900  0.52154284  1  0  0.108147  0  0.974523  0  0  0.117886  0  1.035025  0  0  0.120014  0  1.036064  0  0.114717  0  0.107138  0.116329  0  1.034504  0
H  H15  1  0.18973579  0.30375553  0.02154212  1  0  0.108116  0  0.974554  0  0  0.11787  0  1.035039  0  0  0.120001  0  1.036071  0  0.114605  0  0.107101  0.116312  0  1.034522  0
H  H16  1  0.49292516  0.62913060  0.47064672  1  0  0.098823  0  0.942607  0  0  0.10476  0  1.008877  0  0  0.107829  0  1.005653  0  0.149973  0  0.122541  0.10249  0  1.011263  0
H  H17  1  0.00707593  0.87086834  0.97064815  1  0  0.098807  0  0.942676  0  0  0.104758  0  1.00892  0  0  0.107825  0  1.005703  0  0.14998  0  0.122554  0.10249  0  1.011303  0
H  H18  1  0.50707737  0.37086699  0.52935400  1  0  0.098849  0  0.942631  0  0  0.104784  0  1.008894  0  0  0.107852  0  1.005673  0  0.149985  0  0.122577  0.102514  0  1.011281  0
H  H19  1  0.99292273  0.12912925  0.02935113  1  0  0.098865  0  0.942588  0  0  0.104784  0  1.008868  0  0  0.107851  0  1.005649  0  0.150047  0  0.122545  0.102516  0  1.01125  0
H  H20  1  0.70894455  0.01142794  0.53249671  1  0  0.058252  0  0.932434  0  0  0.070773  0  0.996223  0  0  0.071161  0  0.996086  0  0.061799  0  0.101094  0.07048  0  0.996341  0
H  H21  1  0.79104809  0.48857256  0.03249240  1  0  0.058254  0  0.932533  0  0  0.070807  0  0.996283  0  0  0.071195  0  0.99615  0  0.061773  0  0.10112  0.070504  0  0.996409  0
H  H22  1  0.29105792  0.98856879  0.46750113  1  0  0.05824  0  0.932402  0  0  0.070763  0  0.996171  0  0  0.07115  0  0.996033  0  0.061871  0  0.101073  0.07045  0  0.99631  0
H  H23  1  0.20894945  0.51142759  0.96750400  1  0  0.05827  0  0.93243  0  0  0.070783  0  0.996225  0  0  0.071174  0  0.99609  0  0.061781  0  0.101088  0.07048  0  0.996352  0
H  H24  1  0.60604120  0.05029504  0.64263887  1  0  0.07252  0  0.912878  0  0  0.084189  0  0.976711  0  0  0.08526  0  0.975245  0  0.063468  0  0.106748  0.083358  0  0.977832  0
H  H25  1  0.89395362  0.44969950  0.14263169  1  0  0.072516  0  0.912927  0  0  0.084196  0  0.976746  0  0  0.085269  0  0.975283  0  0.063316  0  0.10674  0.083365  0  0.977864  0
H  H26  1  0.39395505  0.94970511  0.35735538  1  0  0.072513  0  0.912926  0  0  0.084183  0  0.976746  0  0  0.085253  0  0.975279  0  0.063442  0  0.106754  0.083352  0  0.977863  0
H  H27  1  0.10604616  0.55029553  0.85736185  1  0  0.072564  0  0.912869  0  0  0.084216  0  0.976705  0  0  0.08529  0  0.975243  0  0.063346  0  0.106763  0.083385  0  0.977824  0
H  H28  1  0.37725954  0.92354576  0.71005021  1  0  0.111456  0  0.974695  0  0  0.120803  0  1.03589  0  0  0.122765  0  1.037215  0  0.104415  0  0.107818  0.119358  0  1.035154  0
H  H29  1  0.12273850  0.57644636  0.21004806  1  0  0.111445  0  0.974767  0  0  0.120795  0  1.03596  0  0  0.122758  0  1.037281  0  0.104385  0  0.107833  0.119346  0  1.035232  0
H  H30  1  0.62274809  0.07645098  0.28995194  1  0  0.111438  0  0.974678  0  0  0.120782  0  1.035883  0  0  0.122743  0  1.037203  0  0.104385  0  0.107809  0.119332  0  1.035159  0
H  H31  1  0.87725382  0.42355293  0.78995554  1  0  0.111336  0  0.97477  0  0  0.120721  0  1.035941  0  0  0.12268  0  1.037264  0  0.104418  0  0.107771  0.119274  0  1.03521  0
H  H32  1  0.18696964  0.74572933  0.69074498  1  0  0.08955  0  0.927683  0  0  0.099063  0  0.987737  0  0  0.101774  0  0.985251  0  0.104877  0  0.121885  0.097021  0  0.989622  0
H  H33  1  0.31302846  0.75426364  0.19074570  1  0  0.089509  0  0.927719  0  0  0.099053  0  0.987737  0  0  0.101762  0  0.985251  0  0.104892  0  0.121892  0.097011  0  0.989623  0
H  H34  1  0.81303923  0.25426655  0.30925861  1  0  0.089553  0  0.927634  0  0  0.099064  0  0.987689  0  0  0.101774  0  0.985203  0  0.104547  0  0.121874  0.097023  0  0.989574  0
H  H35  1  0.68695887  0.24573820  0.80926004  1  0  0.089538  0  0.927641  0  0  0.099051  0  0.987693  0  0  0.101762  0  0.985206  0  0.104573  0  0.12189  0.097008  0  0.989581  0
H  H36  1  0.03359954  0.93034100  0.79554561  1  0  0.124928  0  0.932949  0  0  0.134688  0  0.995395  0  0  0.13899  0  0.991634  0  0.102131  0  0.112377  0.131585  0  0.998148  0
H  H37  1  0.46640700  0.56966219  0.29554346  1  0  0.124896  0  0.932934  0  0  0.134643  0  0.995409  0  0  0.138945  0  0.991652  0  0.102132  0  0.11234  0.131539  0  0.998164  0
H  H38  1  0.96639184  0.06966340  0.20445511  1  0  0.12497  0  0.932992  0  0  0.134712  0  0.995452  0  0  0.139013  0  0.991692  0  0.102091  0  0.112397  0.13161  0  0.998204  0
H  H39  1  0.53360216  0.43033795  0.70445295  1  0  0.124979  0  0.932928  0  0  0.134713  0  0.995397  0  0  0.139015  0  0.991638  0  0.102107  0  0.112387  0.13161  0  0.99815  0
C  C40  1  0.09082304  0.32642140  0.60233602  1  0  0.651849  0  3.894966  0  0  0.60149  0  4.18364  0  0  0.636359  0  4.176385  0  1.551866  0  0.206921  0.57791  0  4.187737  0
C  C41  1  0.40917195  0.17357995  0.10233602  1  0  0.651885  0  3.895005  0  0  0.601588  0  4.183594  0  0  0.636457  0  4.176338  0  1.552801  0  0.206999  0.578007  0  4.187693  0
C  C42  1  0.90917597  0.67358130  0.39766398  1  0  0.651807  0  3.895122  0  0  0.601521  0  4.183714  0  0  0.636389  0  4.176454  0  1.552661  0  0.206923  0.577944  0  4.187809  0
C  C43  1  0.59082418  0.82641849  0.89766470  1  0  0.651869  0  3.895058  0  0  0.601543  0  4.183688  0  0  0.636413  0  4.176428  0  1.55263  0  0.206939  0.577963  0  4.187786  0
C  C44  1  0.08790354  0.21409494  0.65404745  1  0  -0.050379  0  3.795231  0  0  -0.02378  0  4.03171  0  0  -0.03071  0  4.05396  0  -0.014288  0  -0.024091  -0.019366  0  4.016711  0
C  C45  1  0.41209661  0.28590641  0.15404673  1  0  -0.050432  0  3.795414  0  0  -0.023858  0  4.031899  0  0  -0.030787  0  4.054147  0  -0.014271  0  -0.024129  -0.019445  0  4.016901  0
C  C46  1  0.91209553  0.78590861  0.34595470  1  0  -0.050278  0  3.795148  0  0  -0.023718  0  4.031618  0  0  -0.030646  0  4.053865  0  -0.014276  0  -0.024065  -0.019309  0  4.016617  0
C  C47  1  0.58790486  0.71409459  0.84595542  1  0  -0.050367  0  3.795321  0  0  -0.023775  0  4.031768  0  0  -0.030703  0  4.054016  0  -0.014328  0  -0.02415  -0.019363  0  4.016769  0
C  C48  1  0.95453361  0.13434391  0.63016931  1  0  -0.204833  0  3.730548  0  0  -0.239809  0  3.979768  0  0  -0.24196  0  3.996999  0  -0.024729  0  -0.105932  -0.238094  0  3.968191  0
C  C49  1  0.54546666  0.36565489  0.13016931  1  0  -0.204837  0  3.730556  0  0  -0.239864  0  3.979785  0  0  -0.242005  0  3.997033  0  -0.02469  0  -0.105935  -0.238148  0  3.968206  0
C  C50  1  0.04546792  0.86565794  0.36982997  1  0  -0.204898  0  3.730477  0  0  -0.239792  0  3.979734  0  0  -0.241943  0  3.996967  0  -0.024745  0  -0.105932  -0.238073  0  3.968151  0
C  C51  1  0.45453593  0.63434355  0.86983213  1  0  -0.20488  0  3.73049  0  0  -0.239786  0  3.979759  0  0  -0.24194  0  3.996995  0  -0.024755  0  -0.105896  -0.23807  0  3.968179  0
C  C52  1  0.20768724  0.18994477  0.72536150  1  0  -0.102285  0  3.708703  0  0  -0.145813  0  3.96968  0  0  -0.144028  0  3.986933  0  -0.042169  0  -0.09147  -0.146776  0  3.958081  0
C  C53  1  0.29231308  0.31005914  0.22535935  1  0  -0.102336  0  3.708667  0  0  -0.145839  0  3.969639  0  0  -0.144055  0  3.986895  0  -0.042144  0  -0.091461  -0.146803  0  3.958038  0
C  C54  1  0.79230549  0.81006048  0.27464353  1  0  -0.102306  0  3.708708  0  0  -0.145829  0  3.96969  0  0  -0.144045  0  3.986953  0  -0.042194  0  -0.091459  -0.146788  0  3.958085  0
C  C55  1  0.70768839  0.68994186  0.77464137  1  0  -0.102338  0  3.708598  0  0  -0.145842  0  3.969581  0  0  -0.144057  0  3.986834  0  -0.042165  0  -0.091443  -0.146806  0  3.957979  0
C  C56  1  0.93905368  0.03061652  0.67883429  1  0  0.26817  0  3.828886  0  0  0.263368  0  4.090295  0  0  0.272684  0  4.106537  0  0.459667  0  0.080825  0.25663  0  4.079358  0
C  C57  1  0.56094683  0.46938568  0.17883141  1  0  0.268062  0  3.828848  0  0  0.263286  0  4.090265  0  0  0.27259  0  4.106508  0  0.459904  0  0.080789  0.256552  0  4.079323  0
C  C58  1  0.06094040  0.96938959  0.32116859  1  0  0.268259  0  3.828852  0  0  0.263401  0  4.090307  0  0  0.272714  0  4.106552  0  0.459682  0  0.080862  0.256663  0  4.079369  0
C  C59  1  0.43905834  0.53061276  0.82116715  1  0  0.26825  0  3.828783  0  0  0.263353  0  4.090291  0  0  0.272664  0  4.106536  0  0.459726  0  0.08083  0.256616  0  4.079351  0
C  C60  1  0.58050216  0.79365817  0.52735201  1  0  -0.150794  0  3.679839  0  0  -0.168082  0  3.923666  0  0  -0.176665  0  3.946355  0  -0.028603  0  -0.077864  -0.162636  0  3.908585  0
C  C61  1  0.91950052  0.70634077  0.02735129  1  0  -0.150781  0  3.679803  0  0  -0.168057  0  3.923628  0  0  -0.176641  0  3.946321  0  -0.02851  0  -0.077832  -0.162612  0  3.908548  0
C  C62  1  0.41949937  0.20634368  0.47264584  1  0  -0.150694  0  3.679664  0  0  -0.168001  0  3.923493  0  0  -0.176585  0  3.946187  0  -0.028516  0  -0.077809  -0.162555  0  3.908411  0
C  C63  1  0.08050201  0.29365682  0.97264728  1  0  -0.15073  0  3.679768  0  0  -0.168023  0  3.923581  0  0  -0.176602  0  3.946271  0  -0.028485  0  -0.077838  -0.162579  0  3.9085  0
C  C64  1  0.47147878  0.69662208  0.52225614  1  0  0.147941  0  3.655569  0  0  0.114321  0  3.908431  0  0  0.121928  0  3.926038  0  0.454944  0  0.054648  0.109385  0  3.896575  0
C  C65  1  0.02852349  0.80337516  0.02225686  1  0  0.147925  0  3.655718  0  0  0.114305  0  3.908533  0  0  0.121908  0  3.926145  0  0.454932  0  0.054617  0.109367  0  3.89668  0
C  C66  1  0.52852645  0.30337722  0.47774386  1  0  0.147844  0  3.655615  0  0  0.114246  0  3.90846  0  0  0.121852  0  3.926071  0  0.454893  0  0.054555  0.109308  0  3.896607  0
C  C67  1  0.97147646  0.19662243  0.97774386  1  0  0.147864  0  3.655571  0  0  0.114264  0  3.908405  0  0  0.12187  0  3.926015  0  0.454823  0  0.054648  0.109327  0  3.896553  0
C  C68  1  0.54875005  0.87744205  0.59543571  1  0  0.118919  0  3.734537  0  0  0.132123  0  3.975467  0  0  0.136474  0  3.996491  0  0.013486  0  0.011459  0.129394  0  3.961214  0
C  C69  1  0.95125363  0.62255263  0.09543068  1  0  0.118954  0  3.734386  0  0  0.132106  0  3.975396  0  0  0.136451  0  3.996435  0  0.014018  0  0.011489  0.129379  0  3.961136  0
C  C70  1  0.45125506  0.12255554  0.40456429  1  0  0.118943  0  3.734335  0  0  0.132149  0  3.975254  0  0  0.136493  0  3.996282  0  0.013919  0  0.011489  0.129423  0  3.960993  0
C  C71  1  0.04874884  0.37744410  0.90456645  1  0  0.119032  0  3.734441  0  0  0.132179  0  3.975453  0  0  0.136529  0  3.996479  0  0.013805  0  0.011514  0.129452  0  3.961194  0
C  C72  1  0.66849123  0.98102543  0.60436532  1  0  0.047958  0  3.629132  0  0  -0.015203  0  3.891298  0  0  -0.007062  0  3.89351  0  0.419071  0  -0.056632  -0.020698  0  3.889544  0
C  C73  1  0.83150875  0.51897180  0.10436029  1  0  0.047958  0  3.629248  0  0  -0.015189  0  3.891417  0  0  -0.007066  0  3.893641  0  0.418905  0  -0.056578  -0.02067  0  3.889655  0
C  C74  1  0.33150238  0.01897386  0.39563037  1  0  0.047972  0  3.629138  0  0  -0.015184  0  3.89122  0  0  -0.007033  0  3.893425  0  0.418985  0  -0.056586  -0.020661  0  3.889465  0
C  C75  1  0.16849495  0.48102408  0.89563468  1  0  0.047874  0  3.629299  0  0  -0.015264  0  3.891435  0  0  -0.007139  0  3.893667  0  0.419227  0  -0.056635  -0.020748  0  3.889678  0
C  C76  1  0.40621915  0.86038960  0.65597474  1  0  -0.157476  0  3.702009  0  0  -0.175875  0  3.94809  0  0  -0.184573  0  3.971757  0  -0.061563  0  -0.078496  -0.170322  0  3.93228  0
C  C77  1  0.09378165  0.63960507  0.15597259  1  0  -0.157498  0  3.702024  0  0  -0.175895  0  3.948151  0  0  -0.184586  0  3.971808  0  -0.061869  0  -0.078548  -0.170343  0  3.932341  0
C  C78  1  0.59378989  0.13960884  0.34402597  1  0  -0.157501  0  3.701979  0  0  -0.175899  0  3.948055  0  0  -0.18459  0  3.971714  0  -0.062352  0  -0.07853  -0.170347  0  3.932245  0
C  C79  1  0.90621190  0.36039337  0.84403028  1  0  -0.157485  0  3.701991  0  0  -0.175907  0  3.948089  0  0  -0.184606  0  3.971767  0  -0.061941  0  -0.078484  -0.170355  0  3.932281  0
C  C80  1  0.30126290  0.76187943  0.64623916  1  0  0.142075  0  3.676919  0  0  0.110331  0  3.92788  0  0  0.117311  0  3.946996  0  0.495068  0  0.055708  0.105892  0  3.914868  0
C  C81  1  0.19873543  0.73811695  0.14624060  1  0  0.142066  0  3.676903  0  0  0.110295  0  3.927839  0  0  0.117278  0  3.946952  0  0.495021  0  0.055707  0.105855  0  3.914828  0
C  C82  1  0.69874227  0.23811901  0.35376227  1  0  0.142021  0  3.676868  0  0  0.110288  0  3.927822  0  0  0.117272  0  3.946936  0  0.495856  0  0.055713  0.10585  0  3.91481  0
C  C83  1  0.80125829  0.26188405  0.85376371  1  0  0.142051  0  3.676939  0  0  0.110318  0  3.927883  0  0  0.117299  0  3.946996  0  0.494988  0  0.055642  0.105879  0  3.91487  0
C  C84  1  0.30721101  0.05979048  0.85695383  1  0  0.667766  0  3.875443  0  0  0.615508  0  4.167173  0  0  0.650965  0  4.158761  0  1.572711  0  0.216137  0.591467  0  4.17213  0
C  C85  1  0.19279307  0.44021172  0.35695311  1  0  0.667642  0  3.875573  0  0  0.615461  0  4.167197  0  0  0.650929  0  4.158765  0  1.572808  0  0.216106  0.59142  0  4.172154  0
C  C86  1  0.69278008  0.94020966  0.14304976  1  0  0.667914  0  3.875905  0  0  0.615672  0  4.167584  0  0  0.651142  0  4.159152  0  1.572353  0  0.216221  0.59163  0  4.172542  0
C  C87  1  0.80721098  0.55978928  0.64304545  1  0  0.667706  0  3.875591  0  0  0.615493  0  4.167238  0  0  0.650968  0  4.158793  0  1.572825  0  0.216167  0.59145  0  4.172195  0
C  C88  1  0.18775347  0.08698424  0.77595449  1  0  -0.051588  0  3.781958  0  0  -0.025965  0  4.021878  0  0  -0.032466  0  4.043462  0  -0.039195  0  -0.020653  -0.02191  0  4.007462  0
C  C89  1  0.31224937  0.41301881  0.27595377  1  0  -0.051564  0  3.781865  0  0  -0.025944  0  4.021756  0  0  -0.032448  0  4.043339  0  -0.039346  0  -0.020648  -0.021887  0  4.007336  0
C  C90  1  0.81223925  0.91302101  0.22405054  1  0  -0.051686  0  3.781983  0  0  -0.026029  0  4.021887  0  0  -0.032536  0  4.043471  0  -0.039151  0  -0.020675  -0.021968  0  4.007461  0
C  C91  1  0.68775462  0.58698133  0.72404623  1  0  -0.051529  0  3.781787  0  0  -0.025899  0  4.02168  0  0  -0.032403  0  4.043258  0  -0.03931  0  -0.020646  -0.021838  0  4.007253  0
C  C92  1  0.05302871  0.00826251  0.75382118  1  0  -0.16159  0  3.682072  0  0  -0.200615  0  3.940511  0  0  -0.201531  0  3.956214  0  -0.049266  0  -0.088634  -0.199705  0  3.929989  0
C  C93  1  0.44697420  0.49174140  0.25381902  1  0  -0.161502  0  3.681837  0  0  -0.20052  0  3.940275  0  0  -0.201443  0  3.955992  0  -0.0494  0  -0.088599  -0.199609  0  3.92975  0
C  C94  1  0.94696924  0.99174360  0.24617882  1  0  -0.161675  0  3.681973  0  0  -0.200708  0  3.94047  0  0  -0.201625  0  3.95618  0  -0.049359  0  -0.088698  -0.199799  0  3.929947  0
C  C95  1  0.55303226  0.50825704  0.74618026  1  0  -0.161697  0  3.68196  0  0  -0.200697  0  3.940463  0  0  -0.201615  0  3.956172  0  -0.049202  0  -0.088664  -0.199787  0  3.929939  0
N  N96  1  0.33367540  0.68111869  0.58075008  1  0  -0.316126  0  3.268553  0  0  -0.233961  0  3.541775  0  0  -0.254065  0  3.557092  0  -1.239627  0  -0.322831  -0.220447  0  3.531274  0
N  N97  1  0.16632681  0.81887769  0.08075152  1  0  -0.316057  0  3.268528  0  0  -0.233858  0  3.541693  0  0  -0.253962  0  3.557009  0  -1.239557  0  -0.322814  -0.220345  0  3.531193  0
N  N98  1  0.66632971  0.31887889  0.41925063  1  0  -0.316051  0  3.268551  0  0  -0.233905  0  3.541766  0  0  -0.254015  0  3.557087  0  -1.239652  0  -0.322796  -0.22039  0  3.531264  0
N  N99  1  0.83366944  0.18112246  0.91925207  1  0  -0.316004  0  3.268504  0  0  -0.233837  0  3.54169  0  0  -0.253945  0  3.557012  0  -1.239193  0  -0.32276  -0.220323  0  3.531188  0
O  O100  1  0.97350109  0.33735259  0.53988622  1  0  -0.658516  0  2.124487  0  0  -0.592523  0  2.384405  0  0  -0.620643  0  2.371741  0  -1.184658  0  -0.320433  -0.572952  0  2.392359  0
O  O101  1  0.52649285  0.16264791  0.03988478  1  0  -0.658482  0  2.12441  0  0  -0.59252  0  2.3843  0  0  -0.62064  0  2.371641  0  -1.185045  0  -0.320444  -0.572949  0  2.392254  0
O  O102  1  0.02650068  0.66265267  0.46011378  1  0  -0.658478  0  2.124512  0  0  -0.592498  0  2.384373  0  0  -0.620634  0  2.371746  0  -1.184943  0  -0.320408  -0.572927  0  2.392327  0
O  O103  1  0.47350323  0.83734968  0.96011450  1  0  -0.658484  0  2.124535  0  0  -0.592498  0  2.384428  0  0  -0.620621  0  2.371773  0  -1.184968  0  -0.320392  -0.572927  0  2.392382  0
O  O104  1  0.23747701  0.00952527  0.92895676  1  0  -0.636425  0  2.09699  0  0  -0.569432  0  2.361111  0  0  -0.598853  0  2.34912  0  -1.177297  0  -0.308709  -0.548915  0  2.368638  0
O  O105  1  0.26252590  0.49047863  0.42895605  1  0  -0.636446  0  2.097013  0  0  -0.569477  0  2.361097  0  0  -0.598901  0  2.349099  0  -1.177257  0  -0.308731  -0.548958  0  2.368623  0
O  O106  1  0.76251396  0.99047317  0.07104611  1  0  -0.636611  0  2.097171  0  0  -0.569667  0  2.361315  0  0  -0.599091  0  2.349313  0  -1.177164  0  -0.308843  -0.549149  0  2.368844  0
O  O107  1  0.73747598  0.50952833  0.57104180  1  0  -0.63641  0  2.097035  0  0  -0.569444  0  2.361149  0  0  -0.59887  0  2.349147  0  -1.17722  0  -0.308729  -0.548925  0  2.368675  0
O  O108  1  0.46722204  0.08716659  0.84590370  1  0  -0.631793  0  2.038162  0  0  -0.567571  0  2.298115  0  0  -0.595556  0  2.283885  0  -1.170414  0  -0.315318  -0.548018  0  2.307142  0
O  O109  1  0.03278328  0.41283476  0.34590514  1  0  -0.63162  0  2.038203  0  0  -0.567449  0  2.298132  0  0  -0.595435  0  2.283892  0  -1.170498  0  -0.315248  -0.547904  0  2.307176  0
O  O110  1  0.53276928  0.91283696  0.15409917  1  0  -0.631751  0  2.038518  0  0  -0.567519  0  2.298454  0  0  -0.595508  0  2.284217  0  -1.170164  0  -0.315302  -0.54797  0  2.30749  0
O  O111  1  0.96722201  0.58716538  0.65409486  1  0  -0.631744  0  2.038235  0  0  -0.567529  0  2.298155  0  0  -0.595518  0  2.283913  0  -1.170545  0  -0.315323  -0.54798  0  2.307192  0
O  O112  1  0.81573600  0.94694185  0.65862683  1  0  -0.271865  0  2.291274  0  0  -0.201683  0  2.520378  0  0  -0.219189  0  2.522176  0  -1.046803  0  -0.17587  -0.189194  0  2.518678  0
O  O113  1  0.68426662  0.55305623  0.15862468  1  0  -0.271769  0  2.291246  0  0  -0.201663  0  2.520422  0  0  -0.219132  0  2.522196  0  -1.046796  0  -0.175906  -0.189177  0  2.518716  0
O  O114  1  0.18426036  0.05306000  0.34137173  1  0  -0.271883  0  2.291333  0  0  -0.201651  0  2.520407  0  0  -0.219154  0  2.5222  0  -1.046929  0  -0.175887  -0.189163  0  2.518699  0
O  O115  1  0.31573715  0.44694050  0.84137317  1  0  -0.271887  0  2.291351  0  0  -0.20164  0  2.520448  0  0  -0.219132  0  2.522245  0  -1.046853  0  -0.175875  -0.189153  0  2.518744  0
O  O116  1  0.20659870  0.40308454  0.62404551  1  0  -0.616777  0  2.019275  0  0  -0.551796  0  2.278143  0  0  -0.580028  0  2.265808  0  -1.153824  0  -0.313108  -0.532179  0  2.285939  0
O  O117  1  0.29339886  0.09691681  0.12404839  1  0  -0.616849  0  2.019393  0  0  -0.551885  0  2.278228  0  0  -0.580119  0  2.265892  0  -1.154384  0  -0.313164  -0.532268  0  2.286024  0
O  O118  1  0.79340916  0.59691560  0.37595089  1  0  -0.616789  0  2.019386  0  0  -0.551845  0  2.278235  0  0  -0.580078  0  2.265899  0  -1.154272  0  -0.313122  -0.532229  0  2.286031  0
O  O119  1  0.70659739  0.90308334  0.87595449  1  0  -0.616843  0  2.019299  0  0  -0.551885  0  2.278165  0  0  -0.580119  0  2.265825  0  -1.154265  0  -0.313148  -0.53227  0  2.285962  0
