# generated using pymatgen
data_CuH9C15(NO2)3
_symmetry_space_group_name_H-M   'P 1'
_cell_length_a   9.03779890
_cell_length_b   10.40077617
_cell_length_c   10.48478065
_cell_angle_alpha   101.72879239
_cell_angle_beta   93.33942875
_cell_angle_gamma   125.76531997
_symmetry_Int_Tables_number   1
_chemical_formula_structural   CuH9C15(NO2)3
_chemical_formula_sum   'Cu2 H18 C30 N6 O12'
_cell_volume   763.31888909
_cell_formula_units_Z   2
loop_
 _symmetry_equiv_pos_site_id
 _symmetry_equiv_pos_as_xyz
  1  'x, y, z'
loop_
 _atom_site_type_symbol
 _atom_site_label
 _atom_site_symmetry_multiplicity
 _atom_site_fract_x
 _atom_site_fract_y
 _atom_site_fract_z
 _atom_site_occupancy
 _atom_site_hle17_ddec_charge
 _atom_site_hle17_ddec_spin_density
 _atom_site_hle17_ddec_sum_bond_order
 _atom_site_hle17_magmom
 _atom_site_hse06_10hf_ddec_charge
 _atom_site_hse06_10hf_ddec_spin_density
 _atom_site_hse06_10hf_ddec_sum_bond_order
 _atom_site_hse06_10hf_magmom
 _atom_site_hse06_ddec_charge
 _atom_site_hse06_ddec_spin_density
 _atom_site_hse06_ddec_sum_bond_order
 _atom_site_hse06_magmom
 _atom_site_pbe_cm5_charge
 _atom_site_pbe_ddec_charge
 _atom_site_pbe_ddec_spin_density
 _atom_site_pbe_ddec_sum_bond_order
 _atom_site_pbe_magmom
Cu  Cu0  1  0.56070743  0.84404938  0.65834911  1  0.820473  -0.732091  1.907358  -0.515  0.795181  -0.816777  2.303919  -0.634  0.883597  -0.89345  2.237675  -0.721  0.748962  0.742091  -0.755528  2.348841  -0.571
Cu  Cu1  1  0.43929335  0.15595539  0.34165160  1  0.820535  0.732091  1.907367  0.515  0.795201  0.816769  2.303922  0.634  0.883668  0.893456  2.237696  0.721  0.748987  0.742094  0.755525  2.348909  0.571
H  H2  1  0.18882985  0.60608021  0.45442103  1  0.089989  -0.001531  0.930859  -0.002  0.099542  -0.001316  0.989473  -0.002  0.101218  -0.000941  0.988472  -0.002  0.123467  0.097709  -0.001594  0.990926  -0.002
H  H3  1  0.81118325  0.39392596  0.54557759  1  0.090004  0.001529  0.930849  0.002  0.099542  0.001316  0.989493  0.002  0.101217  0.000941  0.988491  0.002  0.123458  0.097709  0.001594  0.99095  0.002
H  H4  1  0.94023254  0.29611403  0.38258486  1  0.121771  -0.00044  0.954506  -0.001  0.128666  -0.000378  1.017864  -0.001  0.132593  -0.000291  1.016122  0.0  0.110498  0.125601  -0.000463  1.019436  -0.001
H  H5  1  0.05976976  0.70389096  0.61741321  1  0.121857  0.000442  0.954478  0.001  0.128711  0.000378  1.017863  0.001  0.132637  0.000291  1.016126  0.0  0.110487  0.125653  0.000463  1.019431  0.001
H  H6  1  0.99506182  0.12474655  0.48198701  1  0.109516  -0.000296  0.923303  0.0  0.123188  -3.2e-05  0.975167  0.0  0.125773  -5e-06  0.97308  0.0  0.116001  0.120881  -5.6e-05  0.977425  0.0
H  H7  1  0.00492361  0.87525514  0.51802472  1  0.109434  0.000293  0.923391  0.0  0.12313  3.2e-05  0.975241  0.0  0.125711  5e-06  0.97316  0.0  0.11597  0.120818  5.6e-05  0.977498  0.0
H  H8  1  0.30274390  0.26337311  0.63663732  1  0.12652  -0.000779  0.946077  -0.001  0.136414  -0.000638  1.00537  -0.001  0.13999  -0.000431  1.003239  -0.001  0.115478  0.13341  -0.000797  1.007537  -0.001
H  H9  1  0.69723905  0.73662830  0.36337502  1  0.126485  0.000783  0.946026  0.001  0.136473  0.000638  1.005218  0.001  0.140049  0.000432  1.003087  0.001  0.115508  0.133465  0.000797  1.007387  0.001
H  H10  1  0.56239633  0.40970548  0.78550268  1  0.124765  -0.000748  0.924761  -0.001  0.136143  -0.000609  0.978131  -0.001  0.139462  -0.000421  0.976715  -0.001  0.119466  0.133475  -0.000816  0.979677  -0.001
H  H11  1  0.43760538  0.59028682  0.21449024  1  0.124802  0.000746  0.924742  0.001  0.136148  0.000609  0.978138  0.001  0.13947  0.000421  0.976719  0.001  0.119456  0.133477  0.000816  0.979683  0.001
H  H12  1  0.88470059  0.59637975  0.92566071  1  0.113527  -0.000305  0.962377  0.0  0.118452  -8.6e-05  1.028929  0.0  0.121473  -4.2e-05  1.026614  0.0  0.111833  0.115928  -0.000108  1.031049  0.0
H  H13  1  0.11530215  0.40360791  0.07433824  1  0.113416  0.000307  0.962456  0.0  0.118417  8.6e-05  1.028917  0.0  0.121442  4.2e-05  1.026594  0.0  0.111771  0.115894  0.000108  1.031038  0.0
H  H14  1  0.08890099  0.89917777  0.93631069  1  0.098511  -0.000577  0.957366  -0.001  0.108706  -0.000511  1.015341  -0.001  0.110331  -0.000373  1.016866  0.0  0.105318  0.107299  -0.000655  1.014728  -0.001
H  H15  1  0.91110089  0.10081889  0.06369642  1  0.098596  0.000576  0.957484  0.001  0.108811  0.00051  1.015392  0.001  0.110432  0.000373  1.016924  0.0  0.105402  0.107404  0.000655  1.014779  0.001
H  H16  1  0.95150627  0.00188225  0.81233943  1  0.092617  -0.001275  0.930932  -0.002  0.102768  -0.001098  0.987583  -0.002  0.105016  -0.000788  0.985807  -0.001  0.123219  0.101045  -0.001419  0.988916  -0.002
H  H17  1  0.04848699  0.99810767  0.18766739  1  0.092599  0.001277  0.930899  0.002  0.102727  0.001097  0.987597  0.002  0.104976  0.000788  0.98582  0.001  0.123211  0.101002  0.001418  0.988931  0.002
H  H18  1  0.97495459  0.54475365  0.16900253  1  0.410111  -9.6e-05  0.875388  0.0  0.377865  -4e-05  0.955732  0.0  0.392621  -3.1e-05  0.938936  0.0  0.302896  0.367526  -4.7e-05  0.967312  0.0
H  H19  1  0.02505229  0.45524626  0.83098564  1  0.410142  9.6e-05  0.875352  0.0  0.377852  4e-05  0.955761  0.0  0.39261  3.1e-05  0.938961  0.0  0.302921  0.367519  4.7e-05  0.967342  0.0
C  C20  1  0.76374392  0.17239372  0.84427365  1  0.620857  0.003494  3.90331  0.006  0.572776  -0.000218  4.206064  0.002  0.608866  6.4e-05  4.199483  0.001  0.217009  0.548383  -0.000583  4.209643  0.002
C  C21  1  0.23625952  0.82760789  0.15572589  1  0.62075  -0.003492  3.903467  -0.006  0.572791  0.000216  4.206027  -0.002  0.608882  -6.2e-05  4.199446  -0.001  0.216992  0.548394  0.000583  4.209598  -0.002
C  C22  1  0.62445927  0.08301568  0.92733967  1  0.058217  -0.001323  3.692911  -0.002  0.055841  -0.00041  3.945236  -0.001  0.0564  -0.000228  3.958577  -0.001  0.127231  0.055268  -0.000564  3.936619  -0.001
C  C23  1  0.37554426  0.91699417  0.07265364  1  0.058333  0.001322  3.69274  0.002  0.055969  0.000412  3.945049  0.001  0.056535  0.000227  3.958386  0.001  0.12727  0.055392  0.000564  3.936433  0.001
C  C24  1  0.60533490  0.16717825  0.04070401  1  0.092246  0.000325  3.662058  0.0  0.092735  -0.000111  3.911781  0.0  0.096326  3.5e-05  3.922518  0.0  0.141626  0.090041  -0.000252  3.904807  0.0
C  C25  1  0.39465973  0.83281350  0.95927744  1  0.092137  -0.000323  3.661857  0.0  0.092516  0.000109  3.911786  0.0  0.096107  -3.5e-05  3.922515  0.0  0.141596  0.08982  0.000253  3.904824  0.0
C  C26  1  0.71530875  0.35299191  0.08806417  1  0.654255  -8.9e-05  3.842899  0.0  0.595482  -8.1e-05  4.164752  0.0  0.628568  -6.3e-05  4.153036  0.0  0.232059  0.572404  -0.000113  4.17262  0.0
C  C27  1  0.28468169  0.64701180  0.91193224  1  0.654157  9.1e-05  3.842766  0.0  0.595366  8.1e-05  4.164705  0.0  0.628457  6.5e-05  4.152985  0.0  0.231959  0.57229  0.000113  4.172574  0.0
C  C28  1  0.20622802  0.52511102  0.49322718  1  0.142424  0.006848  3.689367  0.008  0.113523  0.00113  3.949757  0.003  0.123552  0.002046  3.968008  0.004  0.055485  0.106834  0.000449  3.93859  0.002
C  C29  1  0.79377852  0.47489783  0.50677494  1  0.142397  -0.006801  3.689601  -0.008  0.113478  -0.001128  3.949931  -0.003  0.123512  -0.002048  3.968184  -0.004  0.055392  0.106788  -0.000449  3.938767  -0.002
C  C30  1  0.06945601  0.35379009  0.45435793  1  -0.114766  -0.00903  3.701406  -0.01  -0.128393  -0.004175  3.952548  -0.005  -0.135448  -0.003749  3.971653  -0.005  -0.07796  -0.123804  -0.00442  3.940275  -0.005
C  C31  1  0.93055149  0.64621882  0.54564623  1  -0.114853  0.008974  3.701605  0.01  -0.128405  0.004173  3.952687  0.005  -0.135451  0.00375  3.971766  0.005  -0.077861  -0.12382  0.004421  3.940424  0.005
C  C32  1  0.10177517  0.25878348  0.50944824  1  0.024134  0.007654  3.670888  0.007  0.004513  0.002772  3.921344  0.003  0.010832  0.002902  3.935915  0.003  -0.056489  -0.000396  0.002685  3.912711  0.002
C  C33  1  0.89822546  0.74122104  0.49056390  1  0.024327  -0.0076  3.67077  -0.007  0.004641  -0.002773  3.921285  -0.003  0.010967  -0.0029  3.935848  -0.003  -0.056455  -0.000263  -0.002685  3.912643  -0.002
C  C34  1  0.27120708  0.33646500  0.59814440  1  -0.122156  -0.006301  3.652735  -0.006  -0.145319  -0.002858  3.905053  -0.003  -0.152065  -0.002598  3.923383  -0.003  -0.069108  -0.141083  -0.002923  3.893548  -0.003
C  C35  1  0.72878784  0.66353319  0.40186309  1  -0.122179  0.006241  3.652382  0.006  -0.145414  0.002863  3.904697  0.003  -0.152162  0.002594  3.923023  0.003  -0.06912  -0.141177  0.002923  3.893181  0.003
C  C36  1  0.40209021  0.50880944  0.63297160  1  0.176608  0.002784  3.749705  0.003  0.171727  -0.000537  3.999395  0.0  0.179612  0.000516  4.020698  0.001  0.117575  0.166576  -0.00131  3.985503  -0.001
C  C37  1  0.59790454  0.49118891  0.36702728  1  0.176597  -0.002738  3.749673  -0.003  0.171721  0.000534  3.99939  0.0  0.179607  -0.000514  4.020696  -0.001  0.117548  0.166574  0.00131  3.985487  0.001
C  C38  1  0.58773993  0.60632250  0.72254097  1  0.174933  0.002667  3.753558  0.003  0.172773  -0.000481  3.997602  0.0  0.180806  0.000523  4.019439  0.001  0.122488  0.167554  -0.001319  3.983047  -0.001
C  C39  1  0.41225838  0.39367501  0.27746202  1  0.174959  -0.002698  3.75358  -0.003  0.172732  0.00048  3.997666  0.0  0.180769  -0.000523  4.019499  -0.001  0.122406  0.167514  0.001319  3.983104  0.001
C  C40  1  0.65226316  0.54066400  0.79162884  1  -0.101233  -0.005609  3.63362  -0.006  -0.118314  -0.002488  3.873575  -0.003  -0.124558  -0.002291  3.891291  -0.002  -0.061579  -0.114353  -0.00274  3.862352  -0.003
C  C41  1  0.34773742  0.45932921  0.20836986  1  -0.10128  0.005651  3.633586  0.006  -0.118315  0.00249  3.873564  0.003  -0.124564  0.002293  3.891279  0.002  -0.061522  -0.114351  0.00274  3.862332  0.003
C  C42  1  0.83310662  0.64568113  0.87078603  1  0.026024  0.007141  3.663916  0.007  0.004936  0.002581  3.912954  0.002  0.011859  0.002731  3.926771  0.003  -0.055467  -0.00014  0.002454  3.90463  0.002
C  C43  1  0.16689559  0.35431234  0.12920907  1  0.026108  -0.007176  3.663867  -0.007  0.004958  -0.002582  3.912901  -0.002  0.011879  -0.002733  3.926717  -0.003  -0.055457  -0.000122  -0.002454  3.90458  -0.002
C  C44  1  0.94557117  0.81323888  0.87777650  1  -0.116526  -0.008213  3.723301  -0.009  -0.126201  -0.003924  3.971237  -0.005  -0.13428  -0.003473  3.992843  -0.004  -0.078804  -0.121271  -0.004341  3.957592  -0.005
C  C45  1  0.05442189  0.18675695  0.12222366  1  -0.116579  0.008252  3.723376  0.009  -0.126262  0.003923  3.971324  0.005  -0.134338  0.003476  3.992923  0.004  -0.078821  -0.121332  0.004341  3.957676  0.005
C  C46  1  0.87190234  0.87178080  0.80878022  1  0.129316  0.005923  3.714536  0.007  0.100135  0.000716  3.973189  0.002  0.10943  0.001653  3.992494  0.003  0.049498  0.094006  -1.3e-05  3.960981  0.001
C  C47  1  0.12809710  0.12821907  0.19122618  1  0.129382  -0.005957  3.714411  -0.007  0.100188  -0.000716  3.973082  -0.002  0.109488  -0.001656  3.992386  -0.003  0.049512  0.094063  1.2e-05  3.960871  -0.001
C  C48  1  0.56668204  0.00340888  0.45400966  1  0.526553  -0.005739  3.909253  -0.009  0.493484  -0.000756  4.207936  -0.003  0.526057  -0.000697  4.203492  -0.003  0.192181  0.470765  -0.000521  4.21023  -0.003
C  C49  1  0.43331819  0.99659121  0.54599018  1  0.526578  0.005739  3.909438  0.009  0.493512  0.000758  4.208115  0.003  0.52608  0.000698  4.203673  0.003  0.192179  0.470787  0.000521  4.210411  0.003
N  N50  1  0.51942961  0.91772847  0.88931503  1  -0.267483  0.002137  3.164615  0.001  -0.251479  0.001065  3.44286  0.0  -0.259885  0.001124  3.453936  0.0  -0.285941  -0.245832  0.000964  3.436123  0.0
N  N51  1  0.48056422  0.08226881  0.11067494  1  -0.267687  -0.002137  3.164863  -0.001  -0.251725  -0.001063  3.443077  0.0  -0.260137  -0.001127  3.454157  0.0  -0.286054  -0.246075  -0.000964  3.436338  0.0
N  N52  1  0.36629487  0.60025171  0.58180408  1  -0.330195  -0.084282  3.338402  -0.104  -0.292321  -0.059258  3.642353  -0.078  -0.323348  -0.049411  3.663474  -0.069  -0.345595  -0.2749  -0.063808  3.631085  -0.081
N  N53  1  0.63370790  0.39975094  0.41819746  1  -0.330319  0.084254  3.338614  0.104  -0.292394  0.059269  3.642503  0.078  -0.323443  0.049419  3.663656  0.069  -0.345596  -0.274971  0.063817  3.631239  0.081
N  N54  1  0.69711351  0.77066626  0.73397761  1  -0.341336  -0.081503  3.370945  -0.1  -0.302448  -0.058093  3.67297  -0.076  -0.334628  -0.048371  3.696676  -0.067  -0.348912  -0.283385  -0.063296  3.659104  -0.08
N  N55  1  0.30289570  0.22933698  0.26603056  1  -0.341329  0.081521  3.370959  0.1  -0.302365  0.05809  3.672935  0.076  -0.334563  0.048369  3.696666  0.067  -0.348898  -0.283309  0.063291  3.659085  0.08
O  O56  1  0.77276953  0.08787023  0.74307957  1  -0.567417  -0.070806  2.074553  -0.091  -0.539169  -0.046123  2.33986  -0.065  -0.577708  -0.035223  2.331707  -0.052  -0.315663  -0.513291  -0.053291  2.344858  -0.072
O  O57  1  0.22722912  0.91212737  0.25692061  1  -0.567418  0.070802  2.07461  0.091  -0.539186  0.046123  2.339844  0.065  -0.577733  0.035219  2.331705  0.052  -0.315672  -0.513301  0.053292  2.344844  0.072
O  O58  1  0.86570146  0.32849804  0.88463394  1  -0.56969  -0.009199  2.028998  -0.012  -0.515713  -0.00569  2.250209  -0.008  -0.542793  -0.003297  2.241839  -0.005  -0.282374  -0.496168  -0.007995  2.254892  -0.011
O  O59  1  0.13431136  0.67150456  0.11536786  1  -0.569619  0.009198  2.029069  0.012  -0.515739  0.005688  2.250254  0.008  -0.54282  0.003297  2.241883  0.005  -0.282359  -0.496193  0.007995  2.254932  0.011
O  O60  1  0.87406250  0.42619907  0.17532842  1  -0.558434  -0.000145  2.080272  0.0  -0.512689  -0.000133  2.307852  0.0  -0.536085  -0.000109  2.29273  0.0  -0.334096  -0.4958  -0.000149  2.317739  0.0
O  O61  1  0.12594381  0.57380191  0.82466082  1  -0.558421  0.000144  2.080485  0.0  -0.512611  0.000133  2.30808  0.0  -0.536008  0.000108  2.292958  0.0  -0.334103  -0.495726  0.000149  2.317975  0.0
O  O62  1  0.65240395  0.41956575  0.05074873  1  -0.520029  -2e-05  1.902493  0.0  -0.488077  -7.5e-05  2.114407  0.0  -0.508115  -2.8e-05  2.107799  0.0  -0.278694  -0.473052  -0.000193  2.118584  0.0
O  O63  1  0.34759741  0.58043343  0.94924534  1  -0.520022  1.8e-05  1.902012  0.0  -0.488064  7.6e-05  2.113944  0.0  -0.508108  2.8e-05  2.107339  0.0  -0.278662  -0.473035  0.000193  2.118118  0.0
O  O64  1  0.62482483  0.92052356  0.45992424  1  -0.569127  0.014742  1.992171  0.018  -0.546394  0.007478  2.23565  0.01  -0.573314  0.004354  2.224131  0.005  -0.317319  -0.526399  0.011604  2.242896  0.015
O  O65  1  0.37517534  0.07947426  0.54007329  1  -0.569113  -0.014743  1.992216  -0.018  -0.546376  -0.007479  2.235693  -0.01  -0.573303  -0.004354  2.224186  -0.005  -0.317303  -0.526377  -0.011605  2.242942  -0.015
O  O66  1  0.60898406  0.09663230  0.37758639  1  -0.55486  0.091761  2.094517  0.118  -0.538168  0.054775  2.367749  0.077  -0.582003  0.04051  2.36446  0.06  -0.324223  -0.506751  0.063975  2.368808  0.087
O  O67  1  0.39102045  0.90337515  0.62241619  1  -0.554893  -0.09176  2.094641  -0.118  -0.538193  -0.054775  2.367863  -0.077  -0.582016  -0.040514  2.364562  -0.06  -0.32421  -0.506778  -0.063977  2.368918  -0.087
