# generated using pymatgen
data_CoH14(C11N6)2
_symmetry_space_group_name_H-M   'P 1'
_cell_length_a   8.69735517
_cell_length_b   16.09466314
_cell_length_c   16.08806190
_cell_angle_alpha   116.82969306
_cell_angle_beta   100.39011101
_cell_angle_gamma   100.37549974
_symmetry_Int_Tables_number   1
_chemical_formula_structural   CoH14(C11N6)2
_chemical_formula_sum   'Co3 H42 C66 N36'
_cell_volume   1886.88235010
_cell_formula_units_Z   3
loop_
 _symmetry_equiv_pos_site_id
 _symmetry_equiv_pos_as_xyz
  1  'x, y, z'
loop_
 _atom_site_type_symbol
 _atom_site_label
 _atom_site_symmetry_multiplicity
 _atom_site_fract_x
 _atom_site_fract_y
 _atom_site_fract_z
 _atom_site_occupancy
 _atom_site_pbe_bader_charge
 _atom_site_pbe_bader_spin_density
 _atom_site_pbe_cm5_charge
 _atom_site_pbe_ddec_charge
 _atom_site_pbe_ddec_spin_density
 _atom_site_pbe_ddec_sum_bond_order
 _atom_site_pbe_magmom
Co  Co0  1  0.50000216  0.49999996  0.00000084  1  1.053146  0.945565  0.717428  0.393156  1.02756  3.310911  0.936
Co  Co1  1  0.50000168  0.99999939  0.50000252  1  1.057613  0.946129  0.717732  0.394045  1.028536  3.313571  0.936
Co  Co2  1  0.99999556  0.49999851  0.49999718  1  1.053822  0.945847  0.71791  0.393601  1.0282  3.312641  0.936
H  H3  1  0.24187150  0.96426856  0.33330247  1  0.118169  0.000299  0.12015  0.088988  -4.5e-05  1.023449  0.0
H  H4  1  0.90839653  0.66644312  0.63088242  1  0.11669  0.000299  0.120605  0.089669  -4.3e-05  1.023829  0.0
H  H5  1  0.27753244  0.36913933  0.03560654  1  0.119171  0.000304  0.120388  0.08923  -4e-05  1.02402  0.0
H  H6  1  0.75813636  0.03573157  0.66670174  1  0.11812  0.000299  0.120136  0.088994  -4.5e-05  1.023437  0.0
H  H7  1  0.09159892  0.33355555  0.36911556  1  0.116666  0.000299  0.120589  0.089636  -4.3e-05  1.023856  0.0
H  H8  1  0.72246353  0.63085570  0.96438611  1  0.119323  0.000304  0.12037  0.089221  -4e-05  1.023959  0.0
H  H9  1  0.02158924  0.82099126  0.19426808  1  0.095172  0.000113  0.112126  0.119387  9.3e-05  0.994973  0.0
H  H10  1  0.82728480  0.80549857  0.62683771  1  0.098063  0.000112  0.112278  0.11967  9e-05  0.994517  0.0
H  H11  1  0.20091671  0.37320652  0.17886095  1  0.099704  0.000111  0.112146  0.119662  9e-05  0.995081  0.0
H  H12  1  0.97841504  0.17901106  0.80573676  1  0.0953  0.000113  0.112091  0.119354  9.3e-05  0.994971  0.0
H  H13  1  0.17271679  0.19450302  0.37316343  1  0.098432  0.000112  0.112306  0.119711  9e-05  0.994471  0.0
H  H14  1  0.79907304  0.62678777  0.82113698  1  0.099857  0.00011  0.112146  0.119645  9e-05  0.995113  0.0
H  H15  1  0.23320875  0.63703819  0.27735434  1  0.125044  4.2e-05  0.107028  0.118421  1.9e-05  1.029597  0.0
H  H16  1  0.95536438  0.72269057  0.35962322  1  0.100926  4.7e-05  0.107234  0.118923  2.2e-05  1.02925  0.0
H  H17  1  0.59596055  0.64048881  0.36309276  1  0.090496  4.8e-05  0.106959  0.118548  2.2e-05  1.028779  0.0
H  H18  1  0.76679066  0.36295902  0.72264026  1  0.125056  4.2e-05  0.107062  0.118415  1.9e-05  1.029642  0.0
H  H19  1  0.04463939  0.27731539  0.64038135  1  0.100491  4.7e-05  0.10723  0.118873  2.2e-05  1.029311  0.0
H  H20  1  0.40403126  0.35950256  0.63689660  1  0.090226  4.8e-05  0.10698  0.118568  2.2e-05  1.028844  0.0
H  H21  1  0.44025906  0.78757721  0.41697874  1  0.107852  0.00021  0.119813  0.091064  -8.1e-05  1.029165  0.0
H  H22  1  0.02263406  0.58294640  0.37035753  1  0.117912  0.00021  0.120682  0.092556  -8.4e-05  1.026252  0.0
H  H23  1  0.65246700  0.62954961  0.21253902  1  0.113369  0.000209  0.119773  0.090972  -8.1e-05  1.028063  0.0
H  H24  1  0.55974114  0.21241927  0.58302121  1  0.107891  0.000211  0.119815  0.091092  -8.1e-05  1.029154  0.0
H  H25  1  0.97736745  0.41705738  0.62964273  1  0.117941  0.00021  0.120694  0.092613  -8.4e-05  1.026222  0.0
H  H26  1  0.34752970  0.37044688  0.78745747  1  0.113319  0.000209  0.119765  0.090971  -8.1e-05  1.028017  0.0
H  H27  1  0.93952392  0.33276455  0.03403767  1  0.106298  0.001011  0.119584  0.101748  0.000439  0.978562  0.0
H  H28  1  0.90555959  0.96564528  0.29884091  1  0.109511  0.001002  0.120536  0.10313  0.000434  0.97897  0.0
H  H29  1  0.60649947  0.70138385  0.66702432  1  0.129834  0.000993  0.119395  0.101373  0.000433  0.978859  0.0
H  H30  1  0.06047621  0.66723412  0.96595766  1  0.106234  0.001011  0.119574  0.101709  0.000439  0.978614  0.0
H  H31  1  0.09444265  0.03435996  0.70115946  1  0.109463  0.001002  0.120548  0.103108  0.000434  0.979121  0.0
H  H32  1  0.39349517  0.29861555  0.33297453  1  0.129917  0.000993  0.119413  0.1014  0.000433  0.978776  0.0
H  H33  1  0.49921856  0.11714167  0.84954620  1  0.091944  0.00135  0.111455  0.087422  0.000543  1.003911  0.001
H  H34  1  0.65046095  0.15030164  0.26748334  1  0.096954  0.001383  0.111244  0.087022  0.000564  1.003397  0.001
H  H35  1  0.38263446  0.73266078  0.88301295  1  0.091324  0.001387  0.111955  0.088571  0.000563  1.003538  0.001
H  H36  1  0.50077813  0.88285482  0.15045153  1  0.092006  0.00135  0.111476  0.087464  0.000543  1.003833  0.001
H  H37  1  0.34954069  0.84970943  0.73252768  1  0.096997  0.001383  0.111225  0.08711  0.000564  1.003308  0.001
H  H38  1  0.61736223  0.26733571  0.11698789  1  0.091351  0.001387  0.111984  0.088604  0.000563  1.003574  0.001
H  H39  1  0.36229393  0.24827187  0.86417701  1  0.140524  0.001827  0.117368  0.087443  0.000611  1.023882  0.001
H  H40  1  0.49889630  0.13607960  0.38413837  1  0.122697  0.001836  0.11772  0.088406  0.000609  1.024478  0.001
H  H41  1  0.11428486  0.61616555  0.75199927  1  0.122942  0.00183  0.117191  0.087322  0.000609  1.023394  0.001
H  H42  1  0.63770531  0.75172972  0.13582639  1  0.14054  0.001827  0.117348  0.087366  0.000611  1.023917  0.001
H  H43  1  0.50110235  0.86392783  0.61587320  1  0.122388  0.001836  0.117725  0.088453  0.000609  1.024277  0.001
H  H44  1  0.88572081  0.38383021  0.24800399  1  0.123025  0.001829  0.117207  0.08731  0.000608  1.023404  0.001
C  C45  1  0.23477459  0.89058365  0.31899868  1  0.401195  -0.005836  0.042019  0.080752  -0.006211  3.923253  -0.004
C  C46  1  0.91544507  0.68074700  0.57146561  1  0.485203  -0.005658  0.041745  0.079142  -0.006055  3.927891  -0.004
C  C47  1  0.34420647  0.42850416  0.10932775  1  0.474106  -0.005685  0.042574  0.080948  -0.006075  3.925738  -0.004
C  C48  1  0.76522977  0.10941649  0.68100642  1  0.401227  -0.005837  0.041925  0.080558  -0.006212  3.923454  -0.004
C  C49  1  0.08455498  0.31925386  0.42853381  1  0.485196  -0.005658  0.041781  0.079215  -0.006055  3.927951  -0.004
C  C50  1  0.65578884  0.57148722  0.89066630  1  0.474271  -0.005684  0.042596  0.081002  -0.006074  3.925526  -0.004
C  C51  1  0.11284798  0.81070559  0.24178397  1  0.052516  0.001745  -0.078923  -0.156754  0.000682  3.964253  0.001
C  C52  1  0.87083932  0.75800427  0.56892915  1  -0.037638  0.001719  -0.079616  -0.157061  0.000696  3.964635  0.001
C  C53  1  0.30241109  0.43103777  0.18920640  1  -0.043993  0.001717  -0.079711  -0.158318  0.000691  3.96712  0.001
C  C54  1  0.88715901  0.18929746  0.75822023  1  0.05247  0.001745  -0.078831  -0.156576  0.000682  3.964239  0.001
C  C55  1  0.12916417  0.24199877  0.43107284  1  -0.038036  0.001719  -0.079653  -0.157134  0.000696  3.964612  0.001
C  C56  1  0.69758386  0.56895288  0.81078853  1  -0.044228  0.001716  -0.079701  -0.158282  0.000691  3.967122  0.001
C  C57  1  0.10717144  0.71689183  0.22600414  1  -0.012668  -0.007338  0.01145  0.067592  -0.007621  4.014398  -0.005
C  C58  1  0.88076636  0.77389529  0.49091377  1  -0.00447  -0.007472  0.01223  0.068821  -0.007768  4.012896  -0.005
C  C59  1  0.39027153  0.50910746  0.28310389  1  -0.019439  -0.00749  0.011966  0.069136  -0.007801  4.010696  -0.005
C  C60  1  0.89283716  0.28310976  0.77399706  1  -0.012909  -0.007338  0.011406  0.067481  -0.007621  4.0146  -0.005
C  C61  1  0.11923712  0.22610776  0.50908822  1  -0.004389  -0.007472  0.012189  0.068827  -0.007768  4.012802  -0.005
C  C62  1  0.60972254  0.49088611  0.71689165  1  -0.019265  -0.007489  0.011966  0.069133  -0.007799  4.010497  -0.005
C  C63  1  0.23159929  0.70855030  0.28793685  1  -0.007848  0.00177  -0.083827  -0.158435  0.000637  3.941538  0.002
C  C64  1  0.94315176  0.71203495  0.42054021  1  -0.003906  0.001771  -0.084915  -0.160729  0.000623  3.94174  0.002
C  C65  1  0.52292061  0.57948476  0.29154910  1  0.002987  0.001749  -0.083897  -0.159195  0.000616  3.938689  0.002
C  C66  1  0.76840273  0.29144983  0.71206554  1  -0.007796  0.00177  -0.083834  -0.158335  0.000637  3.941569  0.002
C  C67  1  0.05685442  0.28796882  0.57946299  1  -0.003463  0.001771  -0.084824  -0.16059  0.000623  3.941749  0.002
C  C68  1  0.47707236  0.42050662  0.70844287  1  0.003102  0.001748  -0.083906  -0.159215  0.000616  3.938673  0.002
C  C69  1  0.34709585  0.79200266  0.36524316  1  0.403456  -0.005898  0.040035  0.075489  -0.00624  3.924059  -0.004
C  C70  1  0.98122146  0.63464913  0.42655748  1  0.413655  -0.00616  0.03939  0.074429  -0.006511  3.921321  -0.004
C  C71  1  0.55488087  0.57338169  0.20807561  1  0.483342  -0.006147  0.039296  0.074959  -0.006521  3.920846  -0.004
C  C72  1  0.65290310  0.20799601  0.63476014  1  0.403327  -0.005898  0.039997  0.075443  -0.00624  3.924011  -0.004
C  C73  1  0.01877815  0.36535319  0.57344256  1  0.413633  -0.00616  0.03938  0.07433  -0.006511  3.921351  -0.004
C  C74  1  0.44511393  0.42661333  0.79191693  1  0.483566  -0.006145  0.039365  0.075087  -0.006519  3.920877  -0.004
C  C75  1  0.97155163  0.63203365  0.15340459  1  0.951174  -0.000244  0.195278  0.23755  -0.000653  4.091366  0.0
C  C76  1  0.81780229  0.84656293  0.47882322  1  0.945481  -0.000294  0.195089  0.238079  -0.000692  4.088398  0.0
C  C77  1  0.33912359  0.52132066  0.36784977  1  0.914614  -0.000319  0.194556  0.236952  -0.000696  4.092112  0.0
C  C78  1  0.02845822  0.36796575  0.84659140  1  0.95117  -0.000244  0.19537  0.237699  -0.000653  4.091441  0.0
C  C79  1  0.18220236  0.15344012  0.52117640  1  0.945299  -0.000294  0.195068  0.238007  -0.000692  4.088548  0.0
C  C80  1  0.66087303  0.47867801  0.63214957  1  0.914528  -0.000319  0.194548  0.236971  -0.000696  4.092141  0.0
C  C81  1  0.81653972  0.48869702  0.06338990  1  0.953501  -0.002139  0.199708  0.213274  -0.00249  4.08559  -0.001
C  C82  1  0.75291473  0.93660749  0.42550887  1  0.964967  -0.001891  0.200976  0.214959  -0.002241  4.085883  -0.001
C  C83  1  0.32733035  0.57470230  0.51120571  1  0.957035  -0.001901  0.199793  0.213511  -0.002249  4.082874  -0.001
C  C84  1  0.18346464  0.51130311  0.93661023  1  0.953399  -0.002138  0.19969  0.213243  -0.002489  4.085645  -0.001
C  C85  1  0.24708532  0.06339337  0.57449055  1  0.964966  -0.00189  0.201011  0.215058  -0.002241  4.085851  -0.001
C  C86  1  0.67266941  0.42529564  0.48879485  1  0.957  -0.001902  0.19977  0.213449  -0.002249  4.08302  -0.001
C  C87  1  0.73489957  0.38499425  0.00525019  1  0.471818  -0.00407  0.1277  0.121681  -0.004879  3.990825  -0.003
C  C88  1  0.72970592  0.99471801  0.37984816  1  0.498104  -0.003798  0.129422  0.123799  -0.004588  3.992158  -0.003
C  C89  1  0.34961451  0.62041693  0.61499240  1  0.521484  -0.003848  0.127951  0.123383  -0.004622  3.990718  -0.003
C  C90  1  0.26510173  0.61500442  0.99474774  1  0.471691  -0.00407  0.12772  0.121702  -0.004879  3.990931  -0.003
C  C91  1  0.27029099  0.00528358  0.62015191  1  0.498072  -0.003797  0.12941  0.123728  -0.004588  3.992212  -0.003
C  C92  1  0.65038167  0.37958320  0.38500879  1  0.521298  -0.003849  0.127922  0.123317  -0.004623  3.990782  -0.003
C  C93  1  0.80963167  0.31213039  0.99592359  1  0.579482  0.002316  0.05308  0.017898  0.001122  3.933178  0.002
C  C94  1  0.81383736  0.00379978  0.31624239  1  0.527122  0.002338  0.052162  0.016511  0.001129  3.936348  0.002
C  C95  1  0.49733084  0.68401396  0.68775015  1  0.49096  0.002328  0.052789  0.017507  0.001113  3.933936  0.002
C  C96  1  0.19036693  0.68786755  0.00407250  1  0.579589  0.002316  0.053067  0.017967  0.001122  3.93328  0.002
C  C97  1  0.18616246  0.99620764  0.68375996  1  0.527098  0.002338  0.052207  0.016542  0.001129  3.936482  0.002
C  C98  1  0.50266768  0.31598617  0.31224941  1  0.490476  0.002328  0.052774  0.017461  0.001113  3.933835  0.002
C  C99  1  0.56791106  0.19449191  0.89428233  1  0.469641  0.003229  0.038968  0.026038  0.001535  3.976762  0.003
C  C100  1  0.67420840  0.10555931  0.30014317  1  0.487118  0.003336  0.040085  0.028399  0.001626  3.973635  0.003
C  C101  1  0.37372220  0.70005084  0.80559409  1  0.541045  0.003329  0.037897  0.024389  0.001637  3.975487  0.003
C  C102  1  0.43208870  0.80550603  0.10571450  1  0.469325  0.003229  0.039001  0.02601  0.001535  3.97656  0.003
C  C103  1  0.32578865  0.89444958  0.69986455  1  0.486387  0.003337  0.040147  0.028331  0.001626  3.973605  0.003
C  C104  1  0.62627829  0.29994856  0.19440657  1  0.54102  0.003329  0.037823  0.024228  0.001637  3.975764  0.003
C  C105  1  0.49144480  0.26596847  0.90203085  1  0.479362  -0.002169  0.052458  0.047597  -0.002752  3.933654  -0.001
C  C106  1  0.58997194  0.09806300  0.36397844  1  0.506443  -0.002142  0.052521  0.045982  -0.002711  3.931973  -0.001
C  C107  1  0.22561746  0.63629872  0.73421205  1  0.464887  -0.002102  0.052992  0.048154  -0.00275  3.92896  -0.001
C  C108  1  0.50855811  0.73402875  0.09796534  1  0.479707  -0.00217  0.052393  0.04767  -0.002752  3.93367  -0.001
C  C109  1  0.41002481  0.90194296  0.63602793  1  0.506997  -0.002143  0.052451  0.045756  -0.002711  3.931768  -0.001
C  C110  1  0.77438149  0.36369995  0.26578752  1  0.464822  -0.002104  0.052982  0.048205  -0.002752  3.929032  -0.001
N  N111  1  0.34845425  0.88259078  0.38231237  1  -1.189284  0.001755  -0.332957  -0.174325  0.000845  3.645206  0.003
N  N112  1  0.96557593  0.61746915  0.50004681  1  -1.18944  0.001725  -0.332694  -0.173081  0.000832  3.646419  0.003
N  N113  1  0.46567975  0.49990004  0.11741405  1  -1.193195  0.001628  -0.332838  -0.173353  0.000772  3.64474  0.003
N  N114  1  0.65154776  0.11740935  0.61769375  1  -1.188997  0.001753  -0.332856  -0.174244  0.000843  3.645226  0.003
N  N115  1  0.03441989  0.38253025  0.49995091  1  -1.189511  0.001726  -0.33272  -0.173106  0.000833  3.646468  0.003
N  N116  1  0.53431512  0.50009280  0.88257999  1  -1.193657  0.001627  -0.332903  -0.173578  0.000771  3.644861  0.003
N  N117  1  0.97127587  0.53809293  0.12153316  1  -1.160153  -0.003424  -0.340781  -0.410681  -0.003353  3.15316  -0.002
N  N118  1  0.84933358  0.87841792  0.41671162  1  -1.179933  -0.002895  -0.341111  -0.41154  -0.002805  3.156021  -0.002
N  N119  1  0.43263300  0.58350291  0.46185613  1  -1.16335  -0.002893  -0.339848  -0.410305  -0.002808  3.155728  -0.002
N  N120  1  0.02873478  0.46190574  0.87846258  1  -1.160055  -0.003424  -0.340833  -0.410768  -0.003353  3.153241  -0.002
N  N121  1  0.15067144  0.12158585  0.58328774  1  -1.17982  -0.002895  -0.341116  -0.411568  -0.002805  3.156096  -0.002
N  N122  1  0.56736873  0.41649431  0.53814491  1  -1.163392  -0.002893  -0.339821  -0.410265  -0.002808  3.155755  -0.002
N  N123  1  0.72746019  0.54953797  0.06155180  1  -0.68292  -0.008367  -0.263402  -0.158329  -0.007746  3.733183  -0.005
N  N124  1  0.66582075  0.93851481  0.48826470  1  -0.697385  -0.008776  -0.264552  -0.16013  -0.008119  3.734628  -0.005
N  N125  1  0.17753910  0.51188642  0.45029470  1  -0.705437  -0.008763  -0.264465  -0.159629  -0.008121  3.731749  -0.005
N  N126  1  0.27254454  0.45046289  0.93845118  1  -0.68303  -0.008367  -0.263331  -0.158217  -0.007748  3.733168  -0.005
N  N127  1  0.33418083  0.06148678  0.51173582  1  -0.69723  -0.008775  -0.264543  -0.160196  -0.008117  3.734532  -0.005
N  N128  1  0.82246022  0.48811298  0.54970461  1  -0.705443  -0.008763  -0.264437  -0.159568  -0.008121  3.731866  -0.005
N  N129  1  0.82530473  0.64150884  0.11799548  1  -0.671544  -0.006718  -0.225277  -0.2731  -0.006792  3.195863  -0.005
N  N130  1  0.70714687  0.88202763  0.52381458  1  -0.651523  -0.007278  -0.22605  -0.274461  -0.00737  3.191748  -0.006
N  N131  1  0.18344994  0.47628593  0.35825983  1  -0.65363  -0.007303  -0.225738  -0.273678  -0.007395  3.193239  -0.006
N  N132  1  0.17470117  0.35849202  0.88200513  1  -0.671594  -0.006717  -0.22532  -0.273196  -0.006792  3.195954  -0.005
N  N133  1  0.29285626  0.11797469  0.47618393  1  -0.651589  -0.007277  -0.226096  -0.27446  -0.007369  3.191674  -0.006
N  N134  1  0.81654624  0.52371420  0.64173764  1  -0.653504  -0.007303  -0.225759  -0.27372  -0.007395  3.193378  -0.006
N  N135  1  0.57409511  0.36094735  0.95766121  1  -1.155576  0.062841  -0.286773  -0.210899  0.033801  3.444214  0.055
N  N136  1  0.61678441  0.04247190  0.40342738  1  -1.184547  0.063048  -0.287448  -0.210883  0.03389  3.442587  0.055
N  N137  1  0.21306189  0.59686032  0.63915314  1  -1.195411  0.062962  -0.28642  -0.210976  0.033883  3.442511  0.055
N  N138  1  0.42590619  0.63905132  0.04233796  1  -1.155579  0.062837  -0.286746  -0.210912  0.0338  3.444375  0.055
N  N139  1  0.38321060  0.95752823  0.59657246  1  -1.184237  0.063047  -0.287387  -0.210666  0.033889  3.44243  0.055
N  N140  1  0.78693509  0.40313908  0.36084781  1  -1.195366  0.062967  -0.286369  -0.210884  0.033884  3.442554  0.055
N  N141  1  0.72694680  0.21723702  0.94120485  1  -1.197831  -0.005255  -0.315217  -0.236939  -0.005493  3.320022  -0.004
N  N142  1  0.78616430  0.05851991  0.27601662  1  -1.167053  -0.005201  -0.315913  -0.23811  -0.005446  3.319164  -0.004
N  N143  1  0.50983604  0.72420354  0.78271912  1  -1.169372  -0.005222  -0.313958  -0.235982  -0.00547  3.320101  -0.004
N  N144  1  0.27305099  0.78276166  0.05879398  1  -1.19782  -0.005255  -0.315228  -0.236979  -0.005493  3.319984  -0.004
N  N145  1  0.21383348  0.94149043  0.72398872  1  -1.16676  -0.0052  -0.315982  -0.238068  -0.005445  3.319362  -0.004
N  N146  1  0.49016409  0.27579513  0.21727994  1  -1.168847  -0.005225  -0.313942  -0.235877  -0.005472  3.320129  -0.004
