# generated using pymatgen
data_AgPH16C19SN(OF)3
_symmetry_space_group_name_H-M   'P 1'
_cell_length_a   8.57789957
_cell_length_b   11.09070152
_cell_length_c   11.31138023
_cell_angle_alpha   88.01112758
_cell_angle_beta   83.81437866
_cell_angle_gamma   70.16566539
_symmetry_Int_Tables_number   1
_chemical_formula_structural   AgPH16C19SN(OF)3
_chemical_formula_sum   'Ag2 P2 H32 C38 S2 N2 O6 F6'
_cell_volume   1006.37466165
_cell_formula_units_Z   2
loop_
 _symmetry_equiv_pos_site_id
 _symmetry_equiv_pos_as_xyz
  1  'x, y, z'
loop_
 _atom_site_type_symbol
 _atom_site_label
 _atom_site_symmetry_multiplicity
 _atom_site_fract_x
 _atom_site_fract_y
 _atom_site_fract_z
 _atom_site_occupancy
 _atom_site_hle17_bader_spin_density
 _atom_site_hle17_ddec_charge
 _atom_site_hle17_ddec_spin_density
 _atom_site_hle17_ddec_sum_bond_order
 _atom_site_hle17_magmom
 _atom_site_hse06_10hf_bader_spin_density
 _atom_site_hse06_10hf_ddec_charge
 _atom_site_hse06_10hf_ddec_spin_density
 _atom_site_hse06_10hf_ddec_sum_bond_order
 _atom_site_hse06_10hf_magmom
 _atom_site_hse06_bader_spin_density
 _atom_site_hse06_ddec_charge
 _atom_site_hse06_ddec_spin_density
 _atom_site_hse06_ddec_sum_bond_order
 _atom_site_hse06_magmom
 _atom_site_pbe_bader_spin_density
 _atom_site_pbe_cm5_charge
 _atom_site_pbe_ddec_charge
 _atom_site_pbe_ddec_spin_density
 _atom_site_pbe_ddec_sum_bond_order
 _atom_site_pbe_magmom
Ag  Ag0  1  0.28432409  0.55906402  0.59812488  1  0  0.40148  0  1.650499  0  0  0.281348  0  2.108044  0  0  0.299443  0  2.06932  0  0  0.456703  0.269186  0  2.134674  0
Ag  Ag1  1  0.71567593  0.44093423  0.40187606  1  0  0.401452  0  1.650566  0  0  0.281319  0  2.108127  0  0  0.299408  0  2.069403  0  0  0.456688  0.269157  0  2.134757  0
P  P2  1  0.16582528  0.76068687  0.68538016  1  0  0.31374  0  3.756961  0  0  0.279131  0  4.228825  0  0  0.287638  0  4.224165  0  0  -0.019234  0.272944  0  4.232044  0
P  P3  1  0.83417551  0.23931234  0.31462244  1  0  0.313754  0  3.757013  0  0  0.279131  0  4.228955  0  0  0.287635  0  4.224288  0  0  -0.019237  0.27294  0  4.232182  0
H  H4  1  0.92404362  0.94483389  0.64041143  1  0  0.138709  0  0.918862  0  0  0.157848  0  0.971053  0  0  0.159593  0  0.970794  0  0  0.110723  0.15663  0  0.971123  0
H  H5  1  0.07595605  0.05516246  0.35959049  1  0  0.138775  0  0.918888  0  0  0.157896  0  0.971053  0  0  0.159641  0  0.970792  0  0  0.110755  0.156678  0  0.971122  0
H  H6  1  0.07568583  0.89092191  0.51340016  1  0  0.12685  0  0.949838  0  0  0.143407  0  1.010331  0  0  0.14507  0  1.010109  0  0  0.107526  0.142254  0  1.010518  0
H  H7  1  0.92431301  0.10907635  0.48660088  1  0  0.126888  0  0.949797  0  0  0.143427  0  1.010278  0  0  0.14509  0  1.010058  0  0  0.107522  0.142274  0  1.010464  0
H  H8  1  0.04326321  0.75982153  0.36820132  1  0  0.114264  0  0.980517  0  0  0.123309  0  1.043095  0  0  0.126471  0  1.042022  0  0  0.101738  0.120909  0  1.044166  0
H  H9  1  0.95673999  0.24017480  0.63180206  1  0  0.114307  0  0.980414  0  0  0.123384  0  1.042974  0  0  0.126547  0  1.041902  0  0  0.101774  0.120981  0  1.04405  0
H  H10  1  0.91232558  0.60754382  0.30358443  1  0  0.075237  0  0.943924  0  0  0.086398  0  1.006502  0  0  0.088391  0  1.004297  0  0  0.110887  0.084746  0  1.0085  0
H  H11  1  0.08767919  0.39245154  0.69641620  1  0  0.075312  0  0.943852  0  0  0.086437  0  1.006464  0  0  0.088432  0  1.004257  0  0  0.11089  0.084785  0  1.008462  0
H  H12  1  0.64911733  0.61750277  0.63456858  1  0  0.081127  0  0.949212  0  0  0.087979  0  1.018112  0  0  0.090279  0  1.015897  0  0  0.109824  0.086177  0  1.019865  0
H  H13  1  0.35088274  0.38249262  0.36543157  1  0  0.081162  0  0.949221  0  0  0.088015  0  1.018114  0  0  0.090314  0  1.015899  0  0  0.109843  0.086212  0  1.019868  0
H  H14  1  0.76395251  0.77390747  0.71124429  1  0  0.10757  0  0.982942  0  0  0.118108  0  1.040601  0  0  0.119713  0  1.043333  0  0  0.103121  0.116901  0  1.038961  0
H  H15  1  0.23604874  0.22608791  0.28875753  1  0  0.107623  0  0.98301  0  0  0.118156  0  1.040659  0  0  0.11976  0  1.043392  0  0  0.103126  0.116952  0  1.039017  0
H  H16  1  0.06536791  0.56692587  0.82255419  1  0  0.076734  0  0.977382  0  0  0.083663  0  1.053606  0  0  0.087084  0  1.050304  0  0  0.092911  0.081222  0  1.055961  0
H  H17  1  0.93463207  0.43307526  0.17745195  1  0  0.076711  0  0.977442  0  0  0.083634  0  1.053662  0  0  0.087054  0  1.050363  0  0  0.092894  0.081183  0  1.056026  0
H  H18  1  0.86763226  0.58050685  0.00492190  1  0  0.090322  0  0.95824  0  0  0.103636  0  1.014849  0  0  0.105784  0  1.014698  0  0  0.09985  0.101922  0  1.015442  0
H  H19  1  0.13236206  0.41950195  0.99508090  1  0  0.090337  0  0.958258  0  0  0.103647  0  1.014874  0  0  0.105795  0  1.01472  0  0  0.099841  0.10193  0  1.015469  0
H  H20  1  0.73900259  0.78572540  0.11484173  1  0  0.101952  0  0.969446  0  0  0.113459  0  1.029952  0  0  0.115852  0  1.029279  0  0  0.101164  0.111444  0  1.031083  0
H  H21  1  0.26098735  0.21428534  0.88515430  1  0  0.102032  0  0.969306  0  0  0.113497  0  1.029853  0  0  0.115878  0  1.029203  0  0  0.101189  0.1115  0  1.030966  0
H  H22  1  0.80096602  0.98067558  0.03978252  1  0  0.084871  0  0.983584  0  0  0.095081  0  1.045723  0  0  0.096902  0  1.046833  0  0  0.096625  0.093726  0  1.045216  0
H  H23  1  0.19903061  0.01933320  0.96021214  1  0  0.084893  0  0.983546  0  0  0.095043  0  1.045755  0  0  0.096875  0  1.046853  0  0  0.096607  0.093691  0  1.045242  0
H  H24  1  0.98859319  0.96996841  0.85519149  1  0  0.092729  0  0.947571  0  0  0.105161  0  1.006361  0  0  0.107738  0  1.005605  0  0  0.10289  0.103244  0  1.007229  0
H  H25  1  0.01141063  0.03003459  0.14480542  1  0  0.092757  0  0.947545  0  0  0.105185  0  1.006343  0  0  0.10775  0  1.005602  0  0  0.102918  0.103299  0  1.007174  0
H  H26  1  0.24577311  0.98133210  0.55899604  1  0  0.089381  0  0.970271  0  0  0.103643  0  1.028348  0  0  0.105734  0  1.02814  0  0  0.09872  0.102089  0  1.028609  0
H  H27  1  0.75422057  0.01867002  0.44100706  1  0  0.08937  0  0.970239  0  0  0.103652  0  1.028294  0  0  0.105743  0  1.028087  0  0  0.098726  0.102097  0  1.028555  0
H  H28  1  0.42600386  0.10130351  0.60849027  1  0  0.093633  0  0.950663  0  0  0.104739  0  1.009557  0  0  0.107015  0  1.00979  0  0  0.100364  0.103184  0  1.009308  0
H  H29  1  0.57399572  0.89869570  0.39150448  1  0  0.093655  0  0.950678  0  0  0.104768  0  1.009561  0  0  0.107035  0  1.009813  0  0  0.100391  0.103219  0  1.009292  0
H  H30  1  0.57952149  0.04553935  0.78696236  1  0  0.095867  0  0.961423  0  0  0.105394  0  1.024233  0  0  0.108216  0  1.022769  0  0  0.100064  0.103233  0  1.025499  0
H  H31  1  0.42048313  0.95446173  0.21302924  1  0  0.095998  0  0.961222  0  0  0.105491  0  1.02407  0  0  0.108318  0  1.022596  0  0  0.100091  0.103329  0  1.025339  0
H  H32  1  0.55497065  0.86424708  0.91727532  1  0  0.088197  0  0.965761  0  0  0.099645  0  1.024085  0  0  0.101527  0  1.024615  0  0  0.098762  0.098386  0  1.023602  0
H  H33  1  0.44503669  0.13575591  0.08271952  1  0  0.088239  0  0.965741  0  0  0.099682  0  1.024064  0  0  0.101563  0  1.024591  0  0  0.098757  0.098424  0  1.023579  0
H  H34  1  0.37439672  0.74390204  0.86924111  1  0  0.096678  0  0.970086  0  0  0.105785  0  1.034611  0  0  0.108436  0  1.033237  0  0  0.094002  0.103801  0  1.035738  0
H  H35  1  0.62561029  0.25609904  0.13075825  1  0  0.096669  0  0.970234  0  0  0.105786  0  1.034742  0  0  0.108446  0  1.03336  0  0  0.094026  0.103803  0  1.035867  0
C  C36  1  0.00728026  0.86052962  0.58948934  1  0  -0.32978  0  3.630032  0  0  -0.359525  0  3.869068  0  0  -0.364299  0  3.878896  0  0  -0.159537  -0.356048  0  3.862224  0
C  C37  1  0.99272176  0.13946670  0.41051238  1  0  -0.329974  0  3.630134  0  0  -0.359622  0  3.869009  0  0  -0.364398  0  3.878836  0  0  -0.159546  -0.356142  0  3.862161  0
C  C38  1  0.91690027  0.77858036  0.54622851  1  0  0.160551  0  3.762769  0  0  0.177654  0  4.001199  0  0  0.182772  0  4.023011  0  0  0.005937  0.174436  0  3.986469  0
C  C39  1  0.08310334  0.22141500  0.45377488  1  0  0.160633  0  3.762871  0  0  0.17775  0  4.00123  0  0  0.182869  0  4.023041  0  0  0.005867  0.17453  0  3.9865  0
C  C40  1  0.95549842  0.73124024  0.42967306  1  0  -0.179997  0  3.720221  0  0  -0.199984  0  3.971527  0  0  -0.20816  0  3.993025  0  0  -0.091552  -0.19471  0  3.957522  0
C  C41  1  0.04450401  0.26875513  0.57032866  1  0  -0.179985  0  3.720418  0  0  -0.200032  0  3.971723  0  0  -0.208203  0  3.993206  0  0  -0.091569  -0.194755  0  3.957716  0
C  C42  1  0.88394334  0.64548045  0.39381839  1  0  0.129065  0  3.717968  0  0  0.096778  0  3.970179  0  0  0.103854  0  3.988828  0  0  0.041079  0.091957  0  3.957826  0
C  C43  1  0.11605709  0.35451684  0.60618254  1  0  0.128903  0  3.718084  0  0  0.096659  0  3.970312  0  0  0.103738  0  3.988965  0  0  0.041028  0.09184  0  3.957957  0
C  C44  1  0.73635477  0.65195185  0.57806059  1  0  0.126989  0  3.693672  0  0  0.098313  0  3.939896  0  0  0.10487  0  3.959176  0  0  0.042581  0.094473  0  3.926546  0
C  C45  1  0.26364565  0.34804544  0.42193946  1  0  0.126925  0  3.693665  0  0  0.098252  0  3.939906  0  0  0.10481  0  3.959191  0  0  0.042522  0.09441  0  3.926562  0
C  C46  1  0.80155481  0.73923014  0.62040049  1  0  -0.174651  0  3.71337  0  0  -0.191691  0  3.955809  0  0  -0.200474  0  3.980371  0  0  -0.088236  -0.186231  0  3.939396  0
C  C47  1  0.19844844  0.26076331  0.37960123  1  0  -0.174716  0  3.713307  0  0  -0.191751  0  3.95571  0  0  -0.200537  0  3.980273  0  0  -0.088183  -0.186295  0  3.939295  0
C  C48  1  0.04012776  0.76691896  0.82724827  1  0  -0.106311  0  3.776951  0  0  -0.066676  0  4.010014  0  0  -0.073149  0  4.038367  0  0  -0.029367  -0.062134  0  3.99055  0
C  C49  1  0.95987262  0.23308120  0.17275434  1  0  -0.106224  0  3.776803  0  0  -0.066708  0  4.010025  0  0  -0.073164  0  4.038354  0  0  -0.029357  -0.062166  0  3.990566  0
C  C50  1  0.00648905  0.65744367  0.87063206  1  0  -0.08362  0  3.780102  0  0  -0.103461  0  4.025592  0  0  -0.104483  0  4.0478  0  0  -0.08772  -0.102447  0  4.010287  0
C  C51  1  0.99350420  0.34255940  0.12937016  1  0  -0.083748  0  3.780139  0  0  -0.103541  0  4.025656  0  0  -0.10456  0  4.047842  0  0  -0.087752  -0.102517  0  4.010353  0
C  C52  1  0.89729409  0.66490572  0.97334042  1  0  -0.068612  0  3.754761  0  0  -0.082165  0  3.999993  0  0  -0.085293  0  4.022231  0  0  -0.09187  -0.079884  0  3.984947  0
C  C53  1  0.10269830  0.33510215  0.02666347  1  0  -0.068466  0  3.754675  0  0  -0.08202  0  3.999891  0  0  -0.085146  0  4.02213  0  0  -0.091787  -0.079739  0  3.984848  0
C  C54  1  0.82452918  0.78066146  0.03502729  1  0  -0.058496  0  3.732988  0  0  -0.072131  0  3.975429  0  0  -0.072392  0  3.995429  0  0  -0.08465  -0.071889  0  3.962164  0
C  C55  1  0.17546271  0.21935022  0.96497031  1  0  -0.058676  0  3.732757  0  0  -0.072261  0  3.975224  0  0  -0.072521  0  3.995228  0  0  -0.084739  -0.072035  0  3.961952  0
C  C56  1  0.85917076  0.88985410  0.99263185  1  0  -0.068823  0  3.752543  0  0  -0.079748  0  3.997448  0  0  -0.082902  0  4.0196  0  0  -0.089197  -0.077322  0  3.982401  0
C  C57  1  0.14082512  0.11015374  0.00736467  1  0  -0.068775  0  3.752622  0  0  -0.079637  0  3.997484  0  0  -0.0828  0  4.019629  0  0  -0.089117  -0.077213  0  3.982449  0
C  C58  1  0.96502335  0.88363639  0.88878285  1  0  -0.066258  0  3.727323  0  0  -0.086781  0  3.969739  0  0  -0.087642  0  3.99166  0  0  -0.082862  -0.086057  0  3.955018  0
C  C59  1  0.03497689  0.11636950  0.11121514  1  0  -0.066291  0  3.727393  0  0  -0.086787  0  3.96986  0  0  -0.087644  0  3.991781  0  0  -0.082897  -0.086087  0  3.955133  0
C  C60  1  0.29453496  0.85584451  0.71234576  1  0  -0.100796  0  3.780382  0  0  -0.063675  0  4.019553  0  0  -0.068743  0  4.046132  0  0  -0.028854  -0.060348  0  4.001751  0
C  C61  1  0.70546424  0.14415567  0.28765783  1  0  -0.10085  0  3.780489  0  0  -0.063741  0  4.019652  0  0  -0.068811  0  4.046231  0  0  -0.028895  -0.060414  0  4.001852  0
C  C62  1  0.31199964  0.95527966  0.63807722  1  0  -0.081169  0  3.744026  0  0  -0.098857  0  3.9805  0  0  -0.100552  0  4.003789  0  0  -0.088614  -0.097818  0  3.96487  0
C  C63  1  0.68799797  0.04472147  0.36192381  1  0  -0.0811  0  3.743897  0  0  -0.098788  0  3.980345  0  0  -0.10048  0  4.003632  0  0  -0.088585  -0.09775  0  3.964716  0
C  C64  1  0.41460929  0.02283774  0.66548507  1  0  -0.06132  0  3.749634  0  0  -0.072206  0  3.995444  0  0  -0.074851  0  4.018097  0  0  -0.088009  -0.070381  0  3.980056  0
C  C65  1  0.58538911  0.97716147  0.33450978  1  0  -0.061413  0  3.749659  0  0  -0.072315  0  3.995485  0  0  -0.074963  0  4.018138  0  0  -0.088092  -0.070488  0  3.9801  0
C  C66  1  0.50083240  0.99153895  0.76630437  1  0  -0.063345  0  3.744796  0  0  -0.077804  0  3.990966  0  0  -0.078766  0  4.010942  0  0  -0.086348  -0.076799  0  3.97726  0
C  C67  1  0.49917224  0.00846214  0.23368989  1  0  -0.063431  0  3.744692  0  0  -0.077881  0  3.990849  0  0  -0.078844  0  4.010826  0  0  -0.086367  -0.076875  0  3.977143  0
C  C68  1  0.48667333  0.89040505  0.83905811  1  0  -0.071664  0  3.770198  0  0  -0.079865  0  4.013229  0  0  -0.081789  0  4.034038  0  0  -0.089574  -0.07856  0  3.998739  0
C  C69  1  0.51333361  0.10959889  0.16093938  1  0  -0.071641  0  3.770208  0  0  -0.079821  0  4.013233  0  0  -0.081741  0  4.034036  0  0  -0.0895  -0.078517  0  3.998742  0
C  C70  1  0.38514565  0.82233632  0.81201899  1  0  -0.08754  0  3.745419  0  0  -0.108273  0  3.991118  0  0  -0.110107  0  4.012794  0  0  -0.089671  -0.106739  0  3.976426  0
C  C71  1  0.61485819  0.17766669  0.18798233  1  0  -0.087571  0  3.745656  0  0  -0.108308  0  3.991328  0  0  -0.110152  0  4.013006  0  0  -0.089711  -0.106775  0  3.976634  0
C  C72  1  0.66332752  0.37945721  0.83597190  1  0  0.594292  0  3.677878  0  0  0.5241  0  4.048081  0  0  0.55188  0  4.021322  0  0  0.286261  0.504194  0  4.067309  0
C  C73  1  0.33666979  0.62053914  0.16403022  1  0  0.594186  0  3.678151  0  0  0.524062  0  4.04819  0  0  0.551841  0  4.021438  0  0  0.286164  0.504131  0  4.067466  0
S  S74  1  0.58876734  0.31651181  0.70996235  1  0  1.11544  0  5.819212  0  0  1.0156  0  6.350759  0  0  1.059286  0  6.330844  0  0  0.483349  0.985552  0  6.363761  0
S  S75  1  0.41123108  0.68348741  0.29003603  1  0  1.11536  0  5.819345  0  0  1.015535  0  6.35085  0  0  1.059225  0  6.330932  0  0  0.483338  0.985493  0  6.363855  0
N  N76  1  0.77817338  0.60390674  0.46689301  1  0  -0.28351  0  3.305118  0  0  -0.202778  0  3.577978  0  0  -0.219965  0  3.594823  0  0  -0.348586  -0.191262  0  3.566144  0
N  N77  1  0.22182787  0.39608864  0.53310704  1  0  -0.283461  0  3.305099  0  0  -0.202751  0  3.577965  0  0  -0.219951  0  3.594827  0  0  -0.348528  -0.191236  0  3.56613  0
O  O78  1  0.58081435  0.41609459  0.61839060  1  0  -0.625757  0  2.110861  0  0  -0.567462  0  2.407044  0  0  -0.58701  0  2.387412  0  0  -0.351513  -0.553865  0  2.420376  0
O  O79  1  0.41918520  0.58390749  0.38161112  1  0  -0.625681  0  2.110934  0  0  -0.567449  0  2.407165  0  0  -0.587004  0  2.387536  0  0  -0.351502  -0.553851  0  2.420493  0
O  O80  1  0.71776415  0.19345266  0.68073659  1  0  -0.595429  0  1.959893  0  0  -0.563123  0  2.205398  0  0  -0.581057  0  2.192748  0  0  -0.336264  -0.550252  0  2.213303  0
O  O81  1  0.28223662  0.80654654  0.31926159  1  0  -0.595442  0  1.96001  0  0  -0.563132  0  2.205498  0  0  -0.581064  0  2.192842  0  0  -0.33629  -0.550262  0  2.213403  0
O  O82  1  0.42743356  0.31245351  0.76018865  1  0  -0.594762  0  1.993775  0  0  -0.565134  0  2.248876  0  0  -0.583996  0  2.237335  0  0  -0.330975  -0.551883  0  2.25671  0
O  O83  1  0.57256566  0.68754378  0.23980532  1  0  -0.594708  0  1.993643  0  0  -0.565088  0  2.248727  0  0  -0.583954  0  2.237185  0  0  -0.33095  -0.551842  0  2.256563  0
F  F84  1  0.81261565  0.39591538  0.80470542  1  0  -0.237798  0  1.203401  0  0  -0.190318  0  1.367486  0  0  -0.200824  0  1.3536  0  0  -0.091864  -0.182794  0  1.377313  0
F  F85  1  0.18738734  0.60407330  0.19530268  1  0  -0.237761  0  1.203443  0  0  -0.190283  0  1.367467  0  0  -0.200785  0  1.353584  0  0  -0.091858  -0.182751  0  1.377304  0
F  F86  1  0.68215551  0.29713108  0.92930419  1  0  -0.227724  0  1.202502  0  0  -0.182592  0  1.362497  0  0  -0.192234  0  1.347587  0  0  -0.091018  -0.175669  0  1.372925  0
F  F87  1  0.31783122  0.70286534  0.07069793  1  0  -0.227719  0  1.202712  0  0  -0.182581  0  1.36265  0  0  -0.19222  0  1.34774  0  0  -0.090944  -0.175649  0  1.373088  0
F  F88  1  0.55231146  0.49482543  0.87292065  1  0  -0.22833  0  1.194646  0  0  -0.195928  0  1.369446  0  0  -0.204852  0  1.352756  0  0  -0.099563  -0.18952  0  1.381102  0
F  F89  1  0.44769048  0.50517376  0.12707832  1  0  -0.22829  0  1.194665  0  0  -0.195914  0  1.369428  0  0  -0.204838  0  1.352741  0  0  -0.099554  -0.189499  0  1.381095  0
