# generated using pymatgen
data_MnH10C12N4O5
_symmetry_space_group_name_H-M   'P 1'
_cell_length_a   7.83420512
_cell_length_b   11.47389105
_cell_length_c   16.55880495
_cell_angle_alpha   89.99964398
_cell_angle_beta   89.99994526
_cell_angle_gamma   98.86462478
_symmetry_Int_Tables_number   1
_chemical_formula_structural   MnH10C12N4O5
_chemical_formula_sum   'Mn4 H40 C48 N16 O20'
_cell_volume   1470.67211296
_cell_formula_units_Z   4
loop_
 _symmetry_equiv_pos_site_id
 _symmetry_equiv_pos_as_xyz
  1  'x, y, z'
loop_
 _atom_site_type_symbol
 _atom_site_label
 _atom_site_symmetry_multiplicity
 _atom_site_fract_x
 _atom_site_fract_y
 _atom_site_fract_z
 _atom_site_occupancy
 _atom_site_hle17_ddec_charge
 _atom_site_hle17_ddec_spin_density
 _atom_site_hle17_ddec_sum_bond_order
 _atom_site_hle17_magmom
 _atom_site_hse06_10hf_ddec_charge
 _atom_site_hse06_10hf_ddec_spin_density
 _atom_site_hse06_10hf_ddec_sum_bond_order
 _atom_site_hse06_10hf_magmom
 _atom_site_hse06_ddec_charge
 _atom_site_hse06_ddec_spin_density
 _atom_site_hse06_ddec_sum_bond_order
 _atom_site_hse06_magmom
 _atom_site_pbe_cm5_charge
 _atom_site_pbe_ddec_charge
 _atom_site_pbe_ddec_spin_density
 _atom_site_pbe_ddec_sum_bond_order
 _atom_site_pbe_magmom
Mn  Mn0  1  0.53367733  0.26781291  0.70748575  1  1.074568  4.808632  1.786011  4.637  0.88857  4.744583  2.299839  4.485  0.954966  4.790288  2.228626  4.558  0.628099  0.836436  4.698763  2.352189  4.416
Mn  Mn1  1  0.96633403  0.23218599  0.20748406  1  1.074543  4.808642  1.785994  4.637  0.888567  4.744544  2.299824  4.485  0.954972  4.790251  2.228612  4.558  0.628069  0.836428  4.698729  2.352174  4.416
Mn  Mn2  1  0.46633356  0.73218999  0.29251882  1  1.074618  4.808696  1.785951  4.637  0.888631  4.744591  2.299784  4.485  0.95503  4.790297  2.228573  4.558  0.628087  0.836495  4.698779  2.352136  4.416
Mn  Mn3  1  0.03365480  0.76780995  0.79251688  1  1.074447  4.808665  1.786098  4.637  0.888462  4.744522  2.299931  4.485  0.954857  4.790228  2.22873  4.558  0.628015  0.836322  4.698699  2.352267  4.416
H  H4  1  0.89789041  0.13746294  0.65585541  1  0.127636  -0.000167  0.973761  0.0  0.134273  0.000333  1.038665  0.0  0.137324  0.000162  1.037567  0.0  0.110408  0.13204  0.000506  1.039592  0.0
H  H5  1  0.60210925  0.36254003  0.15585574  1  0.127647  -0.000165  0.97372  0.0  0.13427  0.000333  1.038641  0.0  0.137321  0.000161  1.037544  0.0  0.110438  0.132038  0.000505  1.039579  0.0
H  H6  1  0.10211034  0.86252941  0.34414614  1  0.127563  -0.000171  0.973765  0.0  0.134229  0.000333  1.038655  0.0  0.137279  0.000162  1.037558  0.0  0.110395  0.131999  0.000506  1.039596  0.0
H  H7  1  0.39787229  0.63746831  0.84414158  1  0.127574  -0.000165  0.973635  0.0  0.134205  0.000333  1.038557  0.0  0.137254  0.000161  1.037462  0.0  0.110395  0.131977  0.000506  1.039487  0.0
H  H8  1  0.69582770  0.09928856  0.51996771  1  0.148861  -0.000161  0.924034  0.0  0.159752  -0.000137  0.977538  0.0  0.16374  -0.000167  0.974581  0.0  0.122515  0.156827  -9.9e-05  0.979799  0.0
H  H9  1  0.80418400  0.40071563  0.01997141  1  0.148864  -0.000158  0.924156  0.0  0.159775  -0.000137  0.977623  0.0  0.163763  -0.000167  0.974666  0.0  0.122515  0.156852  -9.9e-05  0.97989  0.0
H  H10  1  0.30418020  0.90071789  0.48002961  1  0.148894  -0.000156  0.924094  0.0  0.159784  -0.000137  0.977591  0.0  0.163771  -0.000167  0.974637  0.0  0.122552  0.156861  -9.9e-05  0.979859  0.0
H  H11  1  0.19581479  0.59928467  0.98003195  1  0.148843  -0.000159  0.924139  0.0  0.159747  -0.000137  0.977617  0.0  0.163735  -0.000167  0.974661  0.0  0.122507  0.156823  -9.9e-05  0.979881  0.0
H  H12  1  0.66849387  0.84951849  0.77700337  1  0.313487  -0.000219  0.906353  0.0  0.297043  -3.3e-05  0.96066  0.0  0.305512  -0.000165  0.954102  0.0  0.320747  0.291006  0.000105  0.965382  0.0
H  H13  1  0.83150782  0.65047875  0.27700693  1  0.313467  -0.000219  0.906349  0.0  0.297041  -3.3e-05  0.960658  0.0  0.305511  -0.000166  0.954099  0.0  0.320754  0.291007  0.000105  0.965376  0.0
H  H14  1  0.33148899  0.15047924  0.22299214  1  0.313365  -0.000219  0.906482  0.0  0.296899  -3.3e-05  0.960854  0.0  0.305371  -0.000165  0.954291  0.0  0.320675  0.290865  0.000105  0.965567  0.0
H  H15  1  0.16850372  0.34952150  0.72299039  1  0.31343  -0.000219  0.906415  0.0  0.296982  -3.3e-05  0.960744  0.0  0.305452  -0.000165  0.954185  0.0  0.320703  0.290947  0.000105  0.965467  0.0
H  H16  1  0.82147720  0.20920662  0.83356314  1  0.114015  -8.3e-05  0.961232  0.0  0.1249  0.00021  1.015644  0.0  0.127591  0.000119  1.014394  0.0  0.120602  0.122861  0.000303  1.016804  0.0
H  H17  1  0.67853026  0.29078758  0.33355892  1  0.114032  -8.2e-05  0.961195  0.0  0.124894  0.00021  1.015638  0.0  0.127585  0.000119  1.014387  0.0  0.120597  0.122879  0.000303  1.016773  0.0
H  H18  1  0.17852311  0.79078927  0.16644022  1  0.113981  -8.3e-05  0.96129  0.0  0.124856  0.00021  1.015714  0.0  0.127547  0.000119  1.014465  0.0  0.120595  0.122845  0.000303  1.016845  0.0
H  H19  1  0.32148532  0.70921353  0.66644746  1  0.114087  -8.4e-05  0.961297  0.0  0.124947  0.00021  1.01571  0.0  0.127638  0.000118  1.014459  0.0  0.120638  0.122923  0.000303  1.016847  0.0
H  H20  1  0.86507041  0.97871874  0.87095125  1  0.105257  0.000368  0.979888  0.0  0.115063  0.000792  1.040618  0.0  0.11701  0.000583  1.040826  0.0  0.123325  0.113633  0.00099  1.040661  0.0
H  H21  1  0.63492817  0.52127145  0.37095002  1  0.105398  0.000365  0.979785  0.0  0.115134  0.000791  1.040601  0.0  0.11708  0.000582  1.04081  0.0  0.123313  0.113703  0.000989  1.040645  0.0
H  H22  1  0.13490952  0.02127194  0.12905211  1  0.105314  0.000368  0.9798  0.0  0.115093  0.000791  1.040548  0.0  0.117041  0.000583  1.040756  0.0  0.123317  0.113662  0.00099  1.04059  0.0
H  H23  1  0.36508676  0.47873231  0.62905092  1  0.105303  0.000367  0.979811  0.0  0.115058  0.000791  1.040597  0.0  0.117005  0.000582  1.040805  0.0  0.12328  0.113629  0.000989  1.040646  0.0
H  H24  1  0.49502778  0.97268194  0.68376634  1  0.113745  -0.000651  0.958019  0.0  0.123351  -0.000139  1.018178  0.0  0.126609  -0.000217  1.014018  0.0  0.141714  0.120867  -6e-05  1.02135  0.0
H  H25  1  0.00498247  0.52732334  0.18377058  1  0.11378  -0.000654  0.957878  0.0  0.123379  -0.000139  1.018063  0.0  0.12664  -0.000217  1.013891  0.0  0.14172  0.120894  -5.9e-05  1.021238  0.0
H  H26  1  0.50497033  0.02732632  0.31622917  1  0.11365  -0.000647  0.958118  0.0  0.123408  -0.000139  1.018102  0.0  0.126674  -0.000217  1.013924  0.0  0.141712  0.120924  -5.9e-05  1.021277  0.0
H  H27  1  0.99502548  0.47267251  0.81622855  1  0.113658  -0.000651  0.958137  0.0  0.123427  -0.000139  1.018107  0.0  0.126694  -0.000217  1.013927  0.0  0.1417  0.12094  -6e-05  1.021285  0.0
H  H28  1  0.82860360  0.68682553  0.63449944  1  0.311485  -0.000298  0.917249  0.0  0.287649  -6.4e-05  0.984181  0.0  0.297123  -0.000216  0.976201  0.0  0.311708  0.280878  9.6e-05  0.989975  0.0
H  H29  1  0.67138781  0.81318105  0.13450056  1  0.311605  -0.000299  0.917196  0.0  0.287701  -6.4e-05  0.984207  0.0  0.297176  -0.000216  0.976225  0.0  0.311722  0.280932  9.6e-05  0.990004  0.0
H  H30  1  0.17139326  0.31317743  0.36549728  1  0.311549  -0.000298  0.917249  0.0  0.287653  -6.4e-05  0.984253  0.0  0.297128  -0.000216  0.976273  0.0  0.31173  0.280886  9.6e-05  0.990048  0.0
H  H31  1  0.32860612  0.18681487  0.86549858  1  0.311578  -0.000298  0.91723  0.0  0.287665  -6.4e-05  0.984258  0.0  0.297136  -0.000216  0.97628  0.0  0.311695  0.280897  9.6e-05  0.990051  0.0
H  H32  1  0.71398260  0.53968399  0.74351248  1  0.097795  -0.000681  0.979644  0.0  0.102058  3e-06  1.05032  0.0  0.104443  -0.000146  1.047928  0.0  0.133851  0.100226  0.00015  1.052091  0.0
H  H33  1  0.78599984  0.96032338  0.24351291  1  0.097841  -0.00068  0.979602  0.0  0.102081  3e-06  1.0503  0.0  0.104467  -0.000146  1.047907  0.0  0.133915  0.100258  0.000149  1.052077  0.0
H  H34  1  0.28601299  0.46031899  0.25648666  1  0.097774  -0.000686  0.979656  0.0  0.102014  3e-06  1.050351  0.0  0.1044  -0.000146  1.047958  0.0  0.133831  0.100189  0.000149  1.052123  0.0
H  H35  1  0.21399622  0.03967076  0.75648743  1  0.097829  -0.000684  0.979646  0.0  0.102076  3e-06  1.050342  0.0  0.104462  -0.000146  1.047951  0.0  0.133901  0.100245  0.00015  1.052115  0.0
H  H36  1  0.64891333  0.35750006  0.52139963  1  0.11263  -0.000321  0.956285  0.0  0.122742  -0.000179  1.01334  0.0  0.124877  -0.000216  1.013116  0.0  0.119164  0.121204  -0.000133  1.013621  0.0
H  H37  1  0.85109219  0.14250503  0.02139537  1  0.112639  -0.000329  0.956135  0.0  0.122757  -0.000179  1.013193  0.0  0.124895  -0.000216  1.012961  0.0  0.119152  0.121204  -0.000133  1.013455  0.0
H  H38  1  0.35108291  0.64250026  0.47860131  1  0.112672  -0.00032  0.956208  0.0  0.122757  -0.000178  1.013302  0.0  0.124896  -0.000216  1.013067  0.0  0.11916  0.121211  -0.000133  1.013562  0.0
H  H39  1  0.14890701  0.85749704  0.97860739  1  0.112673  -0.000326  0.956062  0.0  0.122742  -0.000179  1.013195  0.0  0.124883  -0.000216  1.012951  0.0  0.119161  0.121196  -0.000133  1.013464  0.0
H  H40  1  0.79801606  0.59126863  0.49307036  1  0.102431  0.000135  0.973874  0.0  0.109934  0.000155  1.038981  0.0  0.112286  8.6e-05  1.0381  0.0  0.11688  0.108233  0.000229  1.039662  0.0
H  H41  1  0.70198596  0.90873718  0.99307136  1  0.102437  0.000138  0.973874  0.0  0.109971  0.000155  1.03893  0.0  0.112315  8.6e-05  1.038071  0.0  0.116907  0.108265  0.000229  1.03961  0.0
H  H42  1  0.20197891  0.40873170  0.50692575  1  0.102366  0.000137  0.973943  0.0  0.109954  0.000155  1.038958  0.0  0.112298  8.6e-05  1.038099  0.0  0.116908  0.108232  0.000229  1.039655  0.0
H  H43  1  0.29800667  0.09126404  0.00692958  1  0.102462  0.000137  0.973872  0.0  0.109968  0.000155  1.038968  0.0  0.112317  8.6e-05  1.038094  0.0  0.116908  0.10826  0.000229  1.039649  0.0
C  C44  1  0.27089511  0.19516804  0.61204550  1  0.58801  0.006044  3.985572  0.004  0.538484  0.011497  4.278955  0.007  0.572615  0.009166  4.272831  0.006  0.195547  0.514911  0.013809  4.281967  0.009
C  C45  1  0.22910448  0.30482841  0.11203817  1  0.587867  0.006047  3.98555  0.004  0.538361  0.011497  4.278919  0.007  0.572501  0.009165  4.272787  0.006  0.195521  0.514791  0.013808  4.281947  0.009
C  C46  1  0.72909945  0.80483052  0.38796088  1  0.588026  0.006041  3.985496  0.004  0.538519  0.011496  4.278873  0.007  0.572655  0.009164  4.272746  0.006  0.195585  0.514953  0.013807  4.281903  0.009
C  C47  1  0.77088839  0.69516839  0.88795069  1  0.587978  0.006044  3.985647  0.004  0.538473  0.011501  4.279067  0.007  0.572612  0.009169  4.272942  0.006  0.195511  0.514893  0.013816  4.282086  0.009
C  C48  1  0.10832307  0.16864216  0.56734430  1  0.07569  -0.002938  3.708191  -0.002  0.066214  -0.00149  3.980716  -0.001  0.067431  -0.00229  3.994667  -0.002  0.062273  0.065086  -0.000544  3.971655  -0.001
C  C49  1  0.39168007  0.33135822  0.06734041  1  0.07589  -0.002942  3.707995  -0.002  0.066471  -0.001491  3.980521  -0.001  0.067692  -0.002287  3.994469  -0.002  0.062295  0.065312  -0.000543  3.971493  -0.001
C  C50  1  0.89167622  0.83134401  0.43266087  1  0.075796  -0.002949  3.707848  -0.002  0.066312  -0.001491  3.980456  -0.001  0.06753  -0.002288  3.994408  -0.002  0.06229  0.065147  -0.000543  3.971435  -0.001
C  C51  1  0.60831843  0.66865709  0.93265570  1  0.075781  -0.002959  3.707801  -0.002  0.066178  -0.001493  3.980476  -0.001  0.067385  -0.002291  3.994438  -0.002  0.062292  0.065054  -0.000548  3.971415  -0.001
C  C52  1  0.93955581  0.14220173  0.59338228  1  -0.134627  0.002673  3.721309  0.002  -0.168631  0.004117  3.989667  0.003  -0.168973  0.00333  4.006386  0.002  -0.101146  -0.168114  0.005078  3.978224  0.003
C  C53  1  0.56044648  0.35779563  0.09338145  1  -0.134648  0.002669  3.721221  0.002  -0.168634  0.004118  3.989579  0.003  -0.168977  0.003328  4.0063  0.002  -0.101156  -0.168124  0.005078  3.978166  0.003
C  C54  1  0.06044304  0.85778798  0.40661927  1  -0.134583  0.002685  3.721158  0.002  -0.168605  0.004118  3.989542  0.003  -0.168949  0.00333  4.006266  0.002  -0.10118  -0.168088  0.005078  3.978132  0.003
C  C55  1  0.43954739  0.64221088  0.90661708  1  -0.134561  0.002674  3.720867  0.002  -0.168524  0.00412  3.989287  0.003  -0.168862  0.00333  4.006013  0.002  -0.10115  -0.168016  0.00508  3.977847  0.003
C  C56  1  0.83536405  0.12173919  0.52328973  1  -0.129701  -0.000272  3.702293  0.0  -0.162435  0.001111  3.967456  0.001  -0.163691  0.000425  3.983346  0.0  -0.094769  -0.16137  0.001765  3.956548  0.001
C  C57  1  0.66464722  0.37826320  0.02328936  1  -0.129762  -0.000296  3.702337  0.0  -0.162498  0.001112  3.967507  0.001  -0.163754  0.000427  3.983395  0.0  -0.094818  -0.161449  0.001766  3.956618  0.001
C  C58  1  0.16464219  0.87826020  0.47671001  1  -0.129735  -0.000311  3.702349  0.0  -0.162469  0.001113  3.967503  0.001  -0.163726  0.000424  3.983391  0.0  -0.094812  -0.161429  0.001767  3.956615  0.001
C  C59  1  0.33535006  0.62174153  0.97670856  1  -0.129709  -0.000294  3.702219  0.0  -0.162426  0.001111  3.96741  0.001  -0.163682  0.000421  3.983297  0.0  -0.094756  -0.161362  0.001763  3.956514  0.001
C  C60  1  0.94639349  0.13861831  0.45826263  1  0.083048  0.0023  3.674376  0.002  0.073325  0.002786  3.945549  0.002  0.075285  0.002124  3.959801  0.002  0.066896  0.071813  0.003742  3.936178  0.003
C  C61  1  0.55361893  0.36138175  0.95826088  1  0.082936  0.002314  3.674181  0.002  0.073236  0.002787  3.945458  0.002  0.075196  0.002122  3.959712  0.002  0.066895  0.071725  0.003741  3.936082  0.003
C  C62  1  0.05361672  0.86139254  0.54174012  1  0.082893  0.002319  3.674186  0.002  0.073247  0.002787  3.945311  0.002  0.07521  0.002126  3.959564  0.002  0.066884  0.071748  0.003741  3.93592  0.003
C  C63  1  0.44638241  0.63861854  0.04173644  1  0.083086  0.002318  3.673955  0.002  0.073267  0.002787  3.945249  0.002  0.07523  0.00213  3.959499  0.002  0.066902  0.071754  0.003746  3.935879  0.003
C  C64  1  0.91252262  0.13969871  0.37070137  1  0.598079  0.004185  4.002624  0.003  0.54768  0.007996  4.30181  0.005  0.581379  0.006035  4.295197  0.004  0.201899  0.524522  0.010018  4.305292  0.007
C  C65  1  0.58748806  0.36029865  0.87070202  1  0.598405  0.004189  4.002514  0.003  0.547961  0.007995  4.301765  0.005  0.581653  0.006035  4.295152  0.004  0.201969  0.524798  0.010017  4.305246  0.007
C  C66  1  0.08749340  0.86029887  0.62929958  1  0.598307  0.004179  4.002224  0.003  0.547873  0.007996  4.301454  0.005  0.581564  0.006035  4.294841  0.004  0.201905  0.524696  0.010018  4.304936  0.007
C  C67  1  0.41252031  0.63969896  0.12929892  1  0.598252  0.004174  4.002237  0.003  0.547837  0.007994  4.301484  0.005  0.581531  0.006031  4.294873  0.004  0.201946  0.524679  0.010015  4.304964  0.007
C  C68  1  0.76124034  0.12589201  0.80806029  1  -0.021392  0.004021  3.749922  0.005  -0.051269  0.006819  4.007018  0.007  -0.050129  0.00575  4.028332  0.006  -0.005878  -0.052224  0.007911  3.992586  0.008
C  C69  1  0.73877190  0.37410063  0.30805809  1  -0.021407  0.004015  3.750135  0.005  -0.051256  0.006819  4.007224  0.007  -0.050115  0.005752  4.028538  0.006  -0.005842  -0.052226  0.007911  3.992779  0.008
C  C70  1  0.23875762  0.87410477  0.19194126  1  -0.021306  0.004031  3.750062  0.005  -0.051169  0.006817  4.007136  0.007  -0.050031  0.00575  4.02845  0.006  -0.005854  -0.052146  0.00791  3.992697  0.008
C  C71  1  0.26124474  0.62589959  0.69194285  1  -0.021575  0.004023  3.750315  0.005  -0.051432  0.006819  4.007417  0.007  -0.050292  0.00575  4.02873  0.006  -0.005924  -0.052396  0.00791  3.992968  0.008
C  C72  1  0.78222714  0.01282870  0.82748946  1  -0.01447  -0.000511  3.710108  0.0  -0.050427  0.001806  3.969774  0.001  -0.048879  0.000623  3.989402  0.001  0.001781  -0.051402  0.00282  3.956692  0.002
C  C73  1  0.71777696  0.48716204  0.32748861  1  -0.014549  -0.000499  3.710155  0.0  -0.050428  0.001805  3.969841  0.001  -0.048883  0.000619  3.989472  0.001  0.001827  -0.0514  0.002818  3.956755  0.002
C  C74  1  0.21776786  0.98716633  0.17251027  1  -0.01448  -0.000521  3.710083  0.0  -0.050375  0.001806  3.969724  0.001  -0.048828  0.000622  3.989354  0.001  0.001854  -0.051349  0.002819  3.956641  0.002
C  C75  1  0.28222610  0.51283472  0.67250811  1  -0.014358  -0.000513  3.710158  0.0  -0.050255  0.001806  3.96978  0.001  -0.048707  0.000621  3.98941  0.001  0.001883  -0.051237  0.002818  3.956707  0.002
C  C76  1  0.59152557  0.00736740  0.72827886  1  0.227347  0.01112  3.625502  0.011  0.170108  0.013983  3.886909  0.013  0.184415  0.012381  3.899787  0.011  0.155484  0.160586  0.015866  3.87778  0.014
C  C77  1  0.90848081  0.49263220  0.22827849  1  0.227326  0.011126  3.625442  0.011  0.170125  0.013983  3.88684  0.013  0.184436  0.012381  3.899712  0.011  0.155462  0.160601  0.015867  3.877713  0.014
C  C78  1  0.40847109  0.99263468  0.27172088  1  0.227389  0.011103  3.62552  0.011  0.170072  0.013983  3.886892  0.013  0.184379  0.012378  3.89977  0.011  0.155464  0.160546  0.015865  3.877767  0.014
C  C79  1  0.09152691  0.50736806  0.77172185  1  0.227368  0.011121  3.625493  0.011  0.170028  0.013984  3.886838  0.013  0.184333  0.012382  3.899718  0.011  0.155429  0.1605  0.015868  3.877716  0.014
C  C80  1  0.71576007  0.52011815  0.67959667  1  0.215762  0.01183  3.677716  0.011  0.154163  0.015283  3.949594  0.013  0.168695  0.013553  3.963355  0.012  0.143916  0.144532  0.0173  3.939847  0.015
C  C81  1  0.78422691  0.97988626  0.17959521  1  0.215801  0.011828  3.677753  0.011  0.154239  0.015283  3.949629  0.013  0.168772  0.01355  3.963388  0.012  0.143934  0.144594  0.017299  3.93991  0.015
C  C82  1  0.28423235  0.47988218  0.32040185  1  0.215868  0.011849  3.677725  0.011  0.154294  0.015281  3.949591  0.013  0.168827  0.013552  3.963349  0.012  0.143982  0.144652  0.017298  3.939868  0.015
C  C83  1  0.21577126  0.02011140  0.82040573  1  0.215708  0.011839  3.677756  0.011  0.154135  0.015279  3.949627  0.013  0.168664  0.01355  3.963389  0.012  0.143857  0.144508  0.017296  3.939882  0.015
C  C84  1  0.68568901  0.42986843  0.56300271  1  -0.024006  0.003544  3.769093  0.005  -0.054734  0.005956  4.03019  0.007  -0.053929  0.004954  4.053359  0.006  -0.008031  -0.055516  0.007019  4.014459  0.007
C  C85  1  0.81430869  0.07013630  0.06299938  1  -0.024001  0.003607  3.768588  0.005  -0.054725  0.005956  4.029732  0.007  -0.053919  0.004954  4.052903  0.006  -0.007996  -0.055486  0.007019  4.013947  0.007
C  C86  1  0.31430617  0.57013277  0.43699642  1  -0.024048  0.003575  3.768956  0.005  -0.054755  0.005957  4.030098  0.007  -0.053948  0.004955  4.053269  0.006  -0.008032  -0.055518  0.007019  4.014309  0.007
C  C87  1  0.18568969  0.92986224  0.93700217  1  -0.024053  0.003589  3.768519  0.005  -0.054757  0.005956  4.029698  0.007  -0.05395  0.004953  4.052872  0.006  -0.00801  -0.055523  0.007017  4.013935  0.007
C  C88  1  0.75723680  0.54493509  0.54833170  1  -0.015959  -0.001029  3.712371  0.0  -0.054978  0.000382  3.973327  0.001  -0.05312  -0.000577  3.992689  0.0  -0.004199  -0.056164  0.001164  3.960453  0.001
C  C89  1  0.74276413  0.95506784  0.04833158  1  -0.015911  -0.00111  3.712305  0.0  -0.054967  0.000383  3.973262  0.001  -0.053112  -0.000577  3.992619  0.0  -0.004256  -0.056148  0.001164  3.960367  0.001
C  C90  1  0.24275944  0.45506523  0.45166562  1  -0.015775  -0.001082  3.712335  0.0  -0.054873  0.000382  3.973245  0.001  -0.053019  -0.000578  3.992602  0.0  -0.004177  -0.056036  0.001164  3.960362  0.001
C  C91  1  0.25723594  0.04493246  0.95166997  1  -0.016001  -0.00109  3.71228  0.0  -0.055018  0.000383  3.973235  0.001  -0.053164  -0.000577  3.992596  0.0  -0.004282  -0.056197  0.001164  3.960351  0.001
N  N92  1  0.64128759  0.12154564  0.74598519  1  -0.422875  0.028278  3.28348  0.006  -0.345865  0.030053  3.589766  0.001  -0.371314  0.02488  3.603657  -0.003  -0.370753  -0.327018  0.034743  3.579373  0.004
N  N93  1  0.85872233  0.37845290  0.24598293  1  -0.422879  0.02828  3.283658  0.006  -0.345896  0.030056  3.589962  0.001  -0.371348  0.024881  3.603859  -0.003  -0.370768  -0.327048  0.034745  3.579574  0.004
N  N94  1  0.35871778  0.87845552  0.25401454  1  -0.422895  0.028277  3.283454  0.006  -0.345886  0.030052  3.589778  0.001  -0.371339  0.024879  3.603681  -0.003  -0.370726  -0.327039  0.034741  3.579395  0.004
N  N95  1  0.14128963  0.62154911  0.75401741  1  -0.422742  0.028273  3.283421  0.006  -0.345755  0.030051  3.589724  0.001  -0.371201  0.024878  3.603618  -0.003  -0.370718  -0.326911  0.03474  3.579329  0.004
N  N96  1  0.67423648  0.93999548  0.77690956  1  -0.270794  0.002237  3.457147  0.002  -0.20436  0.004665  3.690771  0.004  -0.22009  0.003537  3.704975  0.003  -0.372514  -0.193878  0.005744  3.681212  0.005
N  N97  1  0.82577414  0.56000172  0.27691352  1  -0.270802  0.002232  3.457093  0.002  -0.204409  0.004665  3.690716  0.004  -0.220139  0.003537  3.704922  0.003  -0.372508  -0.193916  0.005744  3.681145  0.005
N  N98  1  0.32575297  0.06000310  0.22308896  1  -0.270693  0.002245  3.457007  0.002  -0.204315  0.004665  3.690734  0.004  -0.220047  0.003537  3.704945  0.003  -0.372474  -0.193823  0.005743  3.681163  0.005
N  N99  1  0.17423975  0.43999763  0.72308743  1  -0.270798  0.002236  3.457065  0.002  -0.20438  0.004664  3.690707  0.004  -0.220113  0.003537  3.70492  0.003  -0.372455  -0.193892  0.005743  3.681148  0.005
N  N100  1  0.66061583  0.41511477  0.64562647  1  -0.43355  0.026019  3.297692  0.002  -0.354899  0.026993  3.603772  -0.004  -0.38039  0.021479  3.61652  -0.007  -0.373199  -0.336113  0.031969  3.594334  -0.001
N  N101  1  0.83937642  0.08488921  0.14562366  1  -0.433557  0.026006  3.297354  0.002  -0.354941  0.026987  3.603464  -0.004  -0.380435  0.021476  3.616214  -0.007  -0.373252  -0.336147  0.031964  3.594009  -0.001
N  N102  1  0.33938168  0.58488554  0.35437267  1  -0.433639  0.026009  3.297679  0.002  -0.354982  0.026993  3.60375  -0.004  -0.380472  0.021478  3.616495  -0.007  -0.37324  -0.336191  0.031969  3.59431  -0.001
N  N103  1  0.16062068  0.91510934  0.85437849  1  -0.433445  0.026005  3.297308  0.002  -0.354794  0.026991  3.603387  -0.004  -0.380286  0.021479  3.616139  -0.007  -0.373147  -0.336003  0.031965  3.593931  -0.001
N  N104  1  0.77404986  0.60011507  0.62250239  1  -0.269692  0.001855  3.446426  0.002  -0.198424  0.004331  3.676981  0.004  -0.214687  0.003196  3.691267  0.003  -0.372437  -0.187637  0.005417  3.66746  0.005
N  N105  1  0.72593991  0.89988986  0.12250311  1  -0.269887  0.001868  3.44653  0.002  -0.198571  0.00433  3.677125  0.004  -0.21483  0.003196  3.691406  0.003  -0.372438  -0.18778  0.005417  3.667615  0.005
N  N106  1  0.22594659  0.39988613  0.37749553  1  -0.269878  0.001854  3.446575  0.002  -0.19858  0.004331  3.677201  0.004  -0.214839  0.003196  3.691485  0.003  -0.372491  -0.187786  0.005417  3.667684  0.005
N  N107  1  0.27405571  0.10010781  0.87749843  1  -0.269789  0.001858  3.446484  0.002  -0.198484  0.004329  3.677103  0.004  -0.214741  0.003194  3.691386  0.003  -0.372405  -0.187696  0.005414  3.667584  0.005
O  O108  1  0.25770038  0.21983018  0.68838248  1  -0.650682  0.032478  2.00391  0.024  -0.5774  0.03645  2.249696  0.025  -0.608957  0.031522  2.23781  0.021  -0.322048  -0.553631  0.04137  2.256741  0.03
O  O109  1  0.24228931  0.28016824  0.18837646  1  -0.650714  0.032489  2.004022  0.024  -0.577379  0.036458  2.249715  0.025  -0.608962  0.031531  2.23784  0.021  -0.322041  -0.553622  0.04138  2.256775  0.03
O  O110  1  0.74228803  0.78016399  0.31162390  1  -0.650686  0.03249  2.003926  0.024  -0.577434  0.03646  2.24975  0.025  -0.609005  0.031532  2.237867  0.021  -0.322032  -0.553674  0.041382  2.256812  0.03
O  O111  1  0.75769377  0.71983037  0.81161180  1  -0.650637  0.032489  2.003905  0.024  -0.57731  0.036455  2.249603  0.025  -0.608881  0.031528  2.237728  0.021  -0.322022  -0.553548  0.041377  2.256651  0.03
O  O112  1  0.41627661  0.19637152  0.57901711  1  -0.587999  0.020508  1.901528  0.016  -0.537792  0.029407  2.132047  0.023  -0.563417  0.024923  2.120538  0.019  -0.305562  -0.51867  0.034077  2.1391  0.028
O  O113  1  0.08373287  0.30362873  0.07900201  1  -0.587985  0.020502  1.901612  0.016  -0.537774  0.029404  2.132092  0.023  -0.563397  0.02492  2.120578  0.019  -0.305571  -0.518655  0.034075  2.139144  0.028
O  O114  1  0.58373111  0.80362875  0.42099953  1  -0.588024  0.020504  1.901595  0.016  -0.537794  0.029407  2.132069  0.023  -0.563415  0.024921  2.120557  0.019  -0.305556  -0.518671  0.034076  2.139122  0.028
O  O115  1  0.91626249  0.69637866  0.92098263  1  -0.588013  0.020512  1.901716  0.016  -0.53779  0.02941  2.132218  0.023  -0.563414  0.024925  2.120703  0.019  -0.305533  -0.518678  0.034078  2.139276  0.028
O  O116  1  0.11413274  0.16702903  0.48455994  1  -0.182968  0.000222  2.40451  0.001  -0.115769  0.001053  2.623663  0.001  -0.130378  0.00061  2.630876  0.001  -0.112477  -0.106052  0.001604  2.618953  0.002
O  O117  1  0.38587570  0.33296476  0.98455455  1  -0.182917  0.000225  2.40419  0.001  -0.115873  0.001053  2.623456  0.001  -0.130486  0.00061  2.630672  0.001  -0.11245  -0.106139  0.001604  2.618743  0.002
O  O118  1  0.88587329  0.83296948  0.51544704  1  -0.182959  0.000226  2.404298  0.001  -0.115854  0.001053  2.623516  0.001  -0.130467  0.000611  2.630731  0.001  -0.112498  -0.106119  0.001604  2.618795  0.002
O  O119  1  0.61412457  0.66703643  0.01544096  1  -0.183041  0.000228  2.404239  0.001  -0.115743  0.001053  2.623417  0.001  -0.130352  0.00061  2.630634  0.001  -0.112469  -0.106015  0.001604  2.618696  0.002
O  O120  1  0.04069794  0.18492263  0.32489441  1  -0.64747  0.035923  2.055675  0.026  -0.577182  0.040489  2.316767  0.027  -0.608136  0.035512  2.30236  0.023  -0.324212  -0.553881  0.045301  2.325483  0.032
O  O121  1  0.45931306  0.31507530  0.82489570  1  -0.647637  0.035923  2.055758  0.026  -0.577289  0.040487  2.316846  0.027  -0.608228  0.035511  2.302429  0.023  -0.324284  -0.554015  0.045302  2.325602  0.032
O  O122  1  0.95931699  0.81508114  0.67510834  1  -0.647562  0.035926  2.055767  0.026  -0.577312  0.040489  2.316919  0.027  -0.608255  0.035514  2.302505  0.023  -0.324312  -0.55403  0.045305  2.325664  0.032
O  O123  1  0.54069062  0.68492410  0.17510464  1  -0.647542  0.035922  2.055593  0.026  -0.577209  0.040485  2.316657  0.027  -0.608156  0.035512  2.302249  0.023  -0.324222  -0.553922  0.0453  2.325398  0.032
O  O124  1  0.76345085  0.10175889  0.34561815  1  -0.603676  0.004951  1.936426  0.003  -0.561195  0.010807  2.163472  0.009  -0.585264  0.008777  2.154908  0.007  -0.309587  -0.544017  0.012994  2.16872  0.011
O  O125  1  0.73655611  0.39823873  0.84561616  1  -0.603808  0.004949  1.936416  0.003  -0.561298  0.010808  2.163471  0.009  -0.585369  0.008777  2.15491  0.007  -0.309615  -0.544118  0.012997  2.16871  0.011
O  O126  1  0.23656152  0.89824489  0.65438521  1  -0.603767  0.004956  1.936283  0.003  -0.5612  0.010807  2.163262  0.009  -0.585265  0.008774  2.154699  0.007  -0.309553  -0.54405  0.012995  2.168557  0.011
O  O127  1  0.26344695  0.60175802  0.15438297  1  -0.603785  0.004957  1.936243  0.003  -0.561286  0.010807  2.163322  0.009  -0.585354  0.008774  2.154761  0.007  -0.30963  -0.544097  0.012993  2.168546  0.011
