# generated using pymatgen
data_CuH12C10S2(NO3)2
_symmetry_space_group_name_H-M   'P 1'
_cell_length_a   7.43173992
_cell_length_b   8.54901617
_cell_length_c   11.52812121
_cell_angle_alpha   89.99744981
_cell_angle_beta   90.00079221
_cell_angle_gamma   100.40011338
_symmetry_Int_Tables_number   1
_chemical_formula_structural   CuH12C10S2(NO3)2
_chemical_formula_sum   'Cu2 H24 C20 S4 N4 O12'
_cell_volume   720.39541520
_cell_formula_units_Z   2
loop_
 _symmetry_equiv_pos_site_id
 _symmetry_equiv_pos_as_xyz
  1  'x, y, z'
loop_
 _atom_site_type_symbol
 _atom_site_label
 _atom_site_symmetry_multiplicity
 _atom_site_fract_x
 _atom_site_fract_y
 _atom_site_fract_z
 _atom_site_occupancy
 _atom_site_hle17_ddec_charge
 _atom_site_hle17_ddec_spin_density
 _atom_site_hle17_ddec_sum_bond_order
 _atom_site_hle17_magmom
 _atom_site_hse06_10hf_ddec_charge
 _atom_site_hse06_10hf_ddec_spin_density
 _atom_site_hse06_10hf_ddec_sum_bond_order
 _atom_site_hse06_10hf_magmom
 _atom_site_hse06_ddec_charge
 _atom_site_hse06_ddec_spin_density
 _atom_site_hse06_ddec_sum_bond_order
 _atom_site_hse06_magmom
 _atom_site_pbe_cm5_charge
 _atom_site_pbe_ddec_charge
 _atom_site_pbe_ddec_spin_density
 _atom_site_pbe_ddec_sum_bond_order
 _atom_site_pbe_magmom
Cu  Cu0  1  0.50000039  0.49999918  0.50000002  1  0.863798  -0.714771  1.840313  -0.514  0.841387  -0.810946  2.221466  -0.637  0.92982  -0.887794  2.157476  -0.723  0.746571  0.784929  -0.731611  2.265407  -0.563
Cu  Cu1  1  0.00000135  0.00000000  0.00000000  1  0.863795  0.714789  1.840516  0.514  0.841376  0.810966  2.221684  0.637  0.929868  0.887802  2.157587  0.723  0.746641  0.784943  0.731613  2.265578  0.563
H  H2  1  0.23667113  0.35579799  0.63270541  1  0.350597  0.000106  0.948522  0.0  0.327885  8.2e-05  1.021279  0.0  0.338642  9.2e-05  1.009603  0.0  0.280987  0.320357  5.7e-05  1.029413  0.0
H  H3  1  0.26333537  0.14420411  0.13269953  1  0.350704  -0.000106  0.948469  0.0  0.328004  -8.2e-05  1.021196  0.0  0.338764  -9.2e-05  1.009512  0.0  0.281039  0.320473  -5.7e-05  1.029329  0.0
H  H4  1  0.76332720  0.64420156  0.36729464  1  0.35058  0.000106  0.948566  0.0  0.327905  8.2e-05  1.021272  0.0  0.338663  9.2e-05  1.009592  0.0  0.281  0.320371  5.7e-05  1.029427  0.0
H  H5  1  0.73666871  0.85579069  0.86730139  1  0.350563  -0.000106  0.948651  0.0  0.327941  -8.2e-05  1.021257  0.0  0.3387  -9.2e-05  1.009579  0.0  0.281015  0.320406  -5.7e-05  1.029396  0.0
H  H6  1  0.11685237  0.69976188  0.90229387  1  0.115607  6e-05  0.942883  0.0  0.118792  0.000157  1.013447  0.001  0.122227  0.000123  1.009431  0.0  0.122594  0.116214  0.000173  1.01648  0.001
H  H7  1  0.38314268  0.80023087  0.40229173  1  0.115562  -6.3e-05  0.942834  0.0  0.118794  -0.000157  1.01335  -0.001  0.12223  -0.000123  1.009331  0.0  0.122595  0.116213  -0.000173  1.016387  -0.001
H  H8  1  0.88314621  0.30023885  0.09770270  1  0.115659  6.1e-05  0.942829  0.0  0.1188  0.000157  1.013432  0.001  0.122235  0.000123  1.009417  0.0  0.122595  0.116223  0.000173  1.016466  0.001
H  H9  1  0.61685455  0.19976986  0.59771005  1  0.115561  -6e-05  0.942871  0.0  0.118801  -0.000157  1.013377  -0.001  0.122238  -0.000123  1.009358  0.0  0.122621  0.116223  -0.000173  1.016413  -0.001
H  H10  1  0.19346759  0.17052075  0.77863404  1  0.136819  0.000376  0.932469  0.001  0.143902  0.000324  0.991728  0.001  0.146598  0.000255  0.988716  0.001  0.136225  0.14176  0.000354  0.993996  0.001
H  H11  1  0.30654467  0.32948111  0.27865367  1  0.136828  -0.000379  0.932455  -0.001  0.14392  -0.000324  0.991728  -0.001  0.146611  -0.000255  0.9887  -0.001  0.136235  0.141775  -0.000355  0.993994  -0.001
H  H12  1  0.80653369  0.82947999  0.22136601  1  0.136762  0.000378  0.932492  0.001  0.14384  0.000324  0.991766  0.001  0.146534  0.000255  0.988755  0.001  0.136209  0.141697  0.000354  0.994031  0.001
H  H13  1  0.69346089  0.67052082  0.72134725  1  0.136872  -0.000379  0.932432  -0.001  0.143934  -0.000324  0.991728  -0.001  0.146625  -0.000255  0.988707  -0.001  0.136262  0.141791  -0.000355  0.993987  -0.001
H  H14  1  0.03343774  0.33503693  0.47722851  1  0.063031  4.9e-05  0.944102  0.0  0.081372  4.5e-05  1.009632  0.0  0.08223  4e-05  1.009519  0.0  0.082238  0.080661  4.6e-05  1.009831  0.0
H  H15  1  0.46655201  0.16498536  0.97721151  1  0.062968  -4.7e-05  0.94403  0.0  0.081347  -4.5e-05  1.009516  0.0  0.082208  -4e-05  1.009405  0.0  0.08228  0.080641  -4.6e-05  1.009704  0.0
H  H16  1  0.96655974  0.66496499  0.52276980  1  0.062987  5e-05  0.94397  0.0  0.081318  4.5e-05  1.009529  0.0  0.082187  4e-05  1.009408  0.0  0.082206  0.080602  4.6e-05  1.009732  0.0
H  H17  1  0.53344962  0.83501062  0.02279027  1  0.062861  -5.1e-05  0.944141  0.0  0.081309  -4.5e-05  1.009537  0.0  0.08215  -4e-05  1.009446  0.0  0.082269  0.080604  -4.6e-05  1.009722  0.0
H  H18  1  0.98492911  0.15364344  0.55820472  1  0.055621  -1.9e-05  0.965204  0.0  0.070009  2e-06  1.040774  0.0  0.070708  5e-06  1.041261  0.0  0.079114  0.069522  -5e-06  1.040441  0.0
H  H19  1  0.51506334  0.34637473  0.05818041  1  0.055685  2.1e-05  0.965088  0.0  0.07005  -2e-06  1.040664  0.0  0.070754  -5e-06  1.041147  0.0  0.07913  0.06957  5e-06  1.040332  0.0
H  H20  1  0.01506886  0.84636086  0.44179359  1  0.055618  -1.7e-05  0.96514  0.0  0.069997  2e-06  1.040721  0.0  0.070704  5e-06  1.0412  0.0  0.079091  0.069504  -5e-06  1.040385  0.0
H  H21  1  0.48493780  0.65361887  0.94182050  1  0.055738  1.7e-05  0.965063  0.0  0.070099  -2e-06  1.040632  0.0  0.070803  -5e-06  1.041112  0.0  0.079158  0.06962  5e-06  1.040301  0.0
H  H22  1  0.12174421  0.16429030  0.43027264  1  0.077413  -3.1e-05  0.945317  0.0  0.095317  -1.4e-05  1.011987  0.0  0.096011  -1e-05  1.012015  0.0  0.090308  0.094766  -1.9e-05  1.012045  0.0
H  H23  1  0.37822713  0.33573236  0.93025356  1  0.07749  3.1e-05  0.944963  0.0  0.095323  1.4e-05  1.011713  0.0  0.096018  1e-05  1.011738  0.0  0.090292  0.094774  1.9e-05  1.011776  0.0
H  H24  1  0.87825376  0.83571401  0.56972568  1  0.077407  -2.8e-05  0.945285  0.0  0.095277  -1.4e-05  1.011982  0.0  0.09597  -1e-05  1.012015  0.0  0.090308  0.094724  -1.9e-05  1.012038  0.0
H  H25  1  0.62177720  0.66426362  0.06974649  1  0.077705  2.8e-05  0.944824  0.0  0.095455  1.4e-05  1.011651  0.0  0.096153  1e-05  1.01167  0.0  0.090354  0.094904  1.9e-05  1.011714  0.0
C  C26  1  0.24897864  0.77822436  0.73626785  1  -0.199398  -0.00436  3.720651  -0.005  -0.17747  -0.003096  3.980808  -0.003  -0.188821  -0.001809  4.001183  -0.002  -0.022924  -0.170202  -0.003971  3.967497  -0.004
C  C27  1  0.25100669  0.72177099  0.23628186  1  -0.199496  0.00434  3.720886  0.005  -0.177602  0.003095  3.980996  0.003  -0.188953  0.001808  4.001362  0.002  -0.022974  -0.170385  0.00397  3.967758  0.004
C  C28  1  0.75101908  0.22177875  0.26373133  1  -0.19942  -0.004348  3.720659  -0.005  -0.177493  -0.003096  3.98078  -0.003  -0.188844  -0.001808  4.001154  -0.002  -0.022977  -0.170222  -0.003971  3.967469  -0.004
C  C29  1  0.74898760  0.27822855  0.76372513  1  -0.199682  0.004364  3.721119  0.005  -0.177759  0.003095  3.981207  0.003  -0.189111  0.001807  4.001574  0.002  -0.023029  -0.170526  0.003968  3.967956  0.004
C  C30  1  0.16326034  0.79364851  0.84017313  1  0.089633  -0.000884  3.681806  -0.002  0.043417  -6.9e-05  3.95339  -0.001  0.052918  -0.000536  3.970275  -0.001  0.026333  0.037362  0.000285  3.942265  0.0
C  C31  1  0.33672484  0.70634193  0.34017974  1  0.089643  0.00091  3.682165  0.002  0.04341  6.9e-05  3.953731  0.001  0.052914  0.000536  3.970613  0.001  0.026297  0.037378  -0.000284  3.942635  0.0
C  C32  1  0.83673934  0.20635103  0.15982518  1  0.089555  -0.000897  3.681792  -0.002  0.04338  -6.9e-05  3.953367  -0.001  0.052882  -0.000537  3.97025  -0.001  0.026341  0.037322  0.000285  3.942242  0.0
C  C33  1  0.66326518  0.29365642  0.65982378  1  0.089695  0.000878  3.682126  0.002  0.043463  6.9e-05  3.953676  0.001  0.052969  0.000538  3.970556  0.001  0.026302  0.037415  -0.000284  3.942572  0.0
C  C34  1  0.29493173  0.63282540  0.68237356  1  0.650542  0.002884  3.957187  0.006  0.606865  -0.000348  4.25852  0.002  0.644249  3.9e-05  4.252018  0.002  0.202434  0.58138  -0.000635  4.26219  0.002
C  C35  1  0.20506301  0.86716242  0.18238062  1  0.650803  -0.002885  3.957455  -0.006  0.60725  0.00035  4.258559  -0.002  0.644635  -3.7e-05  4.252052  -0.002  0.202615  0.581777  0.000636  4.262229  -0.002
C  C36  1  0.70506954  0.36717534  0.31762476  1  0.650649  0.002883  3.957391  0.006  0.606986  -0.000348  4.258696  0.002  0.64437  3.9e-05  4.252195  0.002  0.202481  0.581502  -0.000635  4.262376  0.002
C  C37  1  0.79494010  0.13284069  0.81761856  1  0.650668  -0.002885  3.957315  -0.006  0.607109  0.000349  4.258432  -0.002  0.644493  -3.7e-05  4.251929  -0.002  0.202605  0.58163  0.000636  4.262105  -0.002
C  C38  1  0.20231508  0.04525267  0.77789275  1  0.036013  -0.006202  3.602695  -0.006  -0.003973  -0.00137  3.893751  -0.002  0.011103  -0.002253  3.902966  -0.003  0.054036  -0.013628  -0.000623  3.887817  -0.001
C  C39  1  0.29767709  0.45474327  0.27790296  1  0.035983  0.006229  3.603569  0.006  -0.00398  0.001368  3.894535  0.002  0.011109  0.002249  3.903741  0.003  0.054074  -0.01361  0.000621  3.888597  0.001
C  C40  1  0.79768423  0.95475163  0.22210730  1  0.036053  -0.006225  3.602851  -0.006  -0.003934  -0.001369  3.893913  -0.002  0.011145  -0.002252  3.903128  -0.003  0.054021  -0.013581  -0.000623  3.887965  -0.001
C  C41  1  0.70232173  0.54525866  0.72209622  1  0.035973  0.00621  3.603517  0.006  -0.003954  0.001367  3.894506  0.002  0.011133  0.00225  3.903714  0.003  0.054093  -0.013594  0.000622  3.888552  0.001
C  C42  1  0.09012506  0.23117806  0.50666112  1  -0.030872  0.000116  3.722097  0.0  -0.123149  0.000115  3.999541  0.0  -0.11775  9.7e-05  4.005011  0.0  -0.166535  -0.12665  0.000119  3.995672  0.0
C  C43  1  0.40985595  0.26883736  0.00664723  1  -0.030854  -0.000121  3.72175  0.0  -0.123051  -0.000114  3.999193  0.0  -0.117665  -9.6e-05  4.004669  0.0  -0.166532  -0.126563  -0.000119  3.995325  0.0
C  C44  1  0.90987046  0.76882743  0.49333720  1  -0.03079  0.000104  3.721864  0.0  -0.123028  0.000115  3.999317  0.0  -0.117644  9.8e-05  4.004782  0.0  -0.166511  -0.126521  0.000119  3.995438  0.0
C  C45  1  0.59014678  0.73115743  0.99335455  1  -0.031026  -0.000105  3.721693  0.0  -0.123211  -0.000115  3.999196  0.0  -0.117806  -9.7e-05  4.004671  0.0  -0.166582  -0.126721  -0.000119  3.99532  0.0
S  S46  1  0.29860728  0.95956583  0.66688605  1  0.254916  0.005989  2.640403  0.007  0.261883  0.004305  2.965245  0.005  0.262894  0.003073  2.967434  0.004  0.166776  0.25992  0.005076  2.964645  0.006
S  S47  1  0.20139675  0.54043599  0.16692380  1  0.255086  -0.005991  2.64143  -0.007  0.262041  -0.004304  2.96626  -0.005  0.263054  -0.003069  2.968446  -0.004  0.16682  0.260094  -0.005074  2.965685  -0.006
S  S48  1  0.70139204  0.04043847  0.33311140  1  0.254973  0.005994  2.640462  0.007  0.261935  0.004305  2.965306  0.005  0.262948  0.003072  2.967493  0.004  0.166813  0.259961  0.005075  2.964712  0.006
S  S49  1  0.79860427  0.45956356  0.83307799  1  0.255189  -0.005989  2.641464  -0.007  0.262128  -0.004305  2.966275  -0.005  0.263145  -0.003071  2.968462  -0.004  0.166862  0.260177  -0.005075  2.965701  -0.006
N  N50  1  0.13808886  0.94561907  0.86265987  1  -0.282599  0.064583  3.356559  0.081  -0.237307  0.046981  3.660121  0.062  -0.268868  0.039531  3.681697  0.055  -0.361267  -0.217723  0.048809  3.646733  0.063
N  N51  1  0.36189361  0.55438194  0.36266043  1  -0.282643  -0.06462  3.357038  -0.081  -0.237411  -0.046988  3.660627  -0.062  -0.268977  -0.039535  3.682229  -0.055  -0.361296  -0.217844  -0.048815  3.647276  -0.063
N  N52  1  0.86191131  0.05438285  0.13733931  1  -0.282591  0.064593  3.356682  0.081  -0.237297  0.046978  3.660219  0.062  -0.268861  0.03953  3.6818  0.055  -0.361245  -0.217711  0.048809  3.646823  0.063
N  N53  1  0.63810094  0.44561879  0.63734309  1  -0.282633  -0.064598  3.357105  -0.081  -0.23743  -0.046986  3.660721  -0.062  -0.268999  -0.039535  3.682329  -0.055  -0.361315  -0.217833  -0.048815  3.647329  -0.063
O  O54  1  0.39485487  0.66136814  0.59060923  1  -0.596467  -0.084385  2.077676  -0.113  -0.572352  -0.055448  2.360351  -0.081  -0.615213  -0.043008  2.352726  -0.066  -0.323445  -0.542798  -0.060967  2.365106  -0.086
O  O55  1  0.10515777  0.83864411  0.09061721  1  -0.596536  0.084381  2.078028  0.113  -0.572472  0.055441  2.360655  0.081  -0.615348  0.043002  2.353017  0.066  -0.323508  -0.542922  0.060968  2.365404  0.086
O  O56  1  0.60515044  0.33863260  0.40938821  1  -0.596514  -0.084377  2.077871  -0.113  -0.572394  -0.055443  2.360523  -0.081  -0.615255  -0.043004  2.352899  -0.066  -0.323464  -0.542845  -0.060957  2.365292  -0.086
O  O57  1  0.89484803  0.16135901  0.90938631  1  -0.596504  0.084399  2.077883  0.113  -0.572428  0.05545  2.360512  0.081  -0.615308  0.043009  2.352877  0.066  -0.323529  -0.542882  0.060973  2.365271  0.086
O  O58  1  0.25549914  0.27744002  0.57081986  1  -0.557661  0.000751  2.182517  0.0  -0.502624  0.000675  2.432988  0.0  -0.522705  0.000909  2.422448  0.0  -0.425201  -0.488238  0.000375  2.439921  0.0
O  O59  1  0.24449677  0.22256927  0.07081556  1  -0.557826  -0.000752  2.182492  0.0  -0.502832  -0.000676  2.432995  0.0  -0.522915  -0.00091  2.422447  0.0  -0.425312  -0.488457  -0.000376  2.439958  0.0
O  O60  1  0.74449589  0.72256309  0.42917759  1  -0.55767  0.000753  2.182531  0.0  -0.502636  0.000675  2.432894  0.0  -0.522719  0.00091  2.422367  0.0  -0.425183  -0.488234  0.000376  2.439814  0.0
O  O61  1  0.75550645  0.77742790  0.92918449  1  -0.557676  -0.000754  2.182511  0.0  -0.502708  -0.000675  2.432902  0.0  -0.522798  -0.00091  2.422373  0.0  -0.425285  -0.48835  -0.000376  2.439913  0.0
O  O62  1  0.23506925  0.49953270  0.72757712  1  -0.595143  0.000449  1.947295  0.0  -0.553303  0.000132  2.165249  0.0  -0.579182  0.000723  2.158383  0.001  -0.314985  -0.535212  -0.000406  2.169431  -0.001
O  O63  1  0.26492075  0.00045787  0.22756818  1  -0.595256  -0.00045  1.947345  0.0  -0.553456  -0.000133  2.165223  0.0  -0.579341  -0.000723  2.158357  -0.001  -0.315057  -0.535365  0.000406  2.169386  0.001
O  O64  1  0.76493312  0.50046685  0.27242292  1  -0.595191  0.00045  1.947333  0.0  -0.553373  0.000132  2.165268  0.0  -0.579251  0.000723  2.158401  0.001  -0.314994  -0.535272  -0.000407  2.169449  -0.001
O  O65  1  0.73509484  0.99954050  0.77243013  1  -0.595161  -0.000449  1.947193  0.0  -0.553395  -0.000133  2.165054  0.0  -0.579275  -0.000724  2.158185  -0.001  -0.315088  -0.535297  0.000406  2.169219  0.001
