# generated using pymatgen
data_KH13C15S2N2O
_symmetry_space_group_name_H-M   'P 1'
_cell_length_a   6.63379214
_cell_length_b   10.47330284
_cell_length_c   12.22186305
_cell_angle_alpha   64.71371992
_cell_angle_beta   90.09394920
_cell_angle_gamma   80.81542595
_symmetry_Int_Tables_number   1
_chemical_formula_structural   KH13C15S2N2O
_chemical_formula_sum   'K2 H26 C30 S4 N4 O2'
_cell_volume   755.62017483
_cell_formula_units_Z   2
loop_
 _symmetry_equiv_pos_site_id
 _symmetry_equiv_pos_as_xyz
  1  'x, y, z'
loop_
 _atom_site_type_symbol
 _atom_site_label
 _atom_site_symmetry_multiplicity
 _atom_site_fract_x
 _atom_site_fract_y
 _atom_site_fract_z
 _atom_site_occupancy
 _atom_site_hle17_bader_spin_density
 _atom_site_hle17_ddec_charge
 _atom_site_hle17_ddec_spin_density
 _atom_site_hle17_ddec_sum_bond_order
 _atom_site_hle17_magmom
 _atom_site_hse06_10hf_bader_spin_density
 _atom_site_hse06_10hf_ddec_charge
 _atom_site_hse06_10hf_ddec_spin_density
 _atom_site_hse06_10hf_ddec_sum_bond_order
 _atom_site_hse06_10hf_magmom
 _atom_site_hse06_bader_spin_density
 _atom_site_hse06_ddec_charge
 _atom_site_hse06_ddec_spin_density
 _atom_site_hse06_ddec_sum_bond_order
 _atom_site_hse06_magmom
 _atom_site_pbe_bader_spin_density
 _atom_site_pbe_cm5_charge
 _atom_site_pbe_ddec_charge
 _atom_site_pbe_ddec_spin_density
 _atom_site_pbe_ddec_sum_bond_order
 _atom_site_pbe_magmom
K  K0  1  0.30264320  0.05631774  0.84936064  1  0  0.803767  0  0.590635  0  0  0.713237  0  0.823514  0  0  0.727624  0  0.806344  0  0  0.622656  0.702023  0  0.836152  0
K  K1  1  0.69735641  0.94368594  0.15063649  1  0  0.80377  0  0.590641  0  0  0.713214  0  0.823558  0  0  0.727617  0  0.806378  0  0  0.62264  0.702007  0  0.836189  0
H  H2  1  0.24250541  0.89141823  0.64873784  1  0  0.061047  0  0.945054  0  0  0.070736  0  1.01077  0  0  0.073064  0  1.008791  0  0  0.109519  0.068882  0  1.012786  0
H  H3  1  0.75748692  0.10858438  0.35125889  1  0  0.061  0  0.945106  0  0  0.070692  0  1.010819  0  0  0.073019  0  1.008844  0  0  0.109529  0.068841  0  1.012831  0
H  H4  1  0.24293141  0.91344427  0.43554683  1  0  0.103638  0  0.953696  0  0  0.114416  0  1.014296  0  0  0.117124  0  1.01406  0  0  0.105974  0.111666  0  1.016155  0
H  H5  1  0.75706699  0.08655834  0.56445316  1  0  0.103606  0  0.953706  0  0  0.114383  0  1.014314  0  0  0.117092  0  1.014076  0  0  0.105952  0.111636  0  1.016167  0
H  H6  1  0.25923936  0.15219451  0.26543080  1  0  0.095363  0  0.988146  0  0  0.102858  0  1.056144  0  0  0.10486  0  1.055726  0  0  0.097386  0.101585  0  1.05608  0
H  H7  1  0.74077067  0.84780381  0.73456910  1  0  0.095316  0  0.988022  0  0  0.102736  0  1.056127  0  0  0.104727  0  1.055721  0  0  0.097309  0.10146  0  1.05607  0
H  H8  1  0.25641879  0.41085455  0.19578232  1  0  0.093981  0  0.960382  0  0  0.104991  0  1.02416  0  0  0.107226  0  1.024279  0  0  0.100568  0.103038  0  1.024739  0
H  H9  1  0.74359055  0.58914055  0.80421876  1  0  0.093999  0  0.96034  0  0  0.105015  0  1.024109  0  0  0.107248  0  1.024232  0  0  0.100574  0.103063  0  1.02469  0
H  H10  1  0.24062031  0.62194232  0.24292729  1  0  0.10181  0  0.954448  0  0  0.114659  0  1.015233  0  0  0.117099  0  1.01425  0  0  0.10464  0.112986  0  1.015666  0
H  H11  1  0.75938479  0.37805171  0.75707501  1  0  0.101852  0  0.95449  0  0  0.114702  0  1.015245  0  0  0.117141  0  1.014268  0  0  0.104649  0.113028  0  1.01568  0
H  H12  1  0.22778546  0.72146565  0.39234251  1  0  0.101265  0  0.955828  0  0  0.112043  0  1.021513  0  0  0.11507  0  1.01873  0  0  0.102757  0.109992  0  1.023651  0
H  H13  1  0.77221697  0.27853266  0.60765168  1  0  0.101303  0  0.955786  0  0  0.112066  0  1.02149  0  0  0.115094  0  1.018706  0  0  0.102784  0.110014  0  1.023629  0
H  H14  1  0.23637239  0.67843162  0.61222679  1  0  0.093637  0  0.9573  0  0  0.107115  0  1.016067  0  0  0.109439  0  1.016437  0  0  0.102352  0.104046  0  1.018565  0
H  H15  1  0.76362542  0.32157313  0.38776751  1  0  0.093556  0  0.957278  0  0  0.10706  0  1.016032  0  0  0.109384  0  1.0164  0  0  0.10232  0.10399  0  1.018529  0
H  H16  1  0.26076201  0.42696256  0.77273377  1  0  0.060147  0  0.965734  0  0  0.066335  0  1.037705  0  0  0.06858  0  1.0359  0  0  0.10301  0.064929  0  1.038278  0
H  H17  1  0.73923430  0.57304219  0.22726217  1  0  0.060097  0  0.965712  0  0  0.066273  0  1.0377  0  0  0.068516  0  1.035898  0  0  0.102975  0.064876  0  1.038262  0
H  H18  1  0.72671633  0.31530481  0.96209688  1  0  0.053645  0  0.9264  0  0  0.072117  0  0.987251  0  0  0.072151  0  0.986742  0  0  0.102147  0.07205  0  0.987671  0
H  H19  1  0.27328645  0.68469243  0.03790507  1  0  0.053677  0  0.926357  0  0  0.072149  0  0.987219  0  0  0.07219  0  0.986701  0  0  0.102182  0.072082  0  0.987638  0
H  H20  1  0.96609274  0.36942437  0.97562830  1  0  0.052611  0  0.975985  0  0  0.066115  0  1.043442  0  0  0.066966  0  1.042893  0  0  0.09091  0.065475  0  1.043845  0
H  H21  1  0.03390501  0.63057502  0.02437614  1  0  0.052584  0  0.975986  0  0  0.066093  0  1.043451  0  0  0.066942  0  1.042906  0  0  0.090903  0.065454  0  1.043853  0
H  H22  1  0.69458478  0.47907828  0.06758440  1  0  0.10816  0  0.973108  0  0  0.128828  0  1.037604  0  0  0.129981  0  1.037888  0  0  0.083177  0.127811  0  1.037672  0
H  H23  1  0.30541142  0.52092111  0.93241677  1  0  0.10818  0  0.973106  0  0  0.128841  0  1.037611  0  0  0.129994  0  1.037896  0  0  0.083181  0.127826  0  1.037675  0
H  H24  1  0.88128094  0.35230282  0.18305454  1  0  0.102521  0  0.958781  0  0  0.123692  0  1.022838  0  0  0.124809  0  1.023518  0  0  0.087176  0.122833  0  1.02242  0
H  H25  1  0.11871406  0.64769550  0.81694948  1  0  0.102511  0  0.958812  0  0  0.123697  0  1.022855  0  0  0.124813  0  1.023536  0  0  0.087176  0.122843  0  1.022431  0
H  H26  1  0.63919115  0.30645324  0.16329356  1  0  0.099686  0  0.964055  0  0  0.117675  0  1.032261  0  0  0.119394  0  1.031851  0  0  0.085575  0.116373  0  1.032767  0
H  H27  1  0.36080505  0.69354615  0.83670680  1  0  0.099623  0  0.964055  0  0  0.117637  0  1.032239  0  0  0.119357  0  1.031828  0  0  0.085553  0.116334  0  1.032751  0
C  C28  1  0.24859090  0.99467507  0.57222738  1  0  0.125182  0  3.765425  0  0  0.099541  0  4.027019  0  0  0.105745  0  4.04387  0  0  0.046241  0.096116  0  4.01612  0
C  C29  1  0.75141558  0.00532540  0.42777338  1  0  0.125279  0  3.765405  0  0  0.099632  0  4.026998  0  0  0.105837  0  4.043849  0  0  0.046261  0.096206  0  4.016095  0
C  C30  1  0.24825939  0.00627846  0.45325466  1  0  -0.116702  0  3.756964  0  0  -0.132008  0  4.010593  0  0  -0.137906  0  4.032949  0  0  -0.086955  -0.127279  0  3.996465  0
C  C31  1  0.75174106  0.99372201  0.54674611  1  0  -0.116728  0  3.756838  0  0  -0.132036  0  4.010456  0  0  -0.137934  0  4.032807  0  0  -0.086934  -0.127305  0  3.99633  0
C  C32  1  0.25571483  0.13834727  0.35905148  1  0  -0.059397  0  3.703023  0  0  -0.081327  0  3.95041  0  0  -0.08049  0  3.969916  0  0  -0.070814  -0.082488  0  3.936216  0
C  C33  1  0.74428916  0.86165104  0.64094843  1  0  -0.059287  0  3.702859  0  0  -0.081172  0  3.950209  0  0  -0.080327  0  3.969723  0  0  -0.070742  -0.082333  0  3.936022  0
C  C34  1  0.25905835  0.25773998  0.38414313  1  0  0.013472  0  3.806997  0  0  0.029685  0  4.036111  0  0  0.027323  0  4.061415  0  0  -0.008282  0.032231  0  4.018872  0
C  C35  1  0.74094141  0.74225726  0.61585801  1  0  0.013443  0  3.806968  0  0  0.029765  0  4.035959  0  0  0.027404  0  4.061261  0  0  -0.008292  0.032307  0  4.018733  0
C  C36  1  0.25619385  0.39848585  0.28914238  1  0  -0.118858  0  3.774085  0  0  -0.139567  0  4.028723  0  0  -0.143832  0  4.0529  0  0  -0.091526  -0.137388  0  4.012628  0
C  C37  1  0.74381096  0.60150925  0.71085871  1  0  -0.118871  0  3.774159  0  0  -0.139605  0  4.028763  0  0  -0.143865  0  4.052938  0  0  -0.091522  -0.137427  0  4.012674  0
C  C38  1  0.24815802  0.51374161  0.31492860  1  0  -0.096305  0  3.756971  0  0  -0.119109  0  4.009075  0  0  -0.121244  0  4.032258  0  0  -0.083175  -0.11676  0  3.992789  0
C  C39  1  0.75184378  0.48625349  0.68507251  1  0  -0.096381  0  3.757225  0  0  -0.119206  0  4.00932  0  0  -0.121343  0  4.032509  0  0  -0.083204  -0.116856  0  3.993037  0
C  C40  1  0.24871867  0.49600609  0.43765459  1  0  0.022748  0  3.781317  0  0  0.041924  0  4.004401  0  0  0.038915  0  4.029623  0  0  -0.003027  0.043285  0  3.988223  0
C  C41  1  0.75127726  0.50399437  0.56234538  1  0  0.022752  0  3.781395  0  0  0.042024  0  4.00436  0  0  0.039018  0  4.02958  0  0  -0.002991  0.043385  0  3.988185  0
C  C42  1  0.23918517  0.61393070  0.46626802  1  0  -0.042145  0  3.672992  0  0  -0.068997  0  3.925576  0  0  -0.066544  0  3.943251  0  0  -0.064806  -0.070798  0  3.914308  0
C  C43  1  0.76080949  0.38606868  0.53372989  1  0  -0.042237  0  3.673006  0  0  -0.069119  0  3.92562  0  0  -0.066666  0  3.943294  0  0  -0.064871  -0.07092  0  3.914351  0
C  C44  1  0.24287730  0.59059680  0.58629957  1  0  -0.122584  0  3.758565  0  0  -0.13993  0  4.016234  0  0  -0.146531  0  4.039068  0  0  -0.090072  -0.134623  0  4.001938  0
C  C45  1  0.75711326  0.40940688  0.41369677  1  0  -0.122466  0  3.75852  0  0  -0.139838  0  4.016188  0  0  -0.146438  0  4.039022  0  0  -0.090005  -0.13453  0  4.001891  0
C  C46  1  0.25655152  0.44922714  0.67666675  1  0  0.129943  0  3.754687  0  0  0.105842  0  4.01442  0  0  0.112284  0  4.031702  0  0  0.046982  0.102002  0  4.000792  0
C  C47  1  0.74343906  0.55077654  0.32333205  1  0  0.129947  0  3.754749  0  0  0.105874  0  4.014452  0  0  0.112316  0  4.031739  0  0  0.046982  0.102026  0  4.000818  0
C  C48  1  0.25877058  0.35703620  0.53553255  1  0  0.132421  0  3.748757  0  0  0.131603  0  3.984877  0  0  0.13568  0  4.005711  0  0  0.116805  0.127755  0  3.97204  0
C  C49  1  0.74122864  0.64296319  0.46446862  1  0  0.132479  0  3.748664  0  0  0.131625  0  3.984831  0  0  0.1357  0  4.005665  0  0  0.116813  0.127778  0  3.971993  0
C  C50  1  0.25955138  0.23491615  0.50798145  1  0  0.128862  0  3.739667  0  0  0.128127  0  3.977295  0  0  0.131826  0  3.997978  0  0  0.1158  0.125859  0  3.964529  0
C  C51  1  0.74044907  0.76508431  0.49201932  1  0  0.128893  0  3.739511  0  0  0.128057  0  3.977237  0  0  0.131757  0  3.997921  0  0  0.115825  0.12579  0  3.964471  0
C  C52  1  0.14195184  0.11063795  0.08916549  1  0  0.322396  0  3.886786  0  0  0.303733  0  4.191633  0  0  0.332176  0  4.193711  0  0  0.089497  0.284978  0  4.189116  0
C  C53  1  0.85805289  0.88936359  0.91083733  1  0  0.322424  0  3.886661  0  0  0.303778  0  4.191468  0  0  0.332221  0  4.193545  0  0  0.089484  0.285022  0  4.188952  0
C  C54  1  0.84776945  0.31059369  0.02601039  1  0  0.14401  0  3.59254  0  0  0.085844  0  3.860052  0  0  0.095283  0  3.864975  0  0  -0.074521  0.07937  0  3.856747  0
C  C55  1  0.15222827  0.68940570  0.97399079  1  0  0.143958  0  3.592624  0  0  0.085759  0  3.860199  0  0  0.095192  0  3.865123  0  0  -0.074567  0.079283  0  3.856895  0
C  C56  1  0.76051621  0.36432985  0.11598205  1  0  -0.326142  0  3.704993  0  0  -0.402614  0  3.949169  0  0  -0.405603  0  3.957261  0  0  -0.251354  -0.400281  0  3.943698  0
C  C57  1  0.23948028  0.63566847  0.88402034  1  0  -0.326067  0  3.705022  0  0  -0.402547  0  3.94918  0  0  -0.405537  0  3.95728  0  0  -0.251316  -0.400216  0  3.943706  0
S  S58  1  0.30861479  0.22470351  0.02715568  1  0  -0.520072  0  1.94277  0  0  -0.48842  0  2.243316  0  0  -0.502722  0  2.235976  0  0  -0.23937  -0.478223  0  2.24808  0
S  S59  1  0.69138636  0.77530017  0.97284391  1  0  -0.520126  0  1.942692  0  0  -0.488466  0  2.243219  0  0  -0.502766  0  2.235875  0  0  -0.2394  -0.478268  0  2.247987  0
S  S60  1  0.20506442  0.92973396  0.15696978  1  0  -0.510404  0  1.903231  0  0  -0.497987  0  2.219301  0  0  -0.511172  0  2.211764  0  0  -0.259336  -0.48852  0  2.224071  0
S  S61  1  0.79493904  0.07026650  0.84303017  1  0  -0.510375  0  1.903281  0  0  -0.49796  0  2.219323  0  0  -0.511146  0  2.211789  0  0  -0.259294  -0.48849  0  2.224094  0
N  N62  1  0.25583603  0.10365265  0.59998967  1  0  -0.360794  0  3.11757  0  0  -0.322645  0  3.386098  0  0  -0.333525  0  3.401102  0  0  -0.380325  -0.315995  0  3.376374  0
N  N63  1  0.74416088  0.89634996  0.40001114  1  0  -0.360834  0  3.117553  0  0  -0.322658  0  3.386124  0  0  -0.333539  0  3.401127  0  0  -0.380356  -0.316008  0  3.376398  0
N  N64  1  0.26392001  0.33577512  0.65321757  1  0  -0.369379  0  3.126768  0  0  -0.331329  0  3.396392  0  0  -0.34328  0  3.412163  0  0  -0.386224  -0.321663  0  3.384523  0
N  N65  1  0.73607263  0.66422641  0.34678201  1  0  -0.369346  0  3.126759  0  0  -0.331288  0  3.396394  0  0  -0.343242  0  3.412167  0  0  -0.386203  -0.321625  0  3.384526  0
O  O66  1  0.93802391  0.15936190  0.08939224  1  0  -0.30754  0  2.359716  0  0  -0.217188  0  2.596034  0  0  -0.239783  0  2.598634  0  0  -0.223385  -0.201278  0  2.593986  0
O  O67  1  0.06198137  0.84063749  0.91061137  1  0  -0.307521  0  2.359642  0  0  -0.217171  0  2.59598  0  0  -0.239762  0  2.598578  0  0  -0.223392  -0.201263  0  2.593935  0
