# generated using pymatgen
data_NaZnH7C11O8
_symmetry_space_group_name_H-M   'P 1'
_cell_length_a   6.71555747
_cell_length_b   10.13490966
_cell_length_c   18.07740000
_cell_angle_alpha   101.54970539
_cell_angle_beta   90.00000000
_cell_angle_gamma   90.00000000
_symmetry_Int_Tables_number   1
_chemical_formula_structural   NaZnH7C11O8
_chemical_formula_sum   'Na4 Zn4 H28 C44 O32'
_cell_volume   1205.46277377
_cell_formula_units_Z   4
loop_
 _symmetry_equiv_pos_site_id
 _symmetry_equiv_pos_as_xyz
  1  'x, y, z'
loop_
 _atom_site_type_symbol
 _atom_site_label
 _atom_site_symmetry_multiplicity
 _atom_site_fract_x
 _atom_site_fract_y
 _atom_site_fract_z
 _atom_site_occupancy
 _atom_site_hle17_bader_spin_density
 _atom_site_hle17_ddec_charge
 _atom_site_hle17_ddec_spin_density
 _atom_site_hle17_ddec_sum_bond_order
 _atom_site_hle17_magmom
 _atom_site_hse06_10hf_bader_spin_density
 _atom_site_hse06_10hf_ddec_charge
 _atom_site_hse06_10hf_ddec_spin_density
 _atom_site_hse06_10hf_ddec_sum_bond_order
 _atom_site_hse06_10hf_magmom
 _atom_site_hse06_bader_spin_density
 _atom_site_hse06_ddec_charge
 _atom_site_hse06_ddec_spin_density
 _atom_site_hse06_ddec_sum_bond_order
 _atom_site_hse06_magmom
 _atom_site_pbe_bader_charge
 _atom_site_pbe_bader_spin_density
 _atom_site_pbe_cm5_charge
 _atom_site_pbe_ddec_charge
 _atom_site_pbe_ddec_spin_density
 _atom_site_pbe_ddec_sum_bond_order
 _atom_site_pbe_magmom
Na  Na0  1  0.75094287  0.02505113  0.01478163  1  0  0.913617  0  0.377136  0  0  0.872898  0  0.525066  0  0  0.88505  0  0.500609  0  0.8876  0  0.706967  0.863891  0  0.54267  0
Na  Na1  1  0.25094566  0.97494870  0.48521840  1  0  0.913604  0  0.377145  0  0  0.872893  0  0.525065  0  0  0.885051  0  0.500599  0  0.887579  0  0.706963  0.86389  0  0.542667  0
Na  Na2  1  0.24905602  0.97495172  0.98521874  1  0  0.913603  0  0.377145  0  0  0.872907  0  0.525052  0  0  0.885059  0  0.500595  0  0.887652  0  0.706971  0.863898  0  0.542656  0
Na  Na3  1  0.74905621  0.02504912  0.51478196  1  0  0.913607  0  0.377146  0  0  0.872908  0  0.52505  0  0  0.885061  0  0.50059  0  0.887649  0  0.706977  0.863904  0  0.542652  0
Zn  Zn4  1  0.19321553  0.64302097  0.84093024  1  0  1.183224  0  1.728847  0  0  1.005739  0  2.207597  0  0  1.057551  0  2.141448  0  1.356223  0  0.704214  0.968959  0  2.253583  0
Zn  Zn5  1  0.69321870  0.35697684  0.65907067  1  0  1.18324  0  1.728703  0  0  1.005765  0  2.207454  0  0  1.05758  0  2.141308  0  1.356235  0  0.70425  0.968984  0  2.25344  0
Zn  Zn6  1  0.80678336  0.35698188  0.15906958  1  0  1.183254  0  1.728706  0  0  1.005797  0  2.207437  0  0  1.057612  0  2.141287  0  1.356223  0  0.704264  0.969015  0  2.253426  0
Zn  Zn7  1  0.30678168  0.64302198  0.34092980  1  0  1.18324  0  1.728789  0  0  1.00576  0  2.207561  0  0  1.057567  0  2.141412  0  1.356202  0  0.704207  0.96898  0  2.253546  0
H  H8  1  0.84112600  0.93968476  0.81804462  1  0  0.105089  0  0.935658  0  0  0.116243  0  0.992167  0  0  0.11996  0  0.988876  0  0.110813  0  0.114157  0.113558  0  0.994552  0
H  H9  1  0.34112581  0.06031305  0.68195685  1  0  0.105088  0  0.935664  0  0  0.116293  0  0.992114  0  0  0.120011  0  0.988822  0  0.11084  0  0.114179  0.113606  0  0.994501  0
H  H10  1  0.15887586  0.06031305  0.18195685  1  0  0.105046  0  0.935632  0  0  0.116249  0  0.992094  0  0  0.119969  0  0.9888  0  0.110849  0  0.114167  0.113563  0  0.994482  0
H  H11  1  0.65886861  0.93968275  0.31804329  1  0  0.105028  0  0.93572  0  0  0.116268  0  0.992136  0  0  0.119987  0  0.988842  0  0.110719  0  0.114172  0.113581  0  0.994524  0
H  H12  1  0.30321236  0.53734599  0.63722646  1  0  0.114216  0  0.957304  0  0  0.121261  0  1.024379  0  0  0.124295  0  1.02203  0  0.141656  0  0.11581  0.119046  0  1.026142  0
H  H13  1  0.80320957  0.46265384  0.86277302  1  0  0.114208  0  0.95732  0  0  0.121233  0  1.024418  0  0  0.124263  0  1.022077  0  0.141678  0  0.115815  0.119019  0  1.026182  0
H  H14  1  0.69678951  0.46265283  0.36277346  1  0  0.11418  0  0.957337  0  0  0.12121  0  1.024428  0  0  0.12424  0  1.022093  0  0.141682  0  0.115814  0.118995  0  1.026193  0
H  H15  1  0.19678634  0.53734901  0.13722569  1  0  0.114268  0  0.957295  0  0  0.121262  0  1.024423  0  0  0.124293  0  1.022082  0  0.141666  0  0.115809  0.119045  0  1.026186  0
H  H16  1  0.14748738  0.67424349  0.62210654  1  0  0.10941  0  0.920455  0  0  0.118404  0  0.9811  0  0  0.121184  0  0.978473  0  0.106049  0  0.118378  0.116412  0  0.983034  0
H  H17  1  0.64748757  0.32575533  0.87789449  1  0  0.109365  0  0.920466  0  0  0.11838  0  0.981101  0  0  0.12116  0  0.978472  0  0.106043  0  0.118356  0.116389  0  0.983036  0
H  H18  1  0.85251299  0.32575634  0.37789349  1  0  0.109348  0  0.920458  0  0  0.11836  0  0.981096  0  0  0.12114  0  0.97847  0  0.106066  0  0.118363  0.116369  0  0.983033  0
H  H19  1  0.35251280  0.67424752  0.12210534  1  0  0.109379  0  0.920477  0  0  0.118368  0  0.981126  0  0  0.121149  0  0.978497  0  0.105998  0  0.118346  0.116375  0  0.983061  0
H  H20  1  0.00177349  0.89912258  0.69109836  1  0  0.123925  0  0.956378  0  0  0.133312  0  1.017731  0  0  0.13669  0  1.016914  0  0.085068  0  0.108525  0.130898  0  1.018569  0
H  H21  1  0.50177219  0.10087624  0.80890323  1  0  0.123906  0  0.956369  0  0  0.133289  0  1.017737  0  0  0.136667  0  1.01692  0  0.085128  0  0.108519  0.130875  0  1.018575  0
H  H22  1  0.99822986  0.10087725  0.30890389  1  0  0.123915  0  0.956347  0  0  0.133284  0  1.017725  0  0  0.13666  0  1.01691  0  0.085285  0  0.108513  0.13087  0  1.018562  0
H  H23  1  0.49822372  0.89911955  0.19109691  1  0  0.1239  0  0.956381  0  0  0.133314  0  1.0177  0  0  0.136693  0  1.016882  0  0.084934  0  0.108532  0.130899  0  1.018541  0
H  H24  1  0.48869807  0.66959883  0.59849779  1  0  0.125191  0  0.983816  0  0  0.135708  0  1.046176  0  0  0.139167  0  1.044393  0  0.084823  0  0.111769  0.133202  0  1.047601  0
H  H25  1  0.98869677  0.33040099  0.90150225  1  0  0.125146  0  0.983853  0  0  0.135664  0  1.046214  0  0  0.139121  0  1.044432  0  0.084807  0  0.111756  0.13316  0  1.04763  0
H  H26  1  0.51130528  0.33040200  0.40150236  1  0  0.125234  0  0.983741  0  0  0.135706  0  1.04616  0  0  0.139187  0  1.044347  0  0.084743  0  0.111761  0.133204  0  1.047571  0
H  H27  1  0.01130211  0.66960286  0.09849769  1  0  0.125243  0  0.983767  0  0  0.135721  0  1.04619  0  0  0.139203  0  1.044375  0  0.084873  0  0.111775  0.133218  0  1.047601  0
H  H28  1  0.73231746  0.57269552  0.52564244  1  0  0.103797  0  0.928204  0  0  0.111609  0  0.995652  0  0  0.113971  0  0.993599  0  0.095477  0  0.11225  0.109974  0  0.997075  0
H  H29  1  0.23231727  0.42730531  0.97435771  1  0  0.103844  0  0.928172  0  0  0.111625  0  0.995612  0  0  0.113986  0  0.993561  0  0.095467  0  0.112256  0.10999  0  0.997035  0
H  H30  1  0.26768440  0.42730531  0.47435992  1  0  0.103795  0  0.928231  0  0  0.111607  0  0.995672  0  0  0.113971  0  0.993619  0  0.095484  0  0.11225  0.109972  0  0.997095  0
H  H31  1  0.76768459  0.57269653  0.02564144  1  0  0.103841  0  0.928236  0  0  0.111637  0  0.995667  0  0  0.113999  0  0.993616  0  0.095492  0  0.112264  0.110004  0  0.997092  0
H  H32  1  0.88453565  0.64757902  0.46464765  1  0  0.116009  0  0.916193  0  0  0.128134  0  0.97376  0  0  0.130448  0  0.971961  0  0.124224  0  0.121797  0.126392  0  0.975254  0
H  H33  1  0.38453844  0.35242383  0.03535327  1  0  0.115965  0  0.91628  0  0  0.128074  0  0.973818  0  0  0.130389  0  0.972016  0  0.124199  0  0.121795  0.126332  0  0.975309  0
H  H34  1  0.11546473  0.35241980  0.53535448  1  0  0.115997  0  0.916183  0  0  0.128126  0  0.97375  0  0  0.130441  0  0.971949  0  0.124212  0  0.121818  0.126382  0  0.975244  0
H  H35  1  0.61546342  0.64757902  0.96464600  1  0  0.116016  0  0.916232  0  0  0.128119  0  0.973799  0  0  0.130433  0  0.971997  0  0.124198  0  0.121797  0.126375  0  0.975297  0
C  C36  1  0.76519038  0.88040195  0.76921702  1  0  -0.008525  0  3.74632  0  0  -0.03165  0  3.999293  0  0  -0.02538  0  4.015905  0  -0.000851  0  -0.076886  -0.035415  0  3.987883  0
C  C37  1  0.26518871  0.11959787  0.73078468  1  0  -0.008551  0  3.746674  0  0  -0.03172  0  3.999655  0  0  -0.025451  0  4.016268  0  -0.00084  0  -0.076929  -0.035485  0  3.988242  0
C  C38  1  0.23481297  0.11959989  0.23078490  1  0  -0.008491  0  3.746667  0  0  -0.031641  0  3.999656  0  0  -0.025373  0  4.016271  0  -0.000853  0  -0.076917  -0.035405  0  3.988237  0
C  C39  1  0.73480422  0.88040195  0.26921646  1  0  -0.008504  0  3.746231  0  0  -0.031711  0  3.999232  0  0  -0.025442  0  4.015843  0  -0.000905  0  -0.076959  -0.035478  0  3.987827  0
C  C40  1  0.57544292  0.82936613  0.78123028  1  0  -0.217581  0  3.741443  0  0  -0.205035  0  3.985269  0  0  -0.219518  0  4.007559  0  0.01458  0  -0.042217  -0.195666  0  3.970559  0
C  C41  1  0.07544273  0.17062866  0.71876864  1  0  -0.217624  0  3.741489  0  0  -0.205009  0  3.985348  0  0  -0.219492  0  4.007633  0  0.014574  0  -0.042154  -0.195639  0  3.970639  0
C  C42  1  0.42455895  0.17062967  0.21876930  1  0  -0.217531  0  3.741523  0  0  -0.205013  0  3.985394  0  0  -0.219492  0  4.00768  0  0.014564  0  -0.04217  -0.195639  0  3.970684  0
C  C43  1  0.92455467  0.82936714  0.28122929  1  0  -0.21768  0  3.741493  0  0  -0.205065  0  3.985326  0  0  -0.219549  0  4.007614  0  0.014549  0  -0.042192  -0.195696  0  3.970617  0
C  C44  1  0.47749424  0.75283908  0.71756416  1  0  0.317645  0  3.745182  0  0  0.300941  0  4.002382  0  0  0.316772  0  4.016891  0  0.480383  0  0.096123  0.290258  0  3.992646  0
C  C45  1  0.97749145  0.24716074  0.78243754  1  0  0.317716  0  3.745145  0  0  0.30086  0  4.002532  0  0  0.31669  0  4.017041  0  0.480415  0  0.096048  0.290174  0  3.992796  0
C  C46  1  0.52251209  0.24716276  0.28243832  1  0  0.317547  0  3.745493  0  0  0.300843  0  4.002712  0  0  0.316673  0  4.017224  0  0.480414  0  0.096015  0.290155  0  3.992978  0
C  C47  1  0.02250595  0.75283807  0.21756294  1  0  0.317645  0  3.745332  0  0  0.300883  0  4.002588  0  0  0.316713  0  4.017102  0  0.480392  0  0.096055  0.290201  0  3.992851  0
C  C48  1  0.48980148  0.86663013  0.85847124  1  0  0.69314  0  3.906937  0  0  0.646064  0  4.202858  0  0  0.681273  0  4.193312  0  1.535538  0  0.198686  0.62194  0  4.209154  0
C  C49  1  0.98980018  0.13336970  0.64152990  1  0  0.693205  0  3.906944  0  0  0.646098  0  4.202907  0  0  0.681311  0  4.193355  0  1.535358  0  0.198716  0.621972  0  4.209205  0
C  C50  1  0.51020187  0.13337272  0.14152913  1  0  0.693197  0  3.906965  0  0  0.646115  0  4.202918  0  0  0.681324  0  4.19337  0  1.535412  0  0.198726  0.621988  0  4.209216  0
C  C51  1  0.01019424  0.86662912  0.35847002  1  0  0.693204  0  3.906782  0  0  0.646077  0  4.202759  0  0  0.68129  0  4.193212  0  1.535521  0  0.198732  0.621951  0  4.209058  0
C  C52  1  0.19914058  0.61667071  0.66397339  1  0  -0.093151  0  3.618994  0  0  -0.149714  0  3.876382  0  0  -0.147744  0  3.876843  0  0.365638  0  -0.069623  -0.151175  0  3.876218  0
C  C53  1  0.69913928  0.38332811  0.83602653  1  0  -0.09311  0  3.618948  0  0  -0.149726  0  3.876427  0  0  -0.147751  0  3.876879  0  0.365623  0  -0.069678  -0.151201  0  3.876283  0
C  C54  1  0.80086278  0.38332912  0.33602609  1  0  -0.093023  0  3.618959  0  0  -0.149632  0  3.876458  0  0  -0.14766  0  3.876913  0  0.365627  0  -0.069679  -0.151108  0  3.876316  0
C  C55  1  0.30085812  0.61667373  0.16397263  1  0  -0.093296  0  3.619247  0  0  -0.149858  0  3.876625  0  0  -0.147887  0  3.877083  0  0.365622  0  -0.069683  -0.151314  0  3.87646  0
C  C56  1  0.85501763  0.85892797  0.69896605  1  0  -0.208456  0  3.746908  0  0  -0.237018  0  4.012891  0  0  -0.246023  0  4.032486  0  -0.089504  0  -0.112658  -0.231206  0  4.000112  0
C  C57  1  0.35501595  0.14106883  0.80103309  1  0  -0.208419  0  3.747011  0  0  -0.236972  0  4.012998  0  0  -0.245977  0  4.032597  0  -0.089629  0  -0.112675  -0.231159  0  4.000218  0
C  C58  1  0.14498573  0.14106782  0.30103187  1  0  -0.208466  0  3.74702  0  0  -0.237019  0  4.013023  0  0  -0.246025  0  4.032625  0  -0.089739  0  -0.112686  -0.231205  0  4.000242  0
C  C59  1  0.64497847  0.85892697  0.19896649  1  0  -0.208355  0  3.746747  0  0  -0.236951  0  4.012795  0  0  -0.245955  0  4.032388  0  -0.089199  0  -0.112611  -0.23114  0  4.000017  0
C  C60  1  0.02356171  0.54789113  0.69255456  1  0  0.702907  0  3.834057  0  0  0.647668  0  4.13677  0  0  0.681986  0  4.130426  0  1.587421  0  0.22338  0.624026  0  4.140923  0
C  C61  1  0.52355743  0.45210870  0.80744769  1  0  0.702932  0  3.834078  0  0  0.64772  0  4.136758  0  0  0.68204  0  4.130409  0  1.587386  0  0.22338  0.624081  0  4.140912  0
C  C62  1  0.97644463  0.45210769  0.30744426  1  0  0.702957  0  3.834124  0  0  0.647757  0  4.136788  0  0  0.682077  0  4.130443  0  1.587411  0  0.223435  0.624118  0  4.140942  0
C  C63  1  0.47643997  0.54789012  0.19254947  1  0  0.702896  0  3.834179  0  0  0.647771  0  4.136691  0  0  0.68209  0  4.130341  0  1.587489  0  0.223352  0.62412  0  4.140863  0
C  C64  1  0.75413546  0.78273024  0.63694498  1  0  0.311724  0  3.813764  0  0  0.301123  0  4.077974  0  0  0.316641  0  4.091326  0  0.464761  0  0.094596  0.290641  0  4.068995  0
C  C65  1  0.25413378  0.21726958  0.86305672  1  0  0.311643  0  3.813764  0  0  0.301022  0  4.078012  0  0  0.316538  0  4.091366  0  0.464814  0  0.094604  0.290538  0  4.069035  0
C  C66  1  0.24586790  0.21727059  0.36305738  1  0  0.311711  0  3.813711  0  0  0.301135  0  4.077887  0  0  0.316647  0  4.09125  0  0.464818  0  0.094627  0.290647  0  4.068915  0
C  C67  1  0.74586213  0.78273024  0.13694332  1  0  0.311787  0  3.813634  0  0  0.301179  0  4.077869  0  0  0.3167  0  4.091222  0  0.464774  0  0.094618  0.290694  0  4.06889  0
C  C68  1  0.56621509  0.72934691  0.64627680  1  0  -0.324581  0  3.730084  0  0  -0.35344  0  3.985247  0  0  -0.363857  0  4.002838  0  0.001741  0  -0.122029  -0.34658  0  3.973706  0
C  C69  1  0.06621193  0.27065291  0.85372324  1  0  -0.324452  0  3.730147  0  0  -0.353259  0  3.985352  0  0  -0.363676  0  4.002946  0  0.001782  0  -0.121963  -0.346397  0  3.973811  0
C  C70  1  0.43378975  0.27065291  0.35372324  1  0  -0.324545  0  3.730218  0  0  -0.353368  0  3.985378  0  0  -0.363804  0  4.002958  0  0.001852  0  -0.121968  -0.346504  0  3.973839  0
C  C71  1  0.93378845  0.72935094  0.14627559  1  0  -0.324629  0  3.730124  0  0  -0.353453  0  3.985321  0  0  -0.363888  0  4.002895  0  0.001668  0  -0.122015  -0.346591  0  3.973782  0
C  C72  1  0.76698770  0.66778407  0.50777443  1  0  -0.087911  0  3.606875  0  0  -0.144558  0  3.871544  0  0  -0.14172  0  3.871551  0  0.37012  0  -0.066771  -0.146581  0  3.871473  0
C  C73  1  0.26699049  0.33221676  0.99222517  1  0  -0.087976  0  3.607055  0  0  -0.144475  0  3.87157  0  0  -0.141634  0  3.87157  0  0.370192  0  -0.066753  -0.146496  0  3.871498  0
C  C74  1  0.23301267  0.33221575  0.49222561  1  0  -0.087856  0  3.606928  0  0  -0.144498  0  3.871601  0  0  -0.141664  0  3.871608  0  0.370125  0  -0.066763  -0.146522  0  3.87153  0
C  C75  1  0.73300988  0.66778508  0.00777454  1  0  -0.08802  0  3.607113  0  0  -0.144592  0  3.871667  0  0  -0.141751  0  3.871674  0  0.370139  0  -0.066787  -0.14663  0  3.871621  0
C  C76  1  0.58292852  0.71865474  0.47190291  1  0  0.695426  0  3.884248  0  0  0.647699  0  4.187309  0  0  0.679981  0  4.180427  0  1.602598  0  0.214282  0.625773  0  4.19127  0
C  C77  1  0.08292982  0.28135315  0.02809803  1  0  0.695325  0  3.884343  0  0  0.647512  0  4.187497  0  0  0.6798  0  4.18061  0  1.602627  0  0.214196  0.625584  0  4.19146  0
C  C78  1  0.41707334  0.28135214  0.52809791  1  0  0.695223  0  3.884382  0  0  0.647491  0  4.187465  0  0  0.679781  0  4.180582  0  1.602733  0  0.214194  0.625564  0  4.191427  0
C  C79  1  0.91707204  0.71865877  0.97190392  1  0  0.695366  0  3.884377  0  0  0.647632  0  4.187409  0  0  0.679918  0  4.180525  0  1.602705  0  0.214223  0.625708  0  4.191375  0
O  O80  1  0.29074727  0.70366736  0.72700197  1  0  -0.298727  0  2.46915  0  0  -0.214678  0  2.708708  0  0  -0.235128  0  2.710255  0  -1.087217  0  -0.171289  -0.200174  0  2.707315  0
O  O81  1  0.79074597  0.29633045  0.77299839  1  0  -0.298797  0  2.469054  0  0  -0.214676  0  2.708642  0  0  -0.235126  0  2.710189  0  -1.087209  0  -0.171227  -0.200164  0  2.707247  0
O  O82  1  0.70925460  0.29633347  0.27299873  1  0  -0.298752  0  2.469268  0  0  -0.214685  0  2.708832  0  0  -0.235134  0  2.71038  0  -1.08725  0  -0.171216  -0.200171  0  2.707437  0
O  O83  1  0.20925292  0.70367039  0.22700065  1  0  -0.298643  0  2.469242  0  0  -0.214571  0  2.708797  0  0  -0.23502  0  2.710347  0  -1.087193  0  -0.171183  -0.200066  0  2.707396  0
O  O84  1  0.99540061  0.55686422  0.76271111  1  0  -0.624579  0  2.074835  0  0  -0.554784  0  2.347802  0  0  -0.584113  0  2.334312  0  -1.158026  0  -0.300457  -0.534444  0  2.356963  0
O  O85  1  0.49539595  0.44313460  0.73728936  1  0  -0.624646  0  2.074754  0  0  -0.55487  0  2.347723  0  0  -0.584199  0  2.33423  0  -1.157971  0  -0.300461  -0.534529  0  2.356883  0
O  O86  1  0.00459977  0.44313762  0.23728970  1  0  -0.624651  0  2.074895  0  0  -0.55487  0  2.347859  0  0  -0.584195  0  2.334363  0  -1.158054  0  -0.300493  -0.534532  0  2.357021  0
O  O87  1  0.50459698  0.55686220  0.26271089  1  0  -0.624761  0  2.074763  0  0  -0.554954  0  2.347632  0  0  -0.584286  0  2.33414  0  -1.157909  0  -0.300447  -0.534608  0  2.356799  0
O  O88  1  0.31840246  0.81940107  0.87475474  1  0  -0.750242  0  2.097998  0  0  -0.68265  0  2.387903  0  0  -0.709781  0  2.365229  0  -1.206592  0  -0.407968  -0.663572  0  2.403332  0
O  O89  1  0.81840562  0.18059876  0.62524419  1  0  -0.750243  0  2.097978  0  0  -0.682637  0  2.387892  0  0  -0.709769  0  2.365217  0  -1.206588  0  -0.407968  -0.66356  0  2.403323  0
O  O90  1  0.68159643  0.18060178  0.12524509  1  0  -0.750278  0  2.098048  0  0  -0.682674  0  2.387951  0  0  -0.709803  0  2.365275  0  -1.20669  0  -0.407993  -0.663596  0  2.403382  0
O  O91  1  0.18158880  0.81939805  0.37475661  1  0  -0.750228  0  2.097938  0  0  -0.682617  0  2.387859  0  0  -0.709752  0  2.365187  0  -1.206479  0  -0.407986  -0.66354  0  2.403288  0
O  O92  1  0.58087508  0.94989454  0.90798110  1  0  -0.714117  0  1.938246  0  0  -0.679012  0  2.183875  0  0  -0.699439  0  2.168459  0  -1.203483  0  -0.430675  -0.664731  0  2.194243  0
O  O93  1  0.08087787  0.05010125  0.59201959  1  0  -0.714158  0  1.938178  0  0  -0.679064  0  2.183853  0  0  -0.699494  0  2.168431  0  -1.203366  0  -0.430731  -0.664784  0  2.194224  0
O  O94  1  0.41912381  0.05010528  0.09201949  1  0  -0.714151  0  1.938239  0  0  -0.679057  0  2.183893  0  0  -0.699486  0  2.168477  0  -1.203337  0  -0.430693  -0.664774  0  2.194262  0
O  O95  1  0.91911804  0.94989757  0.40797978  1  0  -0.714127  0  1.938081  0  0  -0.679042  0  2.183786  0  0  -0.699464  0  2.168351  0  -1.203478  0  -0.430724  -0.664762  0  2.194156  0
O  O96  1  0.91499775  0.47983262  0.64094848  1  0  -0.636911  0  2.042073  0  0  -0.566183  0  2.313053  0  0  -0.59607  0  2.29843  0  -1.179272  0  -0.308341  -0.545333  0  2.322886  0
O  O97  1  0.41499459  0.52016519  0.85905188  1  0  -0.636892  0  2.042227  0  0  -0.566129  0  2.313156  0  0  -0.596016  0  2.298527  0  -1.179321  0  -0.308325  -0.545281  0  2.322991  0
O  O98  1  0.08500709  0.52016721  0.35905377  1  0  -0.636891  0  2.042069  0  0  -0.566181  0  2.313044  0  0  -0.596071  0  2.298422  0  -1.179298  0  -0.308332  -0.54533  0  2.322875  0
O  O99  1  0.58499983  0.47983866  0.14094805  1  0  -0.636744  0  2.042311  0  0  -0.566076  0  2.313245  0  0  -0.595961  0  2.298618  0  -1.179318  0  -0.308314  -0.545228  0  2.323087  0
O  O100  1  0.85077524  0.76335300  0.56900655  1  0  -0.270651  0  2.340916  0  0  -0.204981  0  2.576674  0  0  -0.221482  0  2.576142  0  -1.078966  0  -0.170759  -0.193201  0  2.576564  0
O  O101  1  0.35077505  0.23664783  0.93099304  1  0  -0.27057  0  2.340985  0  0  -0.204946  0  2.576727  0  0  -0.221444  0  2.576194  0  -1.078996  0  -0.170765  -0.193166  0  2.576616  0
O  O102  1  0.14922663  0.23664682  0.43099404  1  0  -0.270635  0  2.340937  0  0  -0.204986  0  2.576705  0  0  -0.221479  0  2.57617  0  -1.078979  0  -0.170767  -0.193201  0  2.576594  0
O  O103  1  0.64922235  0.76335300  0.06900545  1  0  -0.27065  0  2.341028  0  0  -0.204989  0  2.576762  0  0  -0.221496  0  2.576235  0  -1.079028  0  -0.170782  -0.193197  0  2.576649  0
O  O104  1  0.49590522  0.62495596  0.42442525  1  0  -0.663374  0  2.034208  0  0  -0.587976  0  2.3035  0  0  -0.617834  0  2.287579  0  -1.187765  0  -0.324251  -0.56701  0  2.313741  0
O  O105  1  0.99590988  0.37504387  0.07557423  1  0  -0.663287  0  2.034389  0  0  -0.587846  0  2.303657  0  0  -0.617734  0  2.287783  0  -1.18786  0  -0.324195  -0.566881  0  2.313898  0
O  O106  1  0.50409665  0.37504185  0.57557345  1  0  -0.663245  0  2.034399  0  0  -0.587826  0  2.30365  0  0  -0.617708  0  2.287757  0  -1.187947  0  -0.324204  -0.56686  0  2.313887  0
O  O107  1  0.00409646  0.62495797  0.92442603  1  0  -0.663413  0  2.034297  0  0  -0.587985  0  2.303564  0  0  -0.617852  0  2.287642  0  -1.187778  0  -0.324236  -0.567017  0  2.313802  0
O  O108  1  0.53335557  0.84003514  0.48919711  1  0  -0.716482  0  1.952703  0  0  -0.675116  0  2.192097  0  0  -0.696869  0  2.178472  0  -1.223075  0  -0.437011  -0.659873  0  2.201014  0
O  O109  1  0.03335836  0.15996267  0.01080492  1  0  -0.716477  0  1.95252  0  0  -0.675105  0  2.191958  0  0  -0.696856  0  2.17833  0  -1.223019  0  -0.437004  -0.659857  0  2.200871  0
O  O110  1  0.46664480  0.15995965  0.51080513  1  0  -0.716484  0  1.952515  0  0  -0.675118  0  2.191905  0  0  -0.696872  0  2.178278  0  -1.223061  0  -0.437014  -0.659874  0  2.200822  0
O  O111  1  0.96664053  0.84003615  0.98919611  1  0  -0.716401  0  1.952833  0  0  -0.675056  0  2.192234  0  0  -0.696804  0  2.178602  0  -1.223148  0  -0.436966  -0.659811  0  2.201151  0
