# generated using pymatgen
data_Zn4H32C33N2O15
_symmetry_space_group_name_H-M   'P 1'
_cell_length_a   16.19338731
_cell_length_b   17.16219694
_cell_length_c   18.02063646
_cell_angle_alpha   89.99996474
_cell_angle_beta   89.99998596
_cell_angle_gamma   90.00002636
_symmetry_Int_Tables_number   1
_chemical_formula_structural   Zn4H32C33N2O15
_chemical_formula_sum   'Zn16 H128 C132 N8 O60'
_cell_volume   5008.18899912
_cell_formula_units_Z   4
loop_
 _symmetry_equiv_pos_site_id
 _symmetry_equiv_pos_as_xyz
  1  'x, y, z'
loop_
 _atom_site_type_symbol
 _atom_site_label
 _atom_site_symmetry_multiplicity
 _atom_site_fract_x
 _atom_site_fract_y
 _atom_site_fract_z
 _atom_site_occupancy
 _atom_site_pbe_bader_charge
 _atom_site_pbe_bader_spin_density
 _atom_site_pbe_cm5_charge
 _atom_site_pbe_ddec_charge
 _atom_site_pbe_ddec_spin_density
 _atom_site_pbe_ddec_sum_bond_order
 _atom_site_pbe_magmom
Zn  Zn0  1  0.72050401  0.24677443  0.23793207  1  1.299173  0  0.659323  0.941966  0  2.43544  0
Zn  Zn1  1  0.77949604  0.75322518  0.73793312  1  1.299057  0  0.659336  0.941988  0  2.435447  0
Zn  Zn2  1  0.27949633  0.74677442  0.26206708  1  1.299142  0  0.659322  0.94193  0  2.435491  0
Zn  Zn3  1  0.22050355  0.25322496  0.76206622  1  1.299032  0  0.659333  0.94195  0  2.435463  0
Zn  Zn4  1  0.77702591  0.85814410  0.87868505  1  1.308319  0  0.66237  0.96224  0  2.328722  0
Zn  Zn5  1  0.72297411  0.14185542  0.37868517  1  1.308317  0  0.662366  0.962224  0  2.328736  0
Zn  Zn6  1  0.22297435  0.35814455  0.62131477  1  1.308361  0  0.662383  0.962239  0  2.328716  0
Zn  Zn7  1  0.27702618  0.64185549  0.12131514  1  1.308361  0  0.662381  0.962239  0  2.328721  0
Zn  Zn8  1  0.11370397  0.73215973  0.17860279  1  1.2897  0  0.657088  0.94004  0  2.363452  0
Zn  Zn9  1  0.38629654  0.26784145  0.67860244  1  1.289698  0  0.657059  0.940048  0  2.363409  0
Zn  Zn10  1  0.88629636  0.23215918  0.32139692  1  1.289719  0  0.657082  0.940074  0  2.363379  0
Zn  Zn11  1  0.61370367  0.76784037  0.82139744  1  1.289705  0  0.657072  0.940028  0  2.363434  0
Zn  Zn12  1  0.68872879  0.91969394  0.72674535  1  1.38883  0  0.661435  0.999157  0  2.289473  0
Zn  Zn13  1  0.81127127  0.08030626  0.22674549  1  1.388848  0  0.661451  0.999206  0  2.28943  0
Zn  Zn14  1  0.31127150  0.41969434  0.77325500  1  1.388912  0  0.661438  0.999172  0  2.289518  0
Zn  Zn15  1  0.18872776  0.58030619  0.27325486  1  1.388903  0  0.661461  0.999207  0  2.289506  0
H  H16  1  0.78345500  0.06553548  0.00398644  1  0.090707  0  0.103708  0.111729  0  1.02732  0
H  H17  1  0.71654512  0.93446486  0.50398629  1  0.090704  0  0.103709  0.111727  0  1.027321  0
H  H18  1  0.21654587  0.56553471  0.49601337  1  0.090703  0  0.103709  0.111771  0  1.02731  0
H  H19  1  0.28345333  0.43446451  0.99601350  1  0.091024  0  0.10372  0.111787  0  1.027286  0
H  H20  1  0.63800370  0.27429951  0.01900473  1  0.10539  0  0.105133  0.114552  0  0.999154  0
H  H21  1  0.86199517  0.72569965  0.51900578  1  0.105363  0  0.105121  0.114515  0  0.999167  0
H  H22  1  0.36199603  0.77429998  0.48099495  1  0.105372  0  0.105126  0.114549  0  0.999167  0
H  H23  1  0.13800317  0.22570042  0.98099246  1  0.105597  0  0.105178  0.11463  0  0.999219  0
H  H24  1  0.61565678  0.12403818  0.82793014  1  0.072775  0  0.106956  0.119008  0  0.99964  0
H  H25  1  0.88434325  0.87596078  0.32793035  1  0.072785  0  0.106986  0.119029  0  0.999632  0
H  H26  1  0.38434398  0.62403827  0.67206982  1  0.072768  0  0.106967  0.119038  0  0.999606  0
H  H27  1  0.11565345  0.37595941  0.17206761  1  0.07276  0  0.10696  0.119027  0  0.999578  0
H  H28  1  0.53520421  0.24229750  0.83147161  1  0.049827  0  0.092334  0.135697  0  1.007734  0
H  H29  1  0.96479519  0.75770146  0.33147243  1  0.04976  0  0.092338  0.135675  0  1.007747  0
H  H30  1  0.46479599  0.74229879  0.66852828  1  0.049743  0  0.092332  0.135694  0  1.007722  0
H  H31  1  0.03520453  0.25770123  0.16852726  1  0.049776  0  0.092337  0.135695  0  1.007707  0
H  H32  1  0.58162009  0.32098905  0.88002259  1  0.040586  0  0.089959  0.127078  0  1.007205  0
H  H33  1  0.91837993  0.67900930  0.38002346  1  0.040552  0  0.08998  0.127103  0  1.007071  0
H  H34  1  0.41837954  0.82099035  0.61997671  1  0.040562  0  0.089963  0.127104  0  1.007126  0
H  H35  1  0.08162038  0.17900911  0.11997628  1  0.040554  0  0.089962  0.127074  0  1.007104  0
H  H36  1  0.50187702  0.26657174  0.92239071  1  0.048359  0  0.093422  0.13399  0  0.98438  0
H  H37  1  0.99812236  0.73342774  0.42239153  1  0.04836  0  0.093381  0.133919  0  0.98439  0
H  H38  1  0.49812319  0.76657253  0.57760918  1  0.048345  0  0.093426  0.134004  0  0.984409  0
H  H39  1  0.00187550  0.23342580  0.07760873  1  0.048302  0  0.093443  0.134027  0  0.984419  0
H  H40  1  0.96869858  0.47073997  0.26783880  1  0.115614  0  0.108584  0.120444  0  1.006317  0
H  H41  1  0.53130208  0.52926136  0.76783948  1  0.115611  0  0.108602  0.120505  0  1.00629  0
H  H42  1  0.03130187  0.97073870  0.23216132  1  0.115622  0  0.108599  0.120483  0  1.006301  0
H  H43  1  0.46869863  0.02926185  0.73216165  1  0.115599  0  0.10862  0.120508  0  1.006289  0
H  H44  1  0.70431783  0.48254902  0.24979118  1  0.071356  0  0.10457  0.112855  0  1.006936  0
H  H45  1  0.79568222  0.51745058  0.74979181  1  0.071347  0  0.104567  0.112861  0  1.006957  0
H  H46  1  0.29568263  0.98254902  0.25020949  1  0.071346  0  0.104569  0.112868  0  1.006947  0
H  H47  1  0.20431787  0.01745095  0.75020877  1  0.071347  0  0.104561  0.11285  0  1.006959  0
H  H48  1  0.85145757  0.68948410  0.21860353  1  0.056775  0  0.105815  0.113851  0  0.997803  0
H  H49  1  0.64854248  0.31051610  0.71860376  1  0.056793  0  0.105813  0.113829  0  0.997799  0
H  H50  1  0.14854274  0.18948326  0.28139787  1  0.056786  0  0.10583  0.113878  0  0.997752  0
H  H51  1  0.35145837  0.81051727  0.78139832  1  0.056714  0  0.105821  0.113848  0  0.997767  0
H  H52  1  0.63495621  0.60183327  0.22651506  1  0.030388  0  0.090166  0.122682  0  1.005976  0
H  H53  1  0.86504446  0.39816634  0.72651408  1  0.030387  0  0.090149  0.122678  0  1.00605  0
H  H54  1  0.36504406  0.10183369  0.27348583  1  0.030379  0  0.090136  0.122634  0  1.006078  0
H  H55  1  0.13495644  0.89816626  0.77348572  1  0.0304  0  0.09015  0.12268  0  1.006051  0
H  H56  1  0.68958841  0.66977915  0.17077672  1  0.051641  0  0.09148  0.133066  0  1.009966  0
H  H57  1  0.81041166  0.33022167  0.67077523  1  0.051621  0  0.09149  0.133049  0  1.009988  0
H  H58  1  0.31041251  0.16977892  0.32922525  1  0.051603  0  0.091512  0.13307  0  1.010049  0
H  H59  1  0.18958859  0.83022099  0.82922350  1  0.051638  0  0.091503  0.133081  0  1.01  0
H  H60  1  0.68381074  0.68387638  0.26760681  1  0.039108  0  0.092388  0.131288  0  1.00122  0
H  H61  1  0.81618931  0.31612263  0.76760534  1  0.039113  0  0.092394  0.131296  0  1.001242  0
H  H62  1  0.31618896  0.18387680  0.23239459  1  0.039133  0  0.092385  0.131251  0  1.00126  0
H  H63  1  0.18381217  0.81612434  0.73239396  1  0.039122  0  0.092377  0.131288  0  1.001264  0
H  H64  1  0.47337722  0.29861098  0.24257620  1  0.092385  0  0.10698  0.114561  0  1.000079  0
H  H65  1  0.02662266  0.70138957  0.74257623  1  0.09242  0  0.106985  0.114608  0  1.000061  0
H  H66  1  0.52662438  0.79860933  0.25742402  1  0.092345  0  0.106983  0.114586  0  1.000104  0
H  H67  1  0.97337690  0.20139027  0.75742314  1  0.092426  0  0.106991  0.114604  0  1.000082  0
H  H68  1  0.27570578  0.34805677  0.39579998  1  0.090432  0  0.104652  0.111032  0  1.032539  0
H  H69  1  0.22429406  0.65194368  0.89580000  1  0.090435  0  0.104644  0.110992  0  1.032556  0
H  H70  1  0.72429461  0.84805647  0.10420021  1  0.090434  0  0.104647  0.110979  0  1.032573  0
H  H71  1  0.77570486  0.15194264  0.60420051  1  0.090418  0  0.104642  0.110992  0  1.032567  0
H  H72  1  0.49586351  0.23393446  0.47207477  1  0.096564  0  0.107087  0.111438  0  1.034853  0
H  H73  1  0.00413693  0.76606711  0.97207532  1  0.096708  0  0.107069  0.111425  0  1.034889  0
H  H74  1  0.50413744  0.73393294  0.02792494  1  0.096676  0  0.107076  0.111456  0  1.034872  0
H  H75  1  0.99586143  0.26606738  0.52792401  1  0.096676  0  0.107074  0.111412  0  1.034908  0
H  H76  1  0.35045731  0.35675096  0.19522271  1  0.052722  0  0.091928  0.130913  0  0.992469  0
H  H77  1  0.14954320  0.64324962  0.69522330  1  0.052733  0  0.091935  0.130945  0  0.992464  0
H  H78  1  0.64954555  0.85674875  0.30477859  1  0.052745  0  0.091931  0.130945  0  0.992457  0
H  H79  1  0.85045757  0.14324848  0.80477721  1  0.052661  0  0.091932  0.130945  0  0.992434  0
H  H80  1  0.29593630  0.41803271  0.25791138  1  0.119468  0  0.094788  0.144087  0  1.028245  0
H  H81  1  0.20406358  0.58196725  0.75791144  1  0.119479  0  0.094778  0.144088  0  1.028226  0
H  H82  1  0.70406783  0.91803056  0.24208877  1  0.119506  0  0.094734  0.14397  0  1.028259  0
H  H83  1  0.79593592  0.08196729  0.74208855  1  0.119466  0  0.094778  0.144067  0  1.028277  0
H  H84  1  0.25981536  0.32338457  0.24034821  1  0.031211  0  0.091027  0.127051  0  1.010828  0
H  H85  1  0.24018514  0.67661540  0.74034932  1  0.031211  0  0.091038  0.127072  0  1.010848  0
H  H86  1  0.74018502  0.82338184  0.25964977  1  0.031514  0  0.090999  0.127062  0  1.010853  0
H  H87  1  0.75981503  0.17661542  0.75965228  1  0.031222  0  0.091032  0.127057  0  1.010822  0
H  H88  1  0.81537719  0.00729333  0.62682017  1  0.114505  0  0.124228  0.05189  0  1.02236  0
H  H89  1  0.68462166  0.99270460  0.12682201  1  0.114476  0  0.124212  0.051853  0  1.022395  0
H  H90  1  0.18462104  0.50729728  0.87317765  1  0.114463  0  0.124192  0.051831  0  1.022406  0
H  H91  1  0.31537633  0.49270610  0.37318031  1  0.114667  0  0.124234  0.051905  0  1.022362  0
H  H92  1  0.90303398  0.02790030  0.54114338  1  0.069386  0  0.111759  0.1274  0  0.999396  0
H  H93  1  0.59696736  0.97210002  0.04114304  1  0.069372  0  0.111753  0.127389  0  0.999372  0
H  H94  1  0.09696612  0.52790007  0.95885665  1  0.069372  0  0.11176  0.127409  0  0.999425  0
H  H95  1  0.40303432  0.47209975  0.45885597  1  0.069374  0  0.111762  0.127399  0  0.99944  0
H  H96  1  0.95173989  0.94075839  0.50895168  1  0.074261  0  0.106377  0.121517  0  0.995241  0
H  H97  1  0.54826208  0.05924195  0.00895244  1  0.074269  0  0.10637  0.121489  0  0.995216  0
H  H98  1  0.04826165  0.44075736  0.99104755  1  0.074274  0  0.106401  0.121545  0  0.995194  0
H  H99  1  0.45174002  0.55924128  0.49104793  1  0.074274  0  0.106365  0.121506  0  0.995252  0
H  H100  1  0.00873250  0.00964136  0.56346567  1  0.038369  0  0.109113  0.123252  0  0.969564  0
H  H101  1  0.49126867  0.99035814  0.06346467  1  0.038355  0  0.109095  0.123215  0  0.969616  0
H  H102  1  0.99126759  0.50964154  0.93653548  1  0.038375  0  0.109097  0.123279  0  0.969533  0
H  H103  1  0.50873241  0.49035794  0.43653433  1  0.038367  0  0.10909  0.123214  0  0.96957  0
H  H104  1  0.94488642  0.85362612  0.69870027  1  0.152303  0  0.110494  0.13677  0  1.030661  0
H  H105  1  0.55511426  0.14637293  0.19869987  1  0.152416  0  0.110502  0.136799  0  1.030658  0
H  H106  1  0.05511507  0.35362814  0.80129900  1  0.152292  0  0.110497  0.136787  0  1.030658  0
H  H107  1  0.44488542  0.64637237  0.30129822  1  0.152285  0  0.110495  0.136808  0  1.030631  0
H  H108  1  0.03555353  0.90119794  0.66312947  1  0.063249  0  0.104698  0.113175  0  0.990589  0
H  H109  1  0.46444699  0.09880267  0.16312901  1  0.063265  0  0.104702  0.113192  0  0.990578  0
H  H110  1  0.96444737  0.40119683  0.83687033  1  0.062952  0  0.104709  0.113191  0  0.990581  0
H  H111  1  0.53555266  0.59880213  0.33686967  1  0.062932  0  0.104718  0.113194  0  0.990586  0
H  H112  1  0.97892255  0.83449341  0.60622796  1  0.072813  0  0.107873  0.120706  0  0.98038  0
H  H113  1  0.52107939  0.16550628  0.10622811  1  0.072754  0  0.10787  0.120728  0  0.980384  0
H  H114  1  0.02108017  0.33449360  0.89377133  1  0.072763  0  0.107881  0.120726  0  0.980416  0
H  H115  1  0.47892153  0.66550685  0.39376997  1  0.072829  0  0.107895  0.120732  0  0.980396  0
H  H116  1  0.58511924  0.95982111  0.59608626  1  0.122958  0  0.12668  0.058075  0  0.996881  0
H  H117  1  0.91488085  0.04018034  0.09608806  1  0.122998  0  0.126677  0.058015  0  0.996891  0
H  H118  1  0.41487983  0.45982146  0.90391351  1  0.122972  0  0.126667  0.058036  0  0.996907  0
H  H119  1  0.08511877  0.54017956  0.40391287  1  0.122972  0  0.126658  0.057999  0  0.996899  0
H  H120  1  0.64592287  0.15304560  0.65071941  1  0.096253  0  0.110639  0.126784  0  1.014753  0
H  H121  1  0.85407844  0.84695406  0.15072075  1  0.09624  0  0.110622  0.126718  0  1.014691  0
H  H122  1  0.35407667  0.65304615  0.84927887  1  0.096233  0  0.110601  0.126715  0  1.014649  0
H  H123  1  0.14592318  0.34695433  0.34927944  1  0.096228  0  0.110611  0.126742  0  1.014683  0
H  H124  1  0.54355640  0.18845189  0.63466115  1  0.099785  0  0.107981  0.132492  0  1.009917  0
H  H125  1  0.95644615  0.81154953  0.13466194  1  0.099733  0  0.107961  0.132404  0  1.010008  0
H  H126  1  0.45644439  0.68845189  0.86533766  1  0.099726  0  0.107978  0.132478  0  1.010008  0
H  H127  1  0.04355608  0.31154800  0.36533772  1  0.099752  0  0.107969  0.13247  0  1.009977  0
H  H128  1  0.61741804  0.18899149  0.56077252  1  0.081077  0  0.109471  0.13151  0  0.977478  0
H  H129  1  0.88258391  0.81100939  0.06077388  1  0.081133  0  0.10943  0.131399  0  0.977538  0
H  H130  1  0.38258275  0.68899199  0.93922629  1  0.081071  0  0.109466  0.131468  0  0.977496  0
H  H131  1  0.11741770  0.31100843  0.43922634  1  0.0811  0  0.109457  0.131472  0  0.977508  0
H  H132  1  0.48524059  0.00850059  0.53399607  1  0.070157  0  0.112391  0.121822  0  0.987452  0
H  H133  1  0.01476058  0.99150009  0.03399795  1  0.070127  0  0.11239  0.121788  0  0.987445  0
H  H134  1  0.51476197  0.50849997  0.96600230  1  0.070176  0  0.112411  0.121834  0  0.987374  0
H  H135  1  0.98523988  0.49149949  0.46600327  1  0.070167  0  0.112396  0.121812  0  0.98743  0
H  H136  1  0.51264749  0.09640836  0.48647829  1  0.082402  0  0.106749  0.126341  0  0.993635  0
H  H137  1  0.98735311  0.90359284  0.98647921  1  0.082468  0  0.106728  0.126311  0  0.993633  0
H  H138  1  0.48735525  0.59640859  0.01351927  1  0.082458  0  0.106732  0.126296  0  0.993672  0
H  H139  1  0.01264655  0.40359094  0.51352059  1  0.082436  0  0.106711  0.126286  0  0.993604  0
H  H140  1  0.44617837  0.10025573  0.56588615  1  0.126581  0  0.107366  0.129123  0  0.992722  0
H  H141  1  0.05382218  0.89974552  0.06588697  1  0.12696  0  0.107386  0.129099  0  0.992891  0
H  H142  1  0.55382238  0.60025572  0.93411161  1  0.126505  0  0.107364  0.129064  0  0.992886  0
H  H143  1  0.94617762  0.39974434  0.43411319  1  0.126609  0  0.107379  0.129099  0  0.992845  0
C  C144  1  0.72178525  0.01373063  0.87199520  1  1.555871  0  0.216251  0.591602  0  4.180773  0
C  C145  1  0.77821476  0.98626888  0.37199481  1  1.555875  0  0.21628  0.591655  0  4.180829  0
C  C146  1  0.27821484  0.51373071  0.62800539  1  1.555885  0  0.216246  0.591559  0  4.18083  0
C  C147  1  0.22178199  0.48626875  0.12800586  1  1.555904  0  0.21625  0.591548  0  4.180862  0
C  C148  1  0.70227051  0.08835976  0.91150710  1  0.024906  0  -0.021432  -0.038547  0  4.003676  0
C  C149  1  0.79772950  0.91163974  0.41150675  1  0.024915  0  -0.021425  -0.038552  0  4.003686  0
C  C150  1  0.29773024  0.58835986  0.58849288  1  0.024912  0  -0.021412  -0.038487  0  4.003641  0
C  C151  1  0.20226660  0.41163962  0.08849174  1  0.024942  0  -0.021377  -0.038447  0  4.003581  0
C  C152  1  0.73875268  0.10550965  0.97980934  1  -0.106788  0  -0.08312  -0.119479  0  3.952226  0
C  C153  1  0.76124731  0.89449039  0.47980957  1  -0.106757  0  -0.083096  -0.119461  0  3.952184  0
C  C154  1  0.26124807  0.60550920  0.52019063  1  -0.106835  0  -0.083107  -0.119551  0  3.952231  0
C  C155  1  0.23874940  0.39449092  0.02019004  1  -0.107515  0  -0.083169  -0.119566  0  3.952224  0
C  C156  1  0.71501845  0.17268142  0.01828613  1  -0.027272  0  -0.024813  -0.042061  0  4.011294  0
C  C157  1  0.78498105  0.82731774  0.51828769  1  -0.02731  0  -0.024794  -0.042015  0  4.011268  0
C  C158  1  0.28498124  0.67268243  0.48171361  1  -0.027192  0  -0.024808  -0.041983  0  4.011206  0
C  C159  1  0.21501734  0.32731796  0.98171104  1  -0.026771  0  -0.024862  -0.042119  0  4.011299  0
C  C160  1  0.65606649  0.22287630  0.98735900  1  -0.020647  0  -0.08292  -0.151227  0  3.919843  0
C  C161  1  0.84393226  0.77712256  0.48736038  1  -0.020622  0  -0.082942  -0.151217  0  3.919847  0
C  C162  1  0.34393309  0.72287706  0.51264036  1  -0.020634  0  -0.082938  -0.151272  0  3.91983  0
C  C163  1  0.15606439  0.27712189  0.01263708  1  -0.021268  0  -0.082958  -0.151295  0  3.919842  0
C  C164  1  0.61990296  0.20741617  0.91822382  1  -0.053043  0  -0.010798  0.159753  0  4.007413  0
C  C165  1  0.88009704  0.79258273  0.41822408  1  -0.053072  0  -0.010815  0.159695  0  4.007517  0
C  C166  1  0.38009722  0.70741632  0.58177610  1  -0.053049  0  -0.010809  0.159726  0  4.007459  0
C  C167  1  0.11990024  0.29258259  0.08177393  1  -0.05276  0  -0.010819  0.159729  0  4.007378  0
C  C168  1  0.64352556  0.13939867  0.88107809  1  -0.01007  0  -0.080974  -0.154815  0  3.918946  0
C  C169  1  0.85647384  0.86059967  0.38107831  1  -0.010051  0  -0.080985  -0.15481  0  3.91898  0
C  C170  1  0.35647459  0.63939937  0.61892186  1  -0.010067  0  -0.08099  -0.154844  0  3.918963  0
C  C171  1  0.14352224  0.36060068  0.11892021  1  -0.009918  0  -0.081019  -0.154869  0  3.918888  0
C  C172  1  0.55638817  0.26184219  0.88619609  1  -0.060176  0  -0.240216  -0.413604  0  3.962487  0
C  C173  1  0.94361123  0.73815732  0.38619692  1  -0.060078  0  -0.240209  -0.413525  0  3.962399  0
C  C174  1  0.44361204  0.76184292  0.61380324  1  -0.060069  0  -0.240216  -0.413636  0  3.962468  0
C  C175  1  0.05638726  0.23815655  0.11380168  1  -0.060069  0  -0.24023  -0.413627  0  3.96247  0
C  C176  1  0.00102152  0.62196575  0.23966727  1  1.591323  0  0.221169  0.599264  0  4.180309  0
C  C177  1  0.49897774  0.37803480  0.73966905  1  1.591369  0  0.221255  0.599346  0  4.180488  0
C  C178  1  0.99897752  0.12196529  0.26033195  1  1.591381  0  0.221241  0.59933  0  4.180362  0
C  C179  1  0.50102376  0.87803489  0.76033354  1  1.591304  0  0.221191  0.59929  0  4.1803  0
C  C180  1  0.91770495  0.58418349  0.24312044  1  -0.090058  0  -0.019546  -0.040747  0  4.013028  0
C  C181  1  0.58229571  0.41581728  0.74312118  1  -0.089954  0  -0.019572  -0.040778  0  4.013042  0
C  C182  1  0.08229592  0.08418263  0.25688046  1  -0.090038  0  -0.01957  -0.040775  0  4.012989  0
C  C183  1  0.41770457  0.91581791  0.75688139  1  -0.090024  0  -0.019561  -0.040709  0  4.01277  0
C  C184  1  0.91261335  0.50436969  0.25862935  1  0.0074  0  -0.078942  -0.11316  0  3.938049  0
C  C185  1  0.58738670  0.49563107  0.75863060  1  0.007019  0  -0.078931  -0.113226  0  3.93801  0
C  C186  1  0.08738749  0.00436885  0.24137049  1  0.007384  0  -0.078913  -0.113174  0  3.938  0
C  C187  1  0.41261363  0.99563171  0.74137137  1  0.007379  0  -0.078913  -0.113173  0  3.937903  0
C  C188  1  0.83545530  0.46815869  0.25996173  1  -0.034552  0  -0.023146  -0.03981  0  4.016284  0
C  C189  1  0.66454536  0.53184148  0.75996239  1  -0.034346  0  -0.023144  -0.03974  0  4.016247  0
C  C190  1  0.16454515  0.96815806  0.24003895  1  -0.034572  0  -0.023178  -0.039783  0  4.016258  0
C  C191  1  0.33545536  0.03184249  0.74003930  1  -0.03456  0  -0.023186  -0.039833  0  4.016269  0
C  C192  1  0.76372542  0.51238787  0.24835004  1  -0.027964  0  -0.082317  -0.148797  0  3.921949  0
C  C193  1  0.73627525  0.48761232  0.74835015  1  -0.027863  0  -0.082374  -0.148897  0  3.922026  0
C  C194  1  0.23627481  0.01238766  0.25165146  1  -0.02791  0  -0.082345  -0.14889  0  3.921971  0
C  C195  1  0.26372507  0.98761288  0.75165127  1  -0.027925  0  -0.082288  -0.14881  0  3.921901  0
C  C196  1  0.76757825  0.59236831  0.23474006  1  -0.057723  0  -0.010074  0.163945  0  4.000037  0
C  C197  1  0.73242181  0.40763188  0.73473911  1  -0.057783  0  -0.010103  0.163843  0  4.000153  0
C  C198  1  0.23242202  0.09236809  0.26526250  1  -0.057754  0  -0.010104  0.163846  0  4.000123  0
C  C199  1  0.26757909  0.90763303  0.76526235  1  -0.057746  0  -0.010062  0.163971  0  4.000001  0
C  C200  1  0.84569286  0.62744542  0.23084340  1  0.047425  0  -0.077502  -0.141282  0  3.902268  0
C  C201  1  0.65430720  0.37255536  0.73084415  1  0.047457  0  -0.077446  -0.141136  0  3.90223  0
C  C202  1  0.15430743  0.12744459  0.26915803  1  0.047435  0  -0.077515  -0.141238  0  3.90222  0
C  C203  1  0.34569307  0.87255653  0.76915844  1  0.047512  0  -0.077575  -0.141349  0  3.902276  0
C  C204  1  0.68997251  0.63912688  0.22430092  1  -0.0624  0  -0.238862  -0.414018  0  3.972147  0
C  C205  1  0.81002755  0.36087274  0.72430053  1  -0.062397  0  -0.23882  -0.413936  0  3.972312  0
C  C206  1  0.31002840  0.13912669  0.27570051  1  -0.062403  0  -0.238814  -0.413855  0  3.972358  0
C  C207  1  0.18997271  0.86087268  0.77569985  1  -0.062417  0  -0.23887  -0.414047  0  3.972296  0
C  C208  1  0.57640937  0.23106367  0.33880866  1  1.555003  0  0.225967  0.598167  0  4.168158  0
C  C209  1  0.92359065  0.76893703  0.83880967  1  1.554822  0  0.225875  0.598051  0  4.168371  0
C  C210  1  0.42359096  0.73106262  0.16119105  1  1.555001  0  0.225914  0.598088  0  4.16831  0
C  C211  1  0.07640956  0.26893682  0.66118966  1  1.554655  0  0.225886  0.597987  0  4.16846  0
C  C212  1  0.49248808  0.26254680  0.35537411  1  0.005771  0  -0.022049  -0.040501  0  4.012667  0
C  C213  1  0.00751177  0.73745426  0.85537468  1  0.00576  0  -0.02201  -0.040446  0  4.012677  0
C  C214  1  0.50751288  0.76254521  0.14462669  1  0.005781  0  -0.022091  -0.04041  0  4.012652  0
C  C215  1  0.99248719  0.23745446  0.64462522  1  0.005997  0  -0.021999  -0.040406  0  4.012653  0
C  C216  1  0.44639459  0.29656809  0.29795882  1  -0.003776  0  -0.077557  -0.142225  0  3.906303  0
C  C217  1  0.05360466  0.70343242  0.79795940  1  -0.003771  0  -0.077627  -0.142417  0  3.906343  0
C  C218  1  0.55360516  0.79656591  0.20204196  1  -0.003741  0  -0.077599  -0.142405  0  3.906243  0
C  C219  1  0.94639491  0.20343256  0.70204108  1  -0.003803  0  -0.077649  -0.142419  0  3.906391  0
C  C220  1  0.36743459  0.32658696  0.31056825  1  -0.049747  0  -0.008266  0.162821  0  4.002377  0
C  C221  1  0.13256589  0.67341355  0.81056883  1  -0.04994  0  -0.008177  0.162944  0  4.002251  0
C  C222  1  0.63256703  0.82658656  0.18943140  1  -0.050025  0  -0.008145  0.162957  0  4.002145  0
C  C223  1  0.86743427  0.17341366  0.68943111  1  -0.049648  0  -0.008192  0.162867  0  4.002304  0
C  C224  1  0.33643118  0.32411230  0.38321108  1  -0.102892  0  -0.08099  -0.1586  0  3.919908  0
C  C225  1  0.16356866  0.67588874  0.88321165  1  -0.102984  0  -0.081005  -0.158568  0  3.919887  0
C  C226  1  0.66356920  0.82411080  0.11678912  1  -0.102902  0  -0.081008  -0.158545  0  3.919912  0
C  C227  1  0.83643089  0.17588830  0.61678884  1  -0.102985  0  -0.080994  -0.158539  0  3.919912  0
C  C228  1  0.38215106  0.29083683  0.44109251  1  0.017764  0  -0.022804  -0.041672  0  4.011088  0
C  C229  1  0.11784938  0.70916476  0.94109251  1  0.017797  0  -0.022812  -0.041645  0  4.011133  0
C  C230  1  0.61784868  0.79083476  0.05890772  1  0.017718  0  -0.022812  -0.041664  0  4.011158  0
C  C231  1  0.88214957  0.20916496  0.55890740  1  0.017828  0  -0.022815  -0.041733  0  4.011222  0
C  C232  1  0.46022428  0.25934729  0.42704306  1  -0.054169  0  -0.078633  -0.113721  0  3.950533  0
C  C233  1  0.03977678  0.74065372  0.92704306  1  -0.054299  0  -0.078623  -0.113689  0  3.950639  0
C  C234  1  0.53977730  0.75934635  0.07295663  1  -0.054264  0  -0.078626  -0.113779  0  3.950687  0
C  C235  1  0.96022218  0.24065453  0.57295683  1  -0.054284  0  -0.07865  -0.11364  0  3.950644  0
C  C236  1  0.31636191  0.35806079  0.24781797  1  -0.108099  0  -0.242398  -0.424467  0  3.957504  0
C  C237  1  0.18363798  0.64193976  0.74781800  1  -0.107902  0  -0.242418  -0.424529  0  3.957507  0
C  C238  1  0.68364096  0.85805688  0.25218222  1  -0.108166  0  -0.242337  -0.42439  0  3.957469  0
C  C239  1  0.81636218  0.14193864  0.75218251  1  -0.108117  0  -0.242405  -0.424461  0  3.957447  0
C  C240  1  0.82716177  0.38240684  0.27184869  1  1.56435  0  0.221206  0.599003  0  4.170597  0
C  C241  1  0.67283827  0.61759332  0.77184929  1  1.564348  0  0.221224  0.599023  0  4.170631  0
C  C242  1  0.17283925  0.88240681  0.22815093  1  1.564894  0  0.221198  0.599012  0  4.170547  0
C  C243  1  0.32716125  0.11759375  0.72815068  1  1.564355  0  0.221212  0.59902  0  4.170658  0
C  C244  1  0.74681722  0.18719819  0.09519794  1  1.567184  0  0.208595  0.583552  0  4.196374  0
C  C245  1  0.75318225  0.81280151  0.59519897  1  1.567224  0  0.208567  0.583521  0  4.196445  0
C  C246  1  0.25318185  0.68719866  0.40480234  1  1.56717  0  0.208585  0.583528  0  4.19647  0
C  C247  1  0.24681675  0.31280237  0.90480033  1  1.567221  0  0.208592  0.58343  0  4.19651  0
C  C248  1  0.34842865  0.29028617  0.51843884  1  1.578891  0  0.220535  0.597425  0  4.183569  0
C  C249  1  0.15157253  0.70971511  0.01843864  1  1.578895  0  0.220429  0.597208  0  4.183739  0
C  C250  1  0.65157281  0.79028501  0.98156103  1  1.578908  0  0.220451  0.597294  0  4.183707  0
C  C251  1  0.84842593  0.20971560  0.48156164  1  1.578903  0  0.220452  0.597232  0  4.183647  0
C  C252  1  0.85055659  0.96125686  0.65544817  1  1.372924  0  0.176375  0.304759  0  4.085683  0
C  C253  1  0.64944348  0.03874047  0.15544892  1  1.372905  0  0.176337  0.304783  0  4.085656  0
C  C254  1  0.14944248  0.46126005  0.84455049  1  1.372913  0  0.176361  0.304785  0  4.085794  0
C  C255  1  0.35055614  0.53874276  0.34455256  1  1.372708  0  0.176346  0.304686  0  4.085772  0
C  C256  1  0.94792475  0.98244826  0.55519032  1  0.287367  0  -0.125802  -0.275184  0  3.913867  0
C  C257  1  0.55207597  0.01755205  0.05519055  1  0.287397  0  -0.125784  -0.275086  0  3.913858  0
C  C258  1  0.05207618  0.48244901  0.94480944  1  0.287375  0  -0.125848  -0.27529  0  3.913842  0
C  C259  1  0.44792426  0.51755083  0.44481039  1  0.287362  0  -0.125791  -0.275148  0  3.913777  0
C  C260  1  0.97348885  0.87943053  0.64951221  1  0.206809  0  -0.130161  -0.266558  0  3.887139  0
C  C261  1  0.52651122  0.12056971  0.14951183  1  0.206706  0  -0.130156  -0.266576  0  3.886957  0
C  C262  1  0.02651203  0.37943076  0.85048705  1  0.207139  0  -0.130182  -0.266606  0  3.887145  0
C  C263  1  0.47348906  0.62056914  0.35048739  1  0.207126  0  -0.130209  -0.266667  0  3.887153  0
C  C264  1  0.61082394  0.01590815  0.61465025  1  1.378645  0  0.179228  0.306102  0  4.080295  0
C  C265  1  0.88917676  0.98409153  0.11465150  1  1.378623  0  0.179313  0.306222  0  4.080212  0
C  C266  1  0.38917615  0.51590869  0.88534922  1  1.378669  0  0.179241  0.306109  0  4.080368  0
C  C267  1  0.11082308  0.48409119  0.38534917  1  1.378657  0  0.179311  0.306254  0  4.080171  0
C  C268  1  0.59587961  0.15714065  0.61007213  1  0.204321  0  -0.12926  -0.272368  0  3.858295  0
C  C269  1  0.90412357  0.84286020  0.11007290  1  0.204361  0  -0.129227  -0.272139  0  3.858349  0
C  C270  1  0.40412426  0.65714061  0.88992782  1  0.204396  0  -0.129241  -0.272297  0  3.858336  0
C  C271  1  0.09587744  0.34285926  0.38992785  1  0.204361  0  -0.129221  -0.272291  0  3.858314  0
C  C272  1  0.49956559  0.07052121  0.54104130  1  0.199472  0  -0.124828  -0.275212  0  3.9006  0
C  C273  1  0.00043682  0.92948006  0.04104323  1  0.199054  0  -0.124812  -0.275068  0  3.900656  0
C  C274  1  0.50043700  0.57052408  0.95895703  1  0.199483  0  -0.124831  -0.275097  0  3.900631  0
C  C275  1  0.99956423  0.42947772  0.45895747  1  0.199404  0  -0.124827  -0.275129  0  3.900613  0
N  N276  1  0.57089470  0.07853766  0.58957953  1  -1.204701  0  -0.274215  0.043166  0  3.713529  0
N  N277  1  0.92910601  0.92146262  0.08958137  1  -1.204714  0  -0.274223  0.043093  0  3.713652  0
N  N278  1  0.42910480  0.57853937  0.91041879  1  -1.204718  0  -0.274182  0.043212  0  3.713603  0
N  N279  1  0.07089380  0.42146166  0.41041934  1  -1.204725  0  -0.274196  0.043171  0  3.713644  0
N  N280  1  0.92192029  0.94274410  0.62255200  1  -1.224713  0  -0.278736  0.031439  0  3.724444  0
N  N281  1  0.57808041  0.05725441  0.12255164  1  -1.224638  0  -0.278701  0.031365  0  3.724356  0
N  N282  1  0.07808001  0.44274550  0.87744723  1  -1.224655  0  -0.278665  0.031508  0  3.724395  0
N  N283  1  0.42192046  0.55725613  0.37744706  1  -1.224693  0  -0.278718  0.031504  0  3.724376  0
O  O284  1  0.77816528  0.97027542  0.90076804  1  -1.169458  0  -0.329304  -0.554682  0  2.292339  0
O  O285  1  0.72183472  0.02972408  0.40076767  1  -1.169437  0  -0.329278  -0.554655  0  2.292343  0
O  O286  1  0.22183441  0.47027589  0.59923284  1  -1.169447  0  -0.329271  -0.55462  0  2.292384  0
O  O287  1  0.27816181  0.52972358  0.09923382  1  -1.169463  0  -0.329251  -0.554572  0  2.292445  0
O  O288  1  0.68017530  0.99845772  0.81446032  1  -1.171781  0  -0.310353  -0.552219  0  2.351402  0
O  O289  1  0.81982534  0.00154125  0.31446050  1  -1.171796  0  -0.310379  -0.552266  0  2.35143  0
O  O290  1  0.31982502  0.49845818  0.68553998  1  -1.171807  0  -0.310372  -0.552233  0  2.351421  0
O  O291  1  0.18017179  0.50153892  0.18554156  1  -1.171891  0  -0.310349  -0.55222  0  2.351343  0
O  O292  1  0.05944783  0.58870835  0.27342468  1  -1.1893  0  -0.304953  -0.552173  0  2.364982  0
O  O293  1  0.44055266  0.41129276  0.77342645  1  -1.18937  0  -0.30499  -0.552178  0  2.365125  0
O  O294  1  0.94055243  0.08870731  0.22657455  1  -1.189349  0  -0.304951  -0.552156  0  2.365044  0
O  O295  1  0.55944762  0.91129231  0.72657501  1  -1.189157  0  -0.304963  -0.552175  0  2.364958  0
O  O296  1  0.00598406  0.68588648  0.20253427  1  -1.172287  0  -0.323462  -0.561059  0  2.334582  0
O  O297  1  0.49401583  0.31411526  0.70253553  1  -1.172264  0  -0.3235  -0.561177  0  2.334688  0
O  O298  1  0.99401625  0.18588541  0.29746547  1  -1.172289  0  -0.323531  -0.561191  0  2.334604  0
O  O299  1  0.50598379  0.81411590  0.79746599  1  -1.172411  0  -0.323472  -0.561105  0  2.33471  0
O  O300  1  0.61184419  0.18958413  0.38846451  1  -1.172553  0  -0.3127  -0.545932  0  2.318092  0
O  O301  1  0.88815582  0.81041655  0.88846496  1  -1.17242  0  -0.312639  -0.545902  0  2.318185  0
O  O302  1  0.38815613  0.68958309  0.11153577  1  -1.172572  0  -0.312669  -0.545936  0  2.318139  0
O  O303  1  0.11184379  0.31041580  0.61153435  1  -1.172436  0  -0.312679  -0.54587  0  2.318267  0
O  O304  1  0.60575469  0.24821535  0.27535750  1  -1.185856  0  -0.311614  -0.543902  0  2.386415  0
O  O305  1  0.89424473  0.75178481  0.77535853  1  -1.18582  0  -0.311605  -0.543837  0  2.386443  0
O  O306  1  0.39424565  0.74821483  0.22464219  1  -1.185801  0  -0.311577  -0.543818  0  2.386435  0
O  O307  1  0.10575424  0.25178457  0.72464080  1  -1.185706  0  -0.31156  -0.543794  0  2.386474  0
O  O308  1  0.89191165  0.34331104  0.28873433  1  -1.172662  0  -0.31698  -0.552385  0  2.31011  0
O  O309  1  0.60808839  0.65668911  0.78873492  1  -1.172675  0  -0.316973  -0.552375  0  2.31012  0
O  O310  1  0.10808936  0.84331099  0.21126531  1  -1.173304  0  -0.31699  -0.552406  0  2.310108  0
O  O311  1  0.39191177  0.15669017  0.71126447  1  -1.172663  0  -0.316991  -0.55243  0  2.310131  0
O  O312  1  0.75486559  0.35430495  0.26402378  1  -1.178255  0  -0.319391  -0.553439  0  2.355349  0
O  O313  1  0.74513446  0.64569464  0.76402546  1  -1.178148  0  -0.319416  -0.553469  0  2.355415  0
O  O314  1  0.24513542  0.85430494  0.23597530  1  -1.178178  0  -0.319355  -0.553394  0  2.355337  0
O  O315  1  0.25486508  0.14569503  0.73597394  1  -1.178175  0  -0.319362  -0.553376  0  2.355439  0
O  O316  1  0.70843551  0.24115630  0.13122163  1  -1.16075  0  -0.328334  -0.548556  0  2.324784  0
O  O317  1  0.79156210  0.75884279  0.63122212  1  -1.160755  0  -0.328375  -0.548596  0  2.324796  0
O  O318  1  0.29156297  0.74115680  0.36877862  1  -1.160734  0  -0.328334  -0.548546  0  2.324883  0
O  O319  1  0.20843750  0.25884250  0.86877721  1  -1.160778  0  -0.328335  -0.548504  0  2.324877  0
O  O320  1  0.80472480  0.14578450  0.12067596  1  -1.191092  0  -0.317395  -0.576171  0  2.298644  0
O  O321  1  0.69527467  0.85421518  0.62067642  1  -1.191123  0  -0.317348  -0.576126  0  2.298729  0
O  O322  1  0.19527364  0.64578554  0.37932490  1  -1.191119  0  -0.317391  -0.576181  0  2.298719  0
O  O323  1  0.30472373  0.35421609  0.87932341  1  -1.191122  0  -0.317391  -0.576104  0  2.298707  0
O  O324  1  0.39368476  0.25926391  0.56837492  1  -1.175656  0  -0.317975  -0.554428  0  2.353558  0
O  O325  1  0.10631641  0.74073733  0.06837471  1  -1.175647  0  -0.317971  -0.554379  0  2.353563  0
O  O326  1  0.60631607  0.75926335  0.93162552  1  -1.175648  0  -0.317979  -0.554435  0  2.353582  0
O  O327  1  0.89368269  0.24073788  0.43162499  1  -1.175636  0  -0.317972  -0.55438  0  2.353478  0
O  O328  1  0.27774733  0.32125713  0.52800453  1  -1.178848  0  -0.317411  -0.552906  0  2.34186  0
O  O329  1  0.22225446  0.67874531  0.02800489  1  -1.178864  0  -0.317319  -0.552773  0  2.341917  0
O  O330  1  0.72225414  0.82125542  0.97199532  1  -1.178838  0  -0.317321  -0.552786  0  2.341911  0
O  O331  1  0.77774461  0.17874520  0.47199540  1  -1.178869  0  -0.31734  -0.552793  0  2.341896  0
O  O332  1  0.78844159  0.17395333  0.29302780  1  -1.212066  0  -0.565405  -1.002354  0  2.492894  0
O  O333  1  0.71155845  0.82604624  0.79302772  1  -1.212067  0  -0.565397  -1.002338  0  2.49287  0
O  O334  1  0.21155810  0.67395332  0.20697194  1  -1.212136  0  -0.565408  -1.002358  0  2.492941  0
O  O335  1  0.28844180  0.32604667  0.70697213  1  -1.212221  0  -0.565414  -1.002361  0  2.492901  0
O  O336  1  0.82331336  0.92965074  0.71333515  1  -1.172238  0  -0.300024  -0.477655  0  2.370223  0
O  O337  1  0.67668670  0.07034655  0.21333699  1  -1.172235  0  -0.300015  -0.477641  0  2.370187  0
O  O338  1  0.17668632  0.42965398  0.78666352  1  -1.172217  0  -0.3  -0.477644  0  2.370275  0
O  O339  1  0.32331232  0.57034887  0.28666503  1  -1.172183  0  -0.300008  -0.477632  0  2.370236  0
O  O340  1  0.67294004  0.01845969  0.65665819  1  -1.169303  0  -0.300668  -0.464683  0  2.38236  0
O  O341  1  0.82705942  0.98153997  0.15665891  1  -1.169346  0  -0.300722  -0.464723  0  2.382324  0
O  O342  1  0.32705882  0.51846081  0.84334183  1  -1.169348  0  -0.300677  -0.464691  0  2.382408  0
O  O343  1  0.17294042  0.48154026  0.34334121  1  -1.169303  0  -0.300718  -0.464756  0  2.38231  0
