# generated using pymatgen
data_VH11C14NO5
_symmetry_space_group_name_H-M   'P 1'
_cell_length_a   6.75193699
_cell_length_b   12.07854154
_cell_length_c   17.56586359
_cell_angle_alpha   89.98458406
_cell_angle_beta   90.00394627
_cell_angle_gamma   89.96854931
_symmetry_Int_Tables_number   1
_chemical_formula_structural   VH11C14NO5
_chemical_formula_sum   'V4 H44 C56 N4 O20'
_cell_volume   1432.55828683
_cell_formula_units_Z   4
loop_
 _symmetry_equiv_pos_site_id
 _symmetry_equiv_pos_as_xyz
  1  'x, y, z'
loop_
 _atom_site_type_symbol
 _atom_site_label
 _atom_site_symmetry_multiplicity
 _atom_site_fract_x
 _atom_site_fract_y
 _atom_site_fract_z
 _atom_site_occupancy
 _atom_site_pbe_bader_charge
 _atom_site_pbe_bader_spin_density
 _atom_site_pbe_cm5_charge
 _atom_site_pbe_ddec_charge
 _atom_site_pbe_ddec_spin_density
 _atom_site_pbe_ddec_sum_bond_order
 _atom_site_pbe_magmom
V  V0  1  0.05254774  0.76650646  0.49936144  1  2.101873  -0.740973  1.427415  1.836521  -0.803034  3.017134  -0.753
V  V1  1  0.44770547  0.23251245  0.99929802  1  2.090554  0.894068  1.404167  1.826951  0.935659  2.965179  0.905
V  V2  1  0.94772666  0.26745347  0.00071282  1  2.092169  0.884065  1.406154  1.827883  0.925255  2.968566  0.895
V  V3  1  0.55276527  0.73340608  0.50063780  1  2.096441  0.778636  1.420396  1.831503  0.816486  3.006514  0.791
H  H4  1  0.94648491  0.59402752  0.69885749  1  0.102035  -3.6e-05  0.113028  0.120255  2.1e-05  0.986527  0.0
H  H5  1  0.55353119  0.40512901  0.20018224  1  0.099963  8.3e-05  0.113379  0.120726  -9.9e-05  0.986202  0.0
H  H6  1  0.05401429  0.09505321  0.79966218  1  0.102864  4.6e-05  0.113206  0.120298  -0.000113  0.986065  0.0
H  H7  1  0.44703150  0.90600486  0.30102520  1  0.103712  -4.9e-05  0.112869  0.11987  -0.000173  0.987013  0.0
H  H8  1  0.93097072  0.49043117  0.82261209  1  0.108519  -5.7e-05  0.109741  0.115106  -0.00022  0.995453  0.0
H  H9  1  0.56890738  0.50922719  0.32368046  1  0.093699  -0.000142  0.109544  0.11444  -0.000259  0.996946  0.0
H  H10  1  0.06928198  0.99092652  0.67616947  1  0.099168  3.8e-05  0.10955  0.114847  8.8e-05  0.997171  0.0
H  H11  1  0.43154785  0.00959913  0.17726965  1  0.1101  -2.2e-05  0.109738  0.114973  -0.0002  0.995353  0.0
H  H12  1  0.55018902  0.41123704  0.80243440  1  0.098282  8.5e-05  0.111418  0.119564  -0.000109  0.992594  0.0
H  H13  1  0.94980663  0.58883574  0.30294580  1  0.102356  -2.3e-05  0.110955  0.118891  3.5e-05  0.992796  0.0
H  H14  1  0.45050495  0.91108301  0.69719659  1  0.101191  -5.2e-05  0.111117  0.119431  -0.000179  0.992049  0.0
H  H15  1  0.05054965  0.08873334  0.19765474  1  0.09682  5.3e-05  0.111177  0.119321  -0.000121  0.992683  0.0
H  H16  1  0.56499757  0.51318766  0.67832813  1  0.100592  -0.000103  0.109396  0.115589  -0.000232  1.016619  0.0
H  H17  1  0.93546903  0.48678908  0.17897319  1  0.110803  -9e-05  0.109443  0.115529  -0.000244  1.01607  0.0
H  H18  1  0.43627065  0.01318272  0.82115062  1  0.113232  -6.1e-05  0.109547  0.115693  -0.000226  1.01567  0.0
H  H19  1  0.06538822  0.98679079  0.32177675  1  0.097508  2.6e-05  0.10935  0.115348  8.8e-05  1.017055  0.0
H  H20  1  0.18946765  0.03288369  0.50968631  1  0.071847  6.3e-05  0.101122  0.116761  0.000119  1.009434  0.0
H  H21  1  0.31057215  0.96782136  0.00819228  1  0.084721  4.6e-05  0.101557  0.11727  -0.000161  1.009995  0.0
H  H22  1  0.81051570  0.53232232  0.99174145  1  0.083874  4.9e-05  0.101589  0.117385  -0.000158  1.009434  0.0
H  H23  1  0.68907127  0.46715841  0.49036836  1  0.071604  -5.7e-05  0.101205  0.117039  -0.000127  1.009108  0.0
H  H24  1  0.46960808  0.06910692  0.42352348  1  0.05814  3.1e-05  0.09599  0.098817  0.0  1.02287  0.0
H  H25  1  0.03022357  0.93095421  0.92226835  1  0.055758  5.8e-05  0.095989  0.098927  -1.6e-05  1.023508  0.0
H  H26  1  0.53025182  0.56918088  0.07771490  1  0.055978  4.6e-05  0.096051  0.09917  -2.8e-05  1.023439  0.0
H  H27  1  0.96929752  0.43083451  0.57653461  1  0.060368  1e-06  0.096104  0.099077  2.9e-05  1.023525  0.0
H  H28  1  0.43437981  0.20389335  0.31582087  1  0.036916  6.7e-05  0.08877  0.090228  6.4e-05  1.029538  0.0
H  H29  1  0.06467043  0.79497258  0.81531437  1  0.022659  3e-06  0.088038  0.089229  -3e-06  1.029322  0.0
H  H30  1  0.56473043  0.70505486  0.18472844  1  0.022952  -2.4e-05  0.088037  0.089218  -2e-05  1.0293  0.0
H  H31  1  0.93428819  0.29599860  0.68419929  1  0.036639  3.3e-05  0.088508  0.090124  3.7e-05  1.029889  0.0
H  H32  1  0.11459213  0.30529259  0.29964117  1  0.051217  7.6e-05  0.08783  0.081579  8.4e-05  1.054908  0.0
H  H33  1  0.38405715  0.69298100  0.79964657  1  0.041797  4.9e-05  0.087051  0.080336  4.9e-05  1.057077  0.0
H  H34  1  0.88409976  0.80690467  0.20040754  1  0.040608  5.5e-05  0.087225  0.080717  4.5e-05  1.056664  0.0
H  H35  1  0.61471560  0.19463029  0.70036258  1  0.050628  4.8e-05  0.087784  0.081559  6.1e-05  1.055122  0.0
H  H36  1  0.83347867  0.27013222  0.38677235  1  0.03786  3e-06  0.096717  0.107587  -1e-06  1.005566  0.0
H  H37  1  0.66546488  0.72868453  0.88649836  1  0.048229  5e-06  0.096741  0.107626  -2e-06  1.00552  0.0
H  H38  1  0.16539974  0.77116237  0.11348963  1  0.048225  9e-06  0.096884  0.107724  2e-06  1.005461  0.0
H  H39  1  0.33349160  0.22985009  0.61324685  1  0.037492  0.0  0.096577  0.107436  -4e-06  1.005749  0.0
H  H40  1  0.86260625  0.08857017  0.55074235  1  0.433706  -5.9e-05  0.292154  0.280774  -1.2e-05  0.981855  0.0
H  H41  1  0.63747930  0.91332015  0.04910033  1  0.432109  0.000124  0.292842  0.282167  0.000114  0.978589  0.0
H  H42  1  0.13732420  0.58684864  0.95077815  1  0.430241  0.000142  0.292875  0.282308  0.000135  0.979487  0.0
H  H43  1  0.36233550  0.41148408  0.44928159  1  0.433311  0.000125  0.292109  0.280577  7.6e-05  0.98222  0.0
H  H44  1  0.72451557  0.18295389  0.50497535  1  0.452145  -4.6e-05  0.289478  0.279875  -3.9e-05  0.998974  0.0
H  H45  1  0.77456915  0.81686688  0.00468293  1  0.454384  2.9e-05  0.289646  0.280397  3.9e-05  0.999273  0.0
H  H46  1  0.27443283  0.68307690  0.99528516  1  0.455173  2.8e-05  0.289674  0.280618  3.9e-05  0.998703  0.0
H  H47  1  0.22441501  0.31707144  0.49502104  1  0.452023  4.7e-05  0.289613  0.279969  3.5e-05  0.998944  0.0
C  C48  1  0.26656754  0.62395597  0.61006044  1  1.51967  0.001217  0.236577  0.627419  0.000927  4.108529  0.0
C  C49  1  0.23422861  0.37572192  0.11084272  1  1.530181  0.028198  0.238066  0.628356  0.029313  4.115338  0.022
C  C50  1  0.73461921  0.12432207  0.88913970  1  1.532062  0.028083  0.238236  0.628419  0.029209  4.114452  0.022
C  C51  1  0.76658856  0.87610764  0.38997233  1  1.517899  -0.000342  0.236645  0.627117  -0.000465  4.108324  0.0
C  C52  1  0.25695799  0.56045145  0.68214468  1  -0.009609  0.008719  -0.005308  -0.028015  0.007901  3.937183  0.005
C  C53  1  0.24327217  0.43897583  0.18318806  1  0.017292  -0.00501  -0.005519  -0.027324  -0.005016  3.933833  -0.005
C  C54  1  0.74390077  0.06104069  0.81680315  1  0.025978  -0.005881  -0.005778  -0.027703  -0.005797  3.933191  -0.005
C  C55  1  0.75738428  0.93955611  0.31785198  1  -0.00684  0.008888  -0.005853  -0.028488  0.008  3.939393  0.006
C  C56  1  0.07759266  0.55413348  0.72240280  1  -0.045048  -0.002001  -0.072643  -0.082031  -0.001849  3.949177  -0.002
C  C57  1  0.42246559  0.44521279  0.22358125  1  -0.093052  0.008294  -0.071905  -0.080811  0.007292  3.949583  0.005
C  C58  1  0.92300007  0.05486633  0.77634295  1  -0.099908  0.007556  -0.072031  -0.081122  0.00659  3.94928  0.005
C  C59  1  0.57807471  0.94592746  0.27753162  1  -0.043323  -0.00266  -0.07239  -0.081654  -0.002403  3.949767  -0.002
C  C60  1  0.06939383  0.49711034  0.79099901  1  -0.031636  0.007367  -0.078886  -0.098259  0.006432  3.967452  0.004
C  C61  1  0.43051519  0.50243623  0.29207364  1  0.01344  -0.002058  -0.079796  -0.099729  -0.001836  3.971399  -0.002
C  C62  1  0.93098736  0.99762153  0.70784963  1  0.004079  -0.002792  -0.079394  -0.099698  -0.002569  3.971516  -0.002
C  C63  1  0.56990559  0.00291578  0.20891643  1  -0.032452  0.008539  -0.078082  -0.097084  0.007499  3.967048  0.005
C  C64  1  0.41974804  0.45262785  0.77964314  1  -0.008484  0.008662  -0.075069  -0.084977  0.007633  3.944832  0.005
C  C65  1  0.08021958  0.54705728  0.28047589  1  -0.051409  -0.002032  -0.074874  -0.085742  -0.001893  3.944872  -0.002
C  C66  1  0.58087299  0.95285796  0.71962712  1  -0.050508  -0.002471  -0.075091  -0.086325  -0.002235  3.944433  -0.002
C  C67  1  0.92017709  0.04729226  0.22038518  1  -0.011153  0.007638  -0.075359  -0.085796  0.006701  3.945052  0.005
C  C68  1  0.42799150  0.50924698  0.71094051  1  -0.018774  -0.002063  -0.072932  -0.079953  -0.001862  3.9398  -0.002
C  C69  1  0.07227628  0.49042500  0.21175573  1  -0.021434  0.00706  -0.07213  -0.078353  0.006189  3.93839  0.004
C  C70  1  0.57296965  0.00950171  0.78831749  1  -0.024691  0.008241  -0.07173  -0.077514  0.007253  3.93815  0.005
C  C71  1  0.92841561  0.99070876  0.28911419  1  -0.019407  -0.002824  -0.072865  -0.079441  -0.002621  3.941425  -0.002
C  C72  1  0.23191434  0.38126284  0.89169021  1  1.519723  0.028402  0.233538  0.623812  0.029369  4.125335  0.022
C  C73  1  0.26839745  0.61897082  0.39227146  1  1.501904  0.000643  0.232016  0.620333  0.00027  4.119861  0.0
C  C74  1  0.76857093  0.88102105  0.60774600  1  1.502376  0.000253  0.232075  0.620528  0.000204  4.118748  0.0
C  C75  1  0.73228595  0.11872552  0.10830069  1  1.52249  0.02838  0.234185  0.624401  0.029376  4.124465  0.022
C  C76  1  0.24059759  0.44606312  0.81995082  1  -0.048766  -0.00486  -0.010904  -0.035869  -0.004836  3.962317  -0.005
C  C77  1  0.25927653  0.55367013  0.32087247  1  -0.024187  0.00855  -0.011452  -0.036125  0.007749  3.967957  0.005
C  C78  1  0.75980810  0.94628126  0.67915671  1  -0.023954  0.008474  -0.011896  -0.036699  0.007625  3.967403  0.005
C  C79  1  0.74109396  0.05395915  0.18003803  1  -0.048104  -0.00559  -0.010781  -0.035453  -0.005518  3.962592  -0.005
C  C80  1  0.99031206  0.14826725  0.45417503  1  0.383547  5.3e-05  0.088294  0.288717  4.9e-05  4.106069  0.0
C  C81  1  0.50919254  0.85145480  0.95330193  1  0.345156  0.000173  0.088957  0.289503  0.000117  4.10346  0.0
C  C82  1  0.00914094  0.64853321  0.04666257  1  0.344956  0.000135  0.088752  0.289428  8.9e-05  4.10383  0.0
C  C83  1  0.49013566  0.35172697  0.54584204  1  0.384873  -3.7e-05  0.088367  0.289249  -4.7e-05  4.106152  0.0
C  C84  1  0.17296870  0.09324246  0.46390018  1  -0.074413  0.000347  -0.109773  -0.212386  0.000377  3.963694  0.0
C  C85  1  0.32681980  0.90692222  0.96276498  1  -0.071851  0.000395  -0.109396  -0.211403  0.000247  3.961909  0.0
C  C86  1  0.82679357  0.59316295  0.03720505  1  -0.071721  0.000373  -0.109466  -0.211582  0.000227  3.961397  0.0
C  C87  1  0.67270561  0.40674974  0.53613071  1  -0.075094  -0.000284  -0.109758  -0.21251  -0.000343  3.962096  0.0
C  C88  1  0.33049242  0.11311417  0.41450915  1  -0.024555  -5e-06  -0.099023  -0.06671  -3.9e-05  4.046439  0.0
C  C89  1  0.16919407  0.88674676  0.91348852  1  -0.01093  -0.000127  -0.099115  -0.067056  -0.000165  4.047794  0.0
C  C90  1  0.66918679  0.61333832  0.08650467  1  -0.009408  -0.000128  -0.099205  -0.067631  -0.000165  4.047837  0.0
C  C91  1  0.83025743  0.38683591  0.58553559  1  -0.024778  2e-06  -0.099367  -0.067172  1.2e-05  4.046503  0.0
C  C92  1  0.31131831  0.18881401  0.35460099  1  -0.037312  6.9e-05  -0.124075  -0.153701  7e-05  4.081215  0.0
C  C93  1  0.18796090  0.81034238  0.85399357  1  -0.117773  0.000528  -0.12444  -0.153924  0.000476  4.081877  0.0
C  C94  1  0.68794553  0.68968264  0.14602688  1  -0.119365  0.000506  -0.124368  -0.153501  0.00046  4.082202  0.0
C  C95  1  0.81119363  0.31112006  0.64543072  1  -0.036925  4.2e-05  -0.123826  -0.154027  4.5e-05  4.081287  0.0
C  C96  1  0.13192622  0.24531203  0.34554340  1  -0.070634  0.00014  -0.1056  -0.079475  0.000138  4.088208  0.0
C  C97  1  0.36707760  0.75343970  0.84522058  1  -0.012907  -0.000241  -0.106401  -0.079416  -0.000211  4.088634  0.0
C  C98  1  0.86701794  0.74649808  0.15479436  1  -0.011622  -0.000186  -0.106521  -0.079896  -0.000174  4.089157  0.0
C  C99  1  0.63188568  0.25463237  0.65447503  1  -0.069478  2e-05  -0.105471  -0.079047  3.2e-05  4.087658  0.0
C  C100  1  0.97329923  0.22607459  0.39460543  1  -0.0571  9.6e-05  -0.113557  -0.216212  7.5e-05  3.980611  0.0
C  C101  1  0.52583665  0.77296349  0.89415554  1  -0.018076  0.000787  -0.113883  -0.217096  0.000734  3.980603  0.0
C  C102  1  0.02575547  0.72695845  0.10584356  1  -0.018516  0.000671  -0.113751  -0.216911  0.000626  3.980843  0.0
C  C103  1  0.47322490  0.27390715  0.60540266  1  -0.059106  -7.4e-05  -0.113507  -0.216385  -6.5e-05  3.980754  0.0
N  N104  1  0.82880844  0.12259984  0.49954967  1  -1.246547  -0.000246  -0.599142  -0.608748  -0.000227  3.324542  0.0
N  N105  1  0.67086017  0.87740276  0.99849517  1  -1.237528  0.002116  -0.598733  -0.608885  0.001915  3.32284  0.002
N  N106  1  0.17077068  0.62257845  0.00142938  1  -1.235724  0.001959  -0.598912  -0.609484  0.001772  3.323339  0.001
N  N107  1  0.32860307  0.37741779  0.50045688  1  -1.24671  0.000338  -0.599109  -0.60879  0.000297  3.325152  0.0
O  O108  1  0.28138945  0.81355031  0.49949442  1  -0.8454  0.059858  -0.611891  -0.776721  0.054749  1.840766  0.055
O  O109  1  0.21686943  0.18712547  0.99951838  1  -0.859014  -0.078015  -0.616485  -0.788128  -0.077484  1.842446  -0.078
O  O110  1  0.71682704  0.31283584  0.00046700  1  -0.858246  -0.077515  -0.616224  -0.787321  -0.077004  1.841675  -0.078
O  O111  1  0.78181148  0.68628792  0.50050461  1  -0.848919  -0.062413  -0.61358  -0.779611  -0.059472  1.842192  -0.058
O  O112  1  0.10320362  0.65983771  0.58249238  1  -1.131747  0.002613  -0.346552  -0.584327  0.003419  2.377058  0.016
O  O113  1  0.39755551  0.33898471  0.08412659  1  -1.135318  0.021978  -0.344172  -0.586205  0.016105  2.365606  0.002
O  O114  1  0.89785641  0.16102709  0.91592220  1  -1.135299  0.021769  -0.343922  -0.585255  0.015921  2.366013  0.002
O  O115  1  0.60331285  0.84023412  0.41740742  1  -1.134728  -0.000184  -0.346351  -0.585131  -0.002255  2.378062  -0.014
O  O116  1  0.06187659  0.36784021  0.92244660  1  -1.145149  0.016987  -0.350365  -0.610156  0.012035  2.381232  -0.002
O  O117  1  0.43885550  0.63491673  0.42206695  1  -1.141746  -0.000241  -0.350645  -0.607767  -0.002404  2.391149  -0.014
O  O118  1  0.93906991  0.86495479  0.57787647  1  -1.140859  0.002565  -0.350899  -0.607264  0.003584  2.389672  0.016
O  O119  1  0.56228056  0.13209536  0.07750964  1  -1.147735  0.017012  -0.350926  -0.611229  0.012011  2.382222  -0.003
O  O120  1  0.43738999  0.64107723  0.58128198  1  -1.133751  0.000158  -0.346798  -0.596154  -0.002152  2.406548  -0.014
O  O121  1  0.06348589  0.36043332  0.08150715  1  -1.133529  0.01598  -0.345998  -0.595548  0.010928  2.400615  -0.003
O  O122  1  0.56381695  0.13963509  0.91842920  1  -1.135414  0.015924  -0.346542  -0.596455  0.010865  2.400059  -0.003
O  O123  1  0.93747401  0.85897683  0.41887941  1  -1.129624  0.002142  -0.347335  -0.595773  0.003275  2.40545  0.015
O  O124  1  0.39493584  0.34274465  0.91714703  1  -1.132621  0.021305  -0.343217  -0.577276  0.015537  2.362295  0.001
O  O125  1  0.10501831  0.65639694  0.41855487  1  -1.126665  0.003449  -0.34539  -0.574919  0.004217  2.368336  0.017
O  O126  1  0.60524670  0.84372564  0.58151519  1  -1.128795  -0.001024  -0.345361  -0.575975  -0.003079  2.368659  -0.015
O  O127  1  0.89521682  0.15733166  0.08286696  1  -1.132743  0.021203  -0.343741  -0.577185  0.015467  2.361003  0.001
