# generated using pymatgen
data_CdH6(C5N2)2
_symmetry_space_group_name_H-M   'P 1'
_cell_length_a   15.67093502
_cell_length_b   15.67079105
_cell_length_c   15.67091292
_cell_angle_alpha   109.47101008
_cell_angle_beta   109.47192852
_cell_angle_gamma   109.47109443
_symmetry_Int_Tables_number   1
_chemical_formula_structural   CdH6(C5N2)2
_chemical_formula_sum   'Cd6 H36 C60 N24'
_cell_volume   2962.48559247
_cell_formula_units_Z   6
loop_
 _symmetry_equiv_pos_site_id
 _symmetry_equiv_pos_as_xyz
  1  'x, y, z'
loop_
 _atom_site_type_symbol
 _atom_site_label
 _atom_site_symmetry_multiplicity
 _atom_site_fract_x
 _atom_site_fract_y
 _atom_site_fract_z
 _atom_site_occupancy
 _atom_site_pbe_bader_charge
 _atom_site_pbe_bader_spin_density
 _atom_site_pbe_cm5_charge
 _atom_site_pbe_ddec_charge
 _atom_site_pbe_ddec_spin_density
 _atom_site_pbe_ddec_sum_bond_order
 _atom_site_pbe_magmom
Cd  Cd0  1  0.74999903  0.49999979  0.24999956  1  1.155227  0  0.80692  0.753201  0  2.326148  0
Cd  Cd1  1  0.24999933  0.50000008  0.74999955  1  1.155234  0  0.80692  0.75322  0  2.326133  0
Cd  Cd2  1  0.49999960  0.25000019  0.74999852  1  1.155132  0  0.806923  0.753197  0  2.326148  0
Cd  Cd3  1  0.24999894  0.74999945  0.49999805  1  1.155166  0  0.806893  0.753156  0  2.326124  0
Cd  Cd4  1  0.74999926  0.25000103  0.50000061  1  1.155125  0  0.806924  0.753181  0  2.326124  0
Cd  Cd5  1  0.49999795  0.74999964  0.24999950  1  1.155225  0  0.806882  0.753147  0  2.326154  0
H  H6  1  0.87111232  0.61964088  0.61964090  1  0.17896  0  0.141445  0.223485  0  0.990121  0
H  H7  1  0.74852782  0.74852706  0.12888870  1  0.173204  0  0.141453  0.223471  0  0.990213  0
H  H8  1  0.38036195  0.25147387  0.00000048  1  0.17064  0  0.141478  0.223519  0  0.99018  0
H  H9  1  0.12888854  0.74852693  0.74852739  1  0.173427  0  0.141434  0.223473  0  0.990211  0
H  H10  1  0.25147119  0.00000048  0.38035821  1  0.170582  0  0.14146  0.223451  0  0.990173  0
H  H11  1  0.38035856  0.99999947  0.25147164  1  0.17058  0  0.141464  0.223476  0  0.990145  0
H  H12  1  0.00000032  0.25147228  0.38035986  1  0.170534  0  0.141458  0.223475  0  0.990151  0
H  H13  1  0.25147144  0.38035823  0.00000029  1  0.170589  0  0.141464  0.223459  0  0.990149  0
H  H14  1  0.00000066  0.38035792  0.25147071  1  0.17058  0  0.141467  0.22347  0  0.990145  0
H  H15  1  0.61964284  0.61964266  0.87111369  1  0.178961  0  0.141464  0.223473  0  0.990169  0
H  H16  1  0.74852950  0.12888560  0.74852909  1  0.173326  0  0.14148  0.223503  0  0.990114  0
H  H17  1  0.61964398  0.87111442  0.61964401  1  0.178917  0  0.141464  0.223487  0  0.990156  0
H  H18  1  0.65006862  0.23505176  0.12606433  1  0.067807  0  0.110609  0.102938  0  1.015861  0
H  H19  1  0.58498496  0.47599553  0.34993051  1  0.078903  0  0.110631  0.102983  0  1.015834  0
H  H20  1  0.87393502  0.52400468  0.10899018  1  0.087282  0  0.110624  0.102946  0  1.015864  0
H  H21  1  0.34993024  0.47599488  0.58498514  1  0.078897  0  0.110623  0.10294  0  1.015841  0
H  H22  1  0.52400499  0.10898870  0.87393578  1  0.087275  0  0.110611  0.102915  0  1.015865  0
H  H23  1  0.41501557  0.89101085  0.76494643  1  0.082483  0  0.110618  0.102948  0  1.015872  0
H  H24  1  0.87393577  0.10898898  0.52400488  1  0.087275  0  0.110608  0.102911  0  1.015867  0
H  H25  1  0.76494658  0.89101135  0.41501507  1  0.082494  0  0.110615  0.102914  0  1.015854  0
H  H26  1  0.47599653  0.58498343  0.34993024  1  0.078946  0  0.110623  0.10292  0  1.015858  0
H  H27  1  0.89101353  0.41501715  0.76494687  1  0.082503  0  0.110625  0.102937  0  1.015864  0
H  H28  1  0.34993029  0.58498380  0.47599674  1  0.078943  0  0.110619  0.10291  0  1.015851  0
H  H29  1  0.76494643  0.41501666  0.89101318  1  0.082505  0  0.110611  0.102915  0  1.015871  0
H  H30  1  0.52400528  0.87393682  0.10898944  1  0.087252  0  0.110624  0.102925  0  1.015883  0
H  H31  1  0.10898925  0.87393694  0.52400552  1  0.087251  0  0.110609  0.102924  0  1.015881  0
H  H32  1  0.65006840  0.12606346  0.23505228  1  0.067793  0  0.110619  0.102935  0  1.015879  0
H  H33  1  0.23505173  0.12606294  0.65006771  1  0.067787  0  0.110617  0.10293  0  1.015872  0
H  H34  1  0.47599574  0.34993139  0.58498184  1  0.078909  0  0.11061  0.102924  0  1.015837  0
H  H35  1  0.58498190  0.34993165  0.47599488  1  0.078873  0  0.110613  0.102946  0  1.015825  0
H  H36  1  0.12606390  0.65006790  0.23505004  1  0.067806  0  0.110614  0.102963  0  1.015851  0
H  H37  1  0.23505070  0.65006879  0.12606371  1  0.067805  0  0.110613  0.102949  0  1.015851  0
H  H38  1  0.89101243  0.76494819  0.41501684  1  0.082492  0  0.110599  0.10292  0  1.015856  0
H  H39  1  0.41501811  0.76494865  0.89101308  1  0.082509  0  0.110602  0.102931  0  1.015841  0
H  H40  1  0.12606371  0.23505126  0.65006853  1  0.067803  0  0.110606  0.102926  0  1.015879  0
H  H41  1  0.10899139  0.52400615  0.87393618  1  0.087252  0  0.110621  0.102954  0  1.015858  0
C  C42  1  0.67871386  0.26296943  0.20882884  1  0.328681  0  -0.016387  -0.048627  0  4.053886  0
C  C43  1  0.58425714  0.53011546  0.32128601  1  0.457197  0  -0.01641  -0.048699  0  4.053882  0
C  C44  1  0.79116963  0.46988461  0.05414192  1  0.411787  0  -0.01646  -0.048722  0  4.054023  0
C  C45  1  0.32128544  0.53011547  0.58425710  1  0.457209  0  -0.016447  -0.04871  0  4.05399  0
C  C46  1  0.46988463  0.05414080  0.79117016  1  0.411796  0  -0.016433  -0.048692  0  4.053974  0
C  C47  1  0.41574353  0.94585894  0.73702977  1  0.354769  0  -0.016401  -0.048674  0  4.053904  0
C  C48  1  0.79117028  0.05414119  0.46988444  1  0.411807  0  -0.016435  -0.048697  0  4.053995  0
C  C49  1  0.73702916  0.94585852  0.41574296  1  0.35478  0  -0.01644  -0.048698  0  4.054002  0
C  C50  1  0.53011628  0.58425586  0.32128511  1  0.314969  0  -0.016437  -0.04867  0  4.054003  0
C  C51  1  0.94586037  0.41574427  0.73702983  1  0.354768  0  -0.016412  -0.04867  0  4.05394  0
C  C52  1  0.32128508  0.58425550  0.53011580  1  0.314969  0  -0.016434  -0.04868  0  4.053982  0
C  C53  1  0.73702939  0.41574414  0.94586007  1  0.35478  0  -0.016449  -0.048718  0  4.054045  0
C  C54  1  0.46988469  0.79117129  0.05414156  1  0.411793  0  -0.016437  -0.048691  0  4.05404  0
C  C55  1  0.05414178  0.79117138  0.46988454  1  0.411797  0  -0.016432  -0.048682  0  4.054019  0
C  C56  1  0.67871297  0.20882892  0.26296995  1  0.47034  0  -0.016419  -0.048706  0  4.053954  0
C  C57  1  0.26297006  0.20882901  0.67871294  1  0.470638  0  -0.016424  -0.048689  0  4.053928  0
C  C58  1  0.53011606  0.32128621  0.58425553  1  0.314958  0  -0.016399  -0.048634  0  4.053858  0
C  C59  1  0.58425616  0.32128623  0.53011513  1  0.457176  0  -0.016415  -0.048715  0  4.053875  0
C  C60  1  0.20882942  0.67871370  0.26296970  1  0.470666  0  -0.016437  -0.048736  0  4.053921  0
C  C61  1  0.26296953  0.67871372  0.20882930  1  0.328415  0  -0.016406  -0.048658  0  4.053878  0
C  C62  1  0.94585959  0.73703064  0.41574401  1  0.354859  0  -0.016398  -0.048657  0  4.053897  0
C  C63  1  0.41574461  0.73703020  0.94586016  1  0.354864  0  -0.016426  -0.048685  0  4.053904  0
C  C64  1  0.20882939  0.26296960  0.67871358  1  0.328386  0  -0.016377  -0.048616  0  4.053881  0
C  C65  1  0.05414234  0.46988479  0.79117081  1  0.411793  0  -0.016416  -0.048664  0  4.053931  0
C  C66  1  0.74924396  0.37360515  0.37360507  1  1.035129  0  0.189352  0.311608  0  4.163466  0
C  C67  1  0.62436077  0.62436160  0.25075656  1  1.045231  0  0.189331  0.311559  0  4.163536  0
C  C68  1  0.62639476  0.37563956  0.99999950  1  1.001056  0  0.189305  0.311539  0  4.163567  0
C  C69  1  0.25075525  0.62436043  0.62435939  1  1.045157  0  0.189326  0.311544  0  4.163503  0
C  C70  1  0.37563908  0.99999896  0.62639454  1  1.001128  0  0.189333  0.311533  0  4.163453  0
C  C71  1  0.62639455  0.99999985  0.37563884  1  1.001094  0  0.18933  0.311532  0  4.163501  0
C  C72  1  0.99999937  0.37563827  0.62639430  1  1.001072  0  0.189342  0.311611  0  4.1635  0
C  C73  1  0.37563909  0.62639579  0.00000054  1  1.001061  0  0.189377  0.311631  0  4.163405  0
C  C74  1  0.99999886  0.62639484  0.37563764  1  1.001123  0  0.189326  0.311523  0  4.163347  0
C  C75  1  0.37360424  0.37360491  0.74924308  1  1.0352  0  0.189376  0.311612  0  4.163396  0
C  C76  1  0.62436162  0.25075590  0.62435946  1  1.045198  0  0.189318  0.311478  0  4.163452  0
C  C77  1  0.37360342  0.74924343  0.37360542  1  1.035019  0  0.18934  0.311564  0  4.163417  0
C  C78  1  0.79658827  0.46770594  0.46770489  1  0.013232  0  -0.047158  -0.056141  0  4.205494  0
C  C79  1  0.67111655  0.67111786  0.20341388  1  -0.44449  0  -0.047116  -0.056061  0  4.205367  0
C  C80  1  0.53229585  0.32888374  0.99999935  1  0.109517  0  -0.047115  -0.056001  0  4.20532  0
C  C81  1  0.20341101  0.67111645  0.67111551  1  -0.444375  0  -0.047112  -0.056002  0  4.205321  0
C  C82  1  0.32888141  0.99999859  0.53229197  1  0.10929  0  -0.047167  -0.056139  0  4.205533  0
C  C83  1  0.53229340  0.99999898  0.32888241  1  0.109277  0  -0.047174  -0.056177  0  4.205554  0
C  C84  1  0.99999882  0.32888179  0.53229407  1  0.109232  0  -0.047191  -0.056158  0  4.205607  0
C  C85  1  0.32888224  0.53229335  0.00000065  1  0.109452  0  -0.047198  -0.056177  0  4.205537  0
C  C86  1  0.99999860  0.53229140  0.32888000  1  0.109281  0  -0.047154  -0.056056  0  4.205459  0
C  C87  1  0.46770710  0.46770823  0.79658925  1  0.013203  0  -0.047197  -0.056111  0  4.205484  0
C  C88  1  0.67111803  0.20340991  0.67111791  1  -0.444249  0  -0.047094  -0.055961  0  4.205399  0
C  C89  1  0.46770766  0.79658703  0.46770778  1  0.013503  0  -0.047147  -0.056032  0  4.205434  0
C  C90  1  0.83598025  0.54846725  0.54846711  1  -0.328118  0  -0.134049  -0.288743  0  3.718625  0
C  C91  1  0.71248696  0.71248487  0.16402019  1  0.117747  0  -0.13405  -0.288757  0  3.718647  0
C  C92  1  0.45153537  0.28751511  0.00000108  1  -0.402336  0  -0.134099  -0.288876  0  3.718628  0
C  C93  1  0.16402142  0.71248537  0.71248606  1  0.117485  0  -0.134048  -0.288821  0  3.718706  0
C  C94  1  0.28751392  0.99999967  0.45153389  1  -0.40147  0  -0.134039  -0.288683  0  3.718849  0
C  C95  1  0.45153246  0.99999891  0.28751337  1  -0.403371  0  -0.134041  -0.288691  0  3.718729  0
C  C96  1  0.00000129  0.28751496  0.45153565  1  -0.40134  0  -0.134028  -0.288713  0  3.718776  0
C  C97  1  0.28751438  0.45153419  0.99999987  1  -0.402863  0  -0.134023  -0.288677  0  3.718806  0
C  C98  1  0.99999933  0.45153379  0.28751368  1  -0.403376  0  -0.134044  -0.288745  0  3.718881  0
C  C99  1  0.54846555  0.54846640  0.83598026  1  -0.328155  0  -0.13405  -0.288757  0  3.71882  0
C  C100  1  0.71248633  0.16401830  0.71248644  1  0.1174  0  -0.134105  -0.288854  0  3.718761  0
C  C101  1  0.54846691  0.83598144  0.54846918  1  -0.32826  0  -0.134073  -0.288809  0  3.718833  0
N  N102  1  0.72309153  0.36664495  0.27878292  1  -1.205708  0  -0.370758  -0.337709  0  3.518667  0
N  N103  1  0.64355454  0.55569210  0.27690882  1  -1.199105  0  -0.370746  -0.337702  0  3.5187  0
N  N104  1  0.72121542  0.44430749  0.08786163  1  -1.186433  0  -0.370703  -0.337627  0  3.518749  0
N  N105  1  0.27690743  0.55569200  0.64355404  1  -1.199098  0  -0.37068  -0.337617  0  3.51876  0
N  N106  1  0.44430804  0.08786208  0.72121587  1  -1.186374  0  -0.370698  -0.337585  0  3.518708  0
N  N107  1  0.35644570  0.91213710  0.63335360  1  -1.206853  0  -0.370753  -0.337663  0  3.518691  0
N  N108  1  0.72121598  0.08786255  0.44430797  1  -1.186386  0  -0.370694  -0.337559  0  3.518672  0
N  N109  1  0.63335365  0.91213758  0.35644570  1  -1.206841  0  -0.370703  -0.337592  0  3.518723  0
N  N110  1  0.55569221  0.64355431  0.27690792  1  -1.198717  0  -0.370675  -0.3376  0  3.518763  0
N  N111  1  0.91213825  0.35644614  0.63335400  1  -1.206792  0  -0.370732  -0.337675  0  3.518696  0
N  N112  1  0.27690752  0.64355359  0.55569089  1  -1.198731  0  -0.370678  -0.337578  0  3.518757  0
N  N113  1  0.63335381  0.35644645  0.91213761  1  -1.206808  0  -0.370668  -0.337559  0  3.518783  0
N  N114  1  0.44430779  0.72121709  0.08786249  1  -1.186434  0  -0.370718  -0.337597  0  3.518771  0
N  N115  1  0.08786177  0.72121655  0.44430700  1  -1.186337  0  -0.3707  -0.337624  0  3.518766  0
N  N116  1  0.72309041  0.27878311  0.36664542  1  -1.205723  0  -0.370706  -0.337638  0  3.518652  0
N  N117  1  0.36664503  0.27878321  0.72309057  1  -1.205723  0  -0.370743  -0.337702  0  3.518709  0
N  N118  1  0.55569247  0.27690841  0.64355357  1  -1.198958  0  -0.370736  -0.337691  0  3.518626  0
N  N119  1  0.64355366  0.27690812  0.55569223  1  -1.198638  0  -0.370717  -0.337594  0  3.518756  0
N  N120  1  0.27878483  0.72309149  0.36664524  1  -1.205773  0  -0.370708  -0.337656  0  3.518756  0
N  N121  1  0.36664540  0.72309137  0.27878435  1  -1.205716  0  -0.370719  -0.337686  0  3.5187  0
N  N122  1  0.91213768  0.63335454  0.35644569  1  -1.206926  0  -0.370753  -0.337677  0  3.51871  0
N  N123  1  0.35644610  0.63335440  0.91213828  1  -1.20692  0  -0.370739  -0.337717  0  3.518657  0
N  N124  1  0.27878327  0.36664522  0.72309122  1  -1.205728  0  -0.370731  -0.337682  0  3.518684  0
N  N125  1  0.08786189  0.44430770  0.72121621  1  -1.186416  0  -0.37075  -0.337719  0  3.518711  0
