# generated using pymatgen
data_ZnH8C9O8
_symmetry_space_group_name_H-M   'P 1'
_cell_length_a   6.95560701
_cell_length_b   6.99658775
_cell_length_c   12.54379852
_cell_angle_alpha   74.43367779
_cell_angle_beta   87.65918292
_cell_angle_gamma   65.23458949
_symmetry_Int_Tables_number   1
_chemical_formula_structural   ZnH8C9O8
_chemical_formula_sum   'Zn2 H16 C18 O16'
_cell_volume   532.18547302
_cell_formula_units_Z   2
loop_
 _symmetry_equiv_pos_site_id
 _symmetry_equiv_pos_as_xyz
  1  'x, y, z'
loop_
 _atom_site_type_symbol
 _atom_site_label
 _atom_site_symmetry_multiplicity
 _atom_site_fract_x
 _atom_site_fract_y
 _atom_site_fract_z
 _atom_site_occupancy
 _atom_site_hle17_bader_spin_density
 _atom_site_hle17_ddec_charge
 _atom_site_hle17_ddec_spin_density
 _atom_site_hle17_ddec_sum_bond_order
 _atom_site_hle17_magmom
 _atom_site_hse06_10hf_bader_spin_density
 _atom_site_hse06_10hf_ddec_charge
 _atom_site_hse06_10hf_ddec_spin_density
 _atom_site_hse06_10hf_ddec_sum_bond_order
 _atom_site_hse06_10hf_magmom
 _atom_site_hse06_bader_spin_density
 _atom_site_hse06_ddec_charge
 _atom_site_hse06_ddec_spin_density
 _atom_site_hse06_ddec_sum_bond_order
 _atom_site_hse06_magmom
 _atom_site_pbe_bader_spin_density
 _atom_site_pbe_cm5_charge
 _atom_site_pbe_ddec_charge
 _atom_site_pbe_ddec_spin_density
 _atom_site_pbe_ddec_sum_bond_order
 _atom_site_pbe_magmom
Zn  Zn0  1  0.49999958  0.50000030  0.99999637  1  0  1.229061  0  1.713658  0  0  1.081561  0  2.159901  0  0  1.125621  0  2.099256  0  0  0.679442  1.050394  0  2.201858  0
Zn  Zn1  1  0.99999819  0.00000125  0.99999732  1  0  1.205505  0  1.644303  0  0  1.043769  0  2.083397  0  0  1.093689  0  2.022539  0  0  0.679933  1.008347  0  2.125447  0
H  H2  1  0.15685983  0.76672003  0.64356098  1  0  0.416652  0  0.778505  0  0  0.399858  0  0.832912  0  0  0.409913  0  0.8221  0  0  0.349691  0.392569  0  0.840882  0
H  H3  1  0.84313563  0.23327484  0.35643951  1  0  0.416559  0  0.7786  0  0  0.399774  0  0.832993  0  0  0.409825  0  0.822195  0  0  0.349665  0.392493  0  0.840947  0
H  H4  1  0.58788387  0.11791658  0.12174413  1  0  0.420006  0  0.892067  0  0  0.386939  0  0.959536  0  0  0.397761  0  0.944065  0  0  0.288126  0.379297  0  0.970451  0
H  H5  1  0.41211808  0.88208339  0.87825478  1  0  0.419908  0  0.892203  0  0  0.386892  0  0.959571  0  0  0.397714  0  0.944103  0  0  0.288105  0.379266  0  0.970458  0
H  H6  1  0.48968656  0.26872010  0.20437861  1  0  0.431935  0  0.865793  0  0  0.40226  0  0.927326  0  0  0.412372  0  0.912473  0  0  0.294401  0.395162  0  0.937744  0
H  H7  1  0.51031529  0.73127309  0.79562521  1  0  0.431985  0  0.865726  0  0  0.40228  0  0.927319  0  0  0.412394  0  0.912463  0  0  0.294438  0.395178  0  0.937743  0
H  H8  1  0.09264802  0.59157181  0.05003837  1  0  0.423328  0  0.87522  0  0  0.389821  0  0.951179  0  0  0.401822  0  0.93405  0  0  0.295384  0.381339  0  0.962321  0
H  H9  1  0.90735183  0.40843304  0.94996071  1  0  0.423283  0  0.875247  0  0  0.389775  0  0.951234  0  0  0.401776  0  0.934105  0  0  0.295381  0.381292  0  0.962356  0
H  H10  1  0.09485033  0.62932835  0.91830793  1  0  0.445292  0  0.826292  0  0  0.417474  0  0.891734  0  0  0.427748  0  0.8767  0  0  0.311556  0.410165  0  0.902037  0
H  H11  1  0.90515092  0.37067637  0.08169434  1  0  0.445304  0  0.826452  0  0  0.41749  0  0.891745  0  0  0.427764  0  0.876711  0  0  0.311563  0.410184  0  0.902159  0
H  H12  1  0.22194950  0.82338928  0.36543794  1  0  0.10641  0  0.9481  0  0  0.114421  0  1.014275  0  0  0.118336  0  1.010714  0  0  0.108482  0.111521  0  1.016982  0
H  H13  1  0.77804958  0.17661365  0.63456700  1  0  0.106384  0  0.948069  0  0  0.114363  0  1.014272  0  0  0.118278  0  1.010711  0  0  0.108464  0.111461  0  1.016985  0
H  H14  1  0.80033509  0.70184827  0.54020255  1  0  0.104532  0  0.945287  0  0  0.114324  0  1.006649  0  0  0.118007  0  1.003888  0  0  0.10799  0.111609  0  1.008739  0
H  H15  1  0.19966757  0.29815329  0.45979773  1  0  0.104525  0  0.945302  0  0  0.114323  0  1.006672  0  0  0.118013  0  1.003902  0  0  0.107997  0.11161  0  1.008765  0
H  H16  1  0.98610263  0.67738186  0.36596113  1  0  0.104836  0  0.945867  0  0  0.115005  0  1.007269  0  0  0.118026  0  1.005987  0  0  0.106657  0.112717  0  1.008522  0
H  H17  1  0.01389791  0.32262128  0.63403977  1  0  0.104853  0  0.945772  0  0  0.115023  0  1.007169  0  0  0.118043  0  1.005887  0  0  0.106637  0.112734  0  1.008424  0
C  C18  1  0.82759659  0.71835572  0.16696670  1  0  0.696206  0  3.857469  0  0  0.632228  0  4.169768  0  0  0.667688  0  4.159434  0  0  0.226275  0.608008  0  4.176146  0
C  C19  1  0.17239754  0.28164898  0.83303328  1  0  0.69631  0  3.85724  0  0  0.632307  0  4.169619  0  0  0.66776  0  4.159296  0  0  0.226318  0.608081  0  4.176003  0
C  C20  1  0.37942845  0.78818850  0.16604272  1  0  0.69286  0  3.865783  0  0  0.638275  0  4.161828  0  0  0.674215  0  4.152744  0  0  0.220754  0.613857  0  4.167302  0
C  C21  1  0.62057772  0.21180814  0.83395898  1  0  0.692669  0  3.866075  0  0  0.638237  0  4.161884  0  0  0.674177  0  4.152797  0  0  0.22075  0.613829  0  4.167343  0
C  C22  1  0.38938035  0.79064795  0.36670772  1  0  -0.044155  0  3.671536  0  0  -0.082769  0  3.922485  0  0  -0.07877  0  3.939078  0  0  -0.070271  -0.085174  0  3.911342  0
C  C23  1  0.61061449  0.20935516  0.63329167  1  0  -0.04405  0  3.67159  0  0  -0.082625  0  3.922513  0  0  -0.078628  0  3.93911  0  0  -0.070217  -0.085029  0  3.911366  0
C  C24  1  0.49253809  0.77351101  0.26969911  1  0  -0.07093  0  3.707666  0  0  -0.055757  0  3.94475  0  0  -0.062845  0  3.963973  0  0  -0.0086  -0.051415  0  3.932106  0
C  C25  1  0.50746462  0.22649393  0.73029912  1  0  -0.070978  0  3.707709  0  0  -0.055855  0  3.944788  0  0  -0.062938  0  3.964007  0  0  -0.008631  -0.05151  0  3.932123  0
C  C26  1  0.50162259  0.75941313  0.46473522  1  0  -0.095803  0  3.794549  0  0  -0.072502  0  4.034831  0  0  -0.083321  0  4.060588  0  0  -0.022457  -0.065446  0  4.017434  0
C  C27  1  0.49837645  0.24058338  0.53526659  1  0  -0.095805  0  3.79441  0  0  -0.072508  0  4.034679  0  0  -0.083328  0  4.060434  0  0  -0.022476  -0.065455  0  4.017286  0
C  C28  1  0.70978553  0.72805562  0.27034335  1  0  -0.038139  0  3.691253  0  0  -0.0299  0  3.93258  0  0  -0.02993  0  3.949165  0  0  0.002437  -0.029927  0  3.921598  0
C  C29  1  0.29020787  0.27194739  0.72965767  1  0  -0.038134  0  3.691017  0  0  -0.029924  0  3.932423  0  0  -0.029957  0  3.94901  0  0  0.002398  -0.029939  0  3.921425  0
C  C30  1  0.71645693  0.72129025  0.46388426  1  0  -0.045197  0  3.721346  0  0  -0.07733  0  3.980843  0  0  -0.075044  0  3.999726  0  0  -0.077214  -0.078463  0  3.967801  0
C  C31  1  0.28354428  0.27870802  0.53611569  1  0  -0.045203  0  3.721486  0  0  -0.077341  0  3.980968  0  0  -0.075065  0  3.999853  0  0  -0.077234  -0.078472  0  3.967925  0
C  C32  1  0.81922837  0.70710423  0.36714186  1  0  -0.089394  0  3.722473  0  0  -0.113301  0  3.982456  0  0  -0.11673  0  4.001492  0  0  -0.086464  -0.111135  0  3.969724  0
C  C33  1  0.18077856  0.29289423  0.63285639  1  0  -0.08943  0  3.722496  0  0  -0.113329  0  3.982494  0  0  -0.116754  0  4.001533  0  0  -0.086443  -0.111168  0  3.96976  0
C  C34  1  0.40607300  0.75504427  0.57232093  1  0  0.647263  0  3.826306  0  0  0.595033  0  4.131912  0  0  0.627179  0  4.125815  0  0  0.236337  0.573126  0  4.135648  0
C  C35  1  0.59391479  0.24495607  0.42766457  1  0  0.647278  0  3.826435  0  0  0.595052  0  4.132031  0  0  0.627211  0  4.125905  0  0  0.23634  0.573134  0  4.13579  0
O  O36  1  0.96850311  0.53677210  0.15899666  1  0  -0.612846  0  1.946277  0  0  -0.558142  0  2.163211  0  0  -0.582448  0  2.150522  0  0  -0.309053  -0.541047  0  2.171327  0
O  O37  1  0.03150097  0.46322941  0.84100521  1  0  -0.612865  0  1.946294  0  0  -0.558143  0  2.16326  0  0  -0.582446  0  2.150574  0  0  -0.309065  -0.541046  0  2.171368  0
O  O38  1  0.50527452  0.72232352  0.65925438  1  0  -0.552361  0  2.002721  0  0  -0.507165  0  2.22321  0  0  -0.527991  0  2.215709  0  0  -0.272594  -0.493074  0  2.228267  0
O  O39  1  0.49473013  0.27766320  0.34074868  1  0  -0.552299  0  2.003352  0  0  -0.507119  0  2.223832  0  0  -0.527946  0  2.216319  0  0  -0.272523  -0.493024  0  2.228893  0
O  O40  1  0.78527109  0.90580331  0.09806551  1  0  -0.649327  0  2.106131  0  0  -0.569415  0  2.351499  0  0  -0.600756  0  2.339856  0  0  -0.300469  -0.547401  0  2.358895  0
O  O41  1  0.21472513  0.09419648  0.90193511  1  0  -0.64935  0  2.106045  0  0  -0.569451  0  2.351426  0  0  -0.600784  0  2.339778  0  0  -0.300462  -0.547458  0  2.358845  0
O  O42  1  0.47400325  0.26058373  0.12817258  1  0  -0.838334  0  1.911841  0  0  -0.778431  0  2.112118  0  0  -0.80051  0  2.07872  0  0  -0.583875  -0.762838  0  2.135182  0
O  O43  1  0.52600011  0.73941620  0.87182792  1  0  -0.838283  0  1.91197  0  0  -0.778387  0  2.112246  0  0  -0.800469  0  2.078844  0  0  -0.583887  -0.762798  0  2.135311  0
O  O44  1  0.49982158  0.68272651  0.10323274  1  0  -0.653189  0  2.104379  0  0  -0.583736  0  2.366815  0  0  -0.612364  0  2.353917  0  0  -0.311174  -0.563706  0  2.375016  0
O  O45  1  0.50018527  0.31726838  0.89677157  1  0  -0.653099  0  2.104525  0  0  -0.58365  0  2.36683  0  0  -0.612294  0  2.353958  0  0  -0.31115  -0.563631  0  2.375037  0
O  O46  1  0.14692529  0.66175174  0.98057436  1  0  -0.846847  0  1.984714  0  0  -0.777847  0  2.224018  0  0  -0.801239  0  2.184537  0  0  -0.546197  -0.761207  0  2.250049  0
O  O47  1  0.85308308  0.33824989  0.01942663  1  0  -0.846812  0  1.984796  0  0  -0.777852  0  2.224074  0  0  -0.801231  0  2.18457  0  0  -0.54624  -0.761234  0  2.250223  0
O  O48  1  0.20117010  0.78459286  0.56757460  1  0  -0.533159  0  2.066212  0  0  -0.486113  0  2.277496  0  0  -0.506768  0  2.264743  0  0  -0.322897  -0.471662  0  2.286089  0
O  O49  1  0.79882330  0.21541019  0.43242562  1  0  -0.533097  0  2.066104  0  0  -0.486058  0  2.277382  0  0  -0.506718  0  2.264628  0  0  -0.322905  -0.4716  0  2.28597  0
O  O50  1  0.17931987  0.89976540  0.15054279  1  0  -0.636968  0  2.00843  0  0  -0.575925  0  2.264477  0  0  -0.604038  0  2.250901  0  0  -0.316512  -0.556258  0  2.273113  0
O  O51  1  0.82067981  0.10022609  0.84946129  1  0  -0.636888  0  2.008643  0  0  -0.575911  0  2.264641  0  0  -0.604021  0  2.251062  0  0  -0.316511  -0.556256  0  2.273283  0
