# generated using pymatgen
data_CeH27C27SN5Cl3
_symmetry_space_group_name_H-M   'P 1'
_cell_length_a   9.16916160
_cell_length_b   18.39387210
_cell_length_c   18.53760131
_cell_angle_alpha   106.97426490
_cell_angle_beta   89.96487767
_cell_angle_gamma   104.44515826
_symmetry_Int_Tables_number   1
_chemical_formula_structural   CeH27C27SN5Cl3
_chemical_formula_sum   'Ce4 H108 C108 S4 N20 Cl12'
_cell_volume   2886.93554810
_cell_formula_units_Z   4
loop_
 _symmetry_equiv_pos_site_id
 _symmetry_equiv_pos_as_xyz
  1  'x, y, z'
loop_
 _atom_site_type_symbol
 _atom_site_label
 _atom_site_symmetry_multiplicity
 _atom_site_fract_x
 _atom_site_fract_y
 _atom_site_fract_z
 _atom_site_occupancy
 _atom_site_pbe_bader_charge
 _atom_site_pbe_bader_spin_density
 _atom_site_pbe_cm5_charge
 _atom_site_pbe_ddec_charge
 _atom_site_pbe_ddec_spin_density
 _atom_site_pbe_ddec_sum_bond_order
 _atom_site_pbe_magmom
Ce  Ce0  1  0.43094585  0.72969821  0.61624448  1  2.049164  0.988804  0.973418  1.509207  1.052421  2.686611  0.959
Ce  Ce1  1  0.70125965  0.27022775  0.88376915  1  2.047321  -0.987882  0.97491  1.51025  -1.150581  2.690929  -0.958
Ce  Ce2  1  0.56898793  0.27029043  0.38378070  1  2.048285  0.986964  0.975408  1.509216  1.050458  2.69465  0.957
Ce  Ce3  1  0.29882019  0.72978675  0.11620568  1  2.047509  0.987876  0.974341  1.510324  1.050754  2.691061  0.958
H  H4  1  0.22859381  0.68069467  0.31706336  1  0.107783  4.9e-05  0.107353  0.118224  7e-06  1.021788  0.0
H  H5  1  0.54814113  0.31935145  0.18311855  1  0.10608  8.3e-05  0.10735  0.118669  1.7e-05  1.02202  0.0
H  H6  1  0.77132042  0.31923969  0.68298192  1  0.108721  -7.3e-05  0.107322  0.118452  -1.6e-05  1.02168  0.0
H  H7  1  0.45192585  0.68051074  0.81677139  1  0.105249  6e-05  0.107297  0.118638  9e-06  1.022114  0.0
H  H8  1  0.36501635  0.74757171  0.44457208  1  0.074011  0.000251  0.112111  0.067406  8.3e-05  1.03951  0.0
H  H9  1  0.61765510  0.25234249  0.05557218  1  0.085167  -0.000221  0.112686  0.068311  -8.6e-05  1.039561  0.0
H  H10  1  0.63483733  0.25237891  0.55545929  1  0.072961  0.000226  0.112129  0.067438  7.8e-05  1.039345  0.0
H  H11  1  0.38238854  0.74757106  0.94429570  1  0.087039  0.000243  0.112763  0.068427  8.1e-05  1.039076  0.0
H  H12  1  0.90859697  0.53185021  0.41840567  1  0.099263  -3.9e-05  0.100015  0.116353  -3e-05  1.023802  0.0
H  H13  1  0.37667164  0.46795319  0.08168096  1  0.106182  -1e-06  0.099627  0.115754  -2.4e-05  1.023118  0.0
H  H14  1  0.09130861  0.46806461  0.58160934  1  0.099984  -4e-05  0.099959  0.116334  -3.1e-05  1.023666  0.0
H  H15  1  0.62332116  0.53194830  0.91825823  1  0.104238  4e-06  0.099967  0.116107  2.4e-05  1.023587  0.0
H  H16  1  0.06122825  0.60394238  0.54241843  1  0.121292  -2.6e-05  0.107006  0.07718  -2.2e-05  1.032221  0.0
H  H17  1  0.45729474  0.39576932  0.95768021  1  0.11937  2.8e-05  0.10749  0.077698  2.2e-05  1.032085  0.0
H  H18  1  0.93860409  0.39599394  0.45761720  1  0.121506  -2.2e-05  0.107031  0.076876  -2e-05  1.03247  0.0
H  H19  1  0.54272038  0.60417897  0.04225872  1  0.120525  -2.5e-05  0.107435  0.077801  -2.1e-05  1.031983  0.0
H  H20  1  0.05585708  0.73454916  0.63891816  1  0.117306  -1.4e-05  0.112538  0.078428  -1.8e-05  1.019807  0.0
H  H21  1  0.32127014  0.26534107  0.86116655  1  0.11449  1.5e-05  0.112524  0.07836  1.5e-05  1.01979  0.0
H  H22  1  0.94405549  0.26549310  0.36115148  1  0.116056  -1.2e-05  0.112408  0.07818  -1.8e-05  1.020787  0.0
H  H23  1  0.67884724  0.73472446  0.13880339  1  0.116292  -1.2e-05  0.112784  0.078744  -1.8e-05  1.019701  0.0
H  H24  1  0.88364391  0.82115661  0.67318573  1  0.123214  -1.2e-05  0.096636  0.115184  -3.2e-05  1.059467  0.0
H  H25  1  0.06253127  0.17875573  0.82679730  1  0.120611  1.3e-05  0.096592  0.114295  3.3e-05  1.060068  0.0
H  H26  1  0.11635550  0.17892179  0.32685234  1  0.123405  -1e-05  0.096379  0.115234  -3.2e-05  1.059028  0.0
H  H27  1  0.93755677  0.82132752  0.17320503  1  0.12168  -1e-05  0.096599  0.114615  -3.2e-05  1.059675  0.0
H  H28  1  0.25927206  0.01599113  0.66849360  1  0.088883  -5.4e-05  0.10562  0.118853  -1.9e-05  1.009019  0.0
H  H29  1  0.24316732  0.98388073  0.83144036  1  0.092238  5.8e-05  0.10606  0.119633  2e-05  1.008476  0.0
H  H30  1  0.74074538  0.98403609  0.33152721  1  0.089012  1e-06  0.105488  0.118639  -3e-06  1.009081  0.0
H  H31  1  0.75686391  0.01618708  0.16856426  1  0.090983  5e-06  0.10602  0.119553  -3e-06  1.008757  0.0
H  H32  1  0.41937746  0.92109069  0.63909841  1  0.125918  0.0  0.105943  0.076064  -2e-06  1.049726  0.0
H  H33  1  0.49804255  0.07878249  0.86097947  1  0.125194  5e-06  0.105756  0.074498  -0.0  1.050336  0.0
H  H34  1  0.58063352  0.07893020  0.36094311  1  0.124787  6e-06  0.105889  0.076032  0.0  1.049929  0.0
H  H35  1  0.50200297  0.92126371  0.13900937  1  0.125589  1.3e-05  0.105677  0.074313  3e-06  1.050162  0.0
H  H36  1  0.68038398  0.88066130  0.74139192  1  0.076999  0.000217  0.111174  0.070258  7.2e-05  1.041582  0.0
H  H37  1  0.79940243  0.11923939  0.75849097  1  0.082799  -0.000215  0.110785  0.069804  -8.3e-05  1.042708  0.0
H  H38  1  0.31965493  0.11938691  0.25858513  1  0.077715  0.000228  0.111011  0.069912  7.7e-05  1.042342  0.0
H  H39  1  0.20061801  0.88086812  0.24160348  1  0.083375  0.000222  0.110844  0.069894  7.6e-05  1.042672  0.0
H  H40  1  0.25042145  0.77357742  0.78460697  1  0.078594  -2.6e-05  0.110954  0.074468  -1.4e-05  1.024186  0.0
H  H41  1  0.47690932  0.22645483  0.71536202  1  0.101965  3.7e-05  0.11119  0.075551  1.4e-05  1.023465  0.0
H  H42  1  0.74959665  0.22647292  0.21541281  1  0.114789  -3.7e-05  0.110902  0.074583  -1.6e-05  1.024736  0.0
H  H43  1  0.52309050  0.77364418  0.28474279  1  0.104251  -2.8e-05  0.111112  0.07546  -1.4e-05  1.023333  0.0
H  H44  1  0.28787068  0.85772725  0.91976976  1  0.122881  -2.8e-05  0.102821  0.120721  -3e-05  1.029349  0.0
H  H45  1  0.43047640  0.14233918  0.58017731  1  0.09699  1.3e-05  0.102675  0.120296  -1.3e-05  1.028554  0.0
H  H46  1  0.71226961  0.14231662  0.08024751  1  0.122156  -7e-06  0.102733  0.120796  1.5e-05  1.028797  0.0
H  H47  1  0.56952520  0.85775899  0.41990997  1  0.095415  -3.1e-05  0.102773  0.120508  -3e-05  1.028657  0.0
H  H48  1  0.73563354  0.96952438  0.87498242  1  0.101319  -1.5e-05  0.102715  0.115023  4e-06  1.031165  0.0
H  H49  1  0.76611088  0.03041046  0.62491037  1  0.091735  1.7e-05  0.102658  0.114897  -4e-06  1.029237  0.0
H  H50  1  0.26442116  0.03049656  0.12499653  1  0.101706  -5.8e-05  0.102638  0.115105  -3.7e-05  1.030465  0.0
H  H51  1  0.23395362  0.96972621  0.37517628  1  0.090574  -6.1e-05  0.102642  0.114545  -3.6e-05  1.02934  0.0
H  H52  1  0.92272983  0.54740514  0.12500438  1  0.129396  4.3e-05  0.098405  0.120783  -8e-06  1.043654  0.0
H  H53  1  0.37565001  0.45242868  0.37513149  1  0.139935  -1.5e-05  0.09889  0.1211  -3.2e-05  1.044069  0.0
H  H54  1  0.07712505  0.45248441  0.87490958  1  0.128378  -4.3e-05  0.098184  0.120698  8e-06  1.04387  0.0
H  H55  1  0.62446481  0.54749027  0.62491447  1  0.137868  -1.6e-05  0.098897  0.121429  -3.4e-05  1.043449  0.0
H  H56  1  0.81104144  0.46014806  0.99776340  1  0.073797  -0.000126  0.117521  0.074268  -4.2e-05  0.998334  0.0
H  H57  1  0.35067582  0.53974058  0.50231166  1  0.061845  0.000136  0.117675  0.07394  3.2e-05  0.998449  0.0
H  H58  1  0.18894046  0.53974245  0.00213197  1  0.074092  0.000125  0.117409  0.074126  3.5e-05  0.99807  0.0
H  H59  1  0.64934921  0.46019499  0.49770215  1  0.062541  0.00014  0.117701  0.073926  3.3e-05  0.998864  0.0
H  H60  1  0.95389086  0.27325343  0.02722794  1  0.143663  2e-05  0.105133  0.069127  6e-06  1.054121  0.0
H  H61  1  0.68047071  0.72665863  0.47275326  1  0.147928  -1.6e-05  0.105376  0.069534  -5e-06  1.053459  0.0
H  H62  1  0.04610223  0.72665512  0.97268373  1  0.144388  -1.9e-05  0.10513  0.069087  -7e-06  1.053645  0.0
H  H63  1  0.31948598  0.27330153  0.52721412  1  0.147646  -1.8e-05  0.105412  0.069726  -6e-06  1.053719  0.0
H  H64  1  0.06618541  0.35167417  0.15758368  1  0.084125  6e-06  0.103025  0.113038  0.0  1.019589  0.0
H  H65  1  0.71452140  0.64822952  0.34240144  1  0.071166  -1.4e-05  0.102914  0.11212  -9e-06  1.02041  0.0
H  H66  1  0.93375042  0.64822240  0.84233458  1  0.083699  -1.4e-05  0.102945  0.112895  -9e-06  1.019397  0.0
H  H67  1  0.28548626  0.35169753  0.65762380  1  0.070173  -4e-06  0.102945  0.112224  -2e-06  1.020211  0.0
H  H68  1  0.51920985  0.93108795  0.02592346  1  0.062844  0.000152  0.090085  0.092657  2.2e-05  1.034306  0.0
H  H69  1  0.58813402  0.06890880  0.47396657  1  0.061144  -0.000102  0.090083  0.093035  -3.5e-05  1.03404  0.0
H  H70  1  0.48083191  0.06895513  0.97407360  1  0.06176  0.000112  0.089978  0.09247  4e-05  1.034395  0.0
H  H71  1  0.41193545  0.93123784  0.52612529  1  0.06172  0.000146  0.08999  0.093274  1.9e-05  1.034094  0.0
H  H72  1  0.66842591  0.00066901  0.00215933  1  0.080061  2e-05  0.092667  0.099843  8e-06  1.004408  0.0
H  H73  1  0.66770734  0.99927227  0.49762957  1  0.072673  -3.5e-05  0.09284  0.100286  -1.4e-05  1.00286  0.0
H  H74  1  0.33164394  0.99938445  0.99785223  1  0.079919  -1e-05  0.092614  0.099854  -1.5e-05  1.004054  0.0
H  H75  1  0.33236804  0.00086656  0.50246800  1  0.07221  3e-06  0.093058  0.100497  -7e-06  1.003181  0.0
H  H76  1  0.10440615  0.46727323  0.26088121  1  0.047229  -3.8e-05  0.094617  0.099611  -1.6e-05  0.98279  0.0
H  H77  1  0.63749280  0.53261192  0.23914355  1  0.029338  -7e-06  0.094543  0.099099  -1.3e-05  0.983948  0.0
H  H78  1  0.89548941  0.53258206  0.73902820  1  0.049205  -4e-06  0.094498  0.099589  -1.6e-05  0.982905  0.0
H  H79  1  0.36251501  0.46731974  0.76085827  1  0.027754  3.6e-05  0.094356  0.098852  1.5e-05  0.983863  0.0
H  H80  1  0.17933821  0.54668138  0.22417843  1  0.079547  -0.000143  0.090696  0.10246  -5.5e-05  1.032983  0.0
H  H81  1  0.63277099  0.45312938  0.27580470  1  0.085396  0.000144  0.090665  0.102827  1.5e-05  1.032441  0.0
H  H82  1  0.82056674  0.45319059  0.77575658  1  0.079462  0.000156  0.090503  0.101984  6e-05  1.033445  0.0
H  H83  1  0.36722049  0.54679798  0.72420498  1  0.085245  0.000165  0.090422  0.102436  1.9e-05  1.032706  0.0
H  H84  1  0.86919738  0.51423685  0.28762656  1  0.037649  -3.6e-05  0.08885  0.098493  -2.7e-05  1.029462  0.0
H  H85  1  0.35525371  0.48581848  0.21259916  1  0.031544  -3.8e-05  0.089115  0.098346  -2.6e-05  1.030427  0.0
H  H86  1  0.13075150  0.48566639  0.71237520  1  0.03787  -2.9e-05  0.088854  0.09858  -2.7e-05  1.029251  0.0
H  H87  1  0.64476030  0.51404907  0.78731939  1  0.031048  4.5e-05  0.089186  0.098311  3.2e-05  1.030071  0.0
H  H88  1  0.95030396  0.59515194  0.25262937  1  0.069613  -4.2e-05  0.087588  0.102249  -3.6e-05  1.028369  0.0
H  H89  1  0.35526530  0.40488274  0.24756199  1  0.06322  -2.1e-05  0.087167  0.102074  -3.2e-05  1.027777  0.0
H  H90  1  0.04966850  0.40476798  0.74739692  1  0.068108  2.4e-05  0.087447  0.102252  3.5e-05  1.028869  0.0
H  H91  1  0.64476136  0.59498832  0.75235926  1  0.063752  -2.9e-05  0.08706  0.101886  -3.7e-05  1.02807  0.0
H  H92  1  0.99350059  0.03301601  0.68231582  1  0.050278  4.6e-05  0.094232  0.098551  1.1e-05  1.019725  0.0
H  H93  1  0.96034223  0.96691312  0.81762703  1  0.047656  -4.6e-05  0.094523  0.099115  -1.1e-05  1.019283  0.0
H  H94  1  0.00655730  0.96704626  0.31769952  1  0.051326  4.5e-05  0.094198  0.098553  8e-06  1.019962  0.0
H  H95  1  0.03973546  0.03318005  0.18241340  1  0.046771  4.5e-05  0.094211  0.098681  7e-06  1.019466  0.0
H  H96  1  0.84301838  0.95269660  0.68739316  1  0.085174  6e-06  0.091224  0.099168  -2.3e-05  1.024732  0.0
H  H97  1  0.89027739  0.04726718  0.81259481  1  0.049362  -1.6e-05  0.091525  0.100116  2.1e-05  1.023403  0.0
H  H98  1  0.15702079  0.04738062  0.31264509  1  0.084762  9.3e-05  0.09115  0.099138  -3e-06  1.024561  0.0
H  H99  1  0.10977094  0.95282614  0.18743758  1  0.050486  9.5e-05  0.091599  0.100074  -3e-06  1.023406  0.0
H  H100  1  0.97416672  0.73805119  0.32997382  1  0.156652  -1.6e-05  0.103988  0.142216  -2.7e-05  1.049262  0.0
H  H101  1  0.23631430  0.26195072  0.17013684  1  0.154473  -3.4e-05  0.103839  0.142324  -3.3e-05  1.049232  0.0
H  H102  1  0.02579250  0.26199930  0.67009835  1  0.155914  3.6e-05  0.104131  0.142423  3.4e-05  1.048866  0.0
H  H103  1  0.76369953  0.73802997  0.82984113  1  0.154812  -1.5e-05  0.103741  0.142304  -2.7e-05  1.049119  0.0
H  H104  1  0.82276951  0.83494302  0.30488932  1  0.085906  4.9e-05  0.107691  0.093184  1.1e-05  1.029146  0.0
H  H105  1  0.98792091  0.16511286  0.19527777  1  0.093142  4.8e-05  0.10799  0.093457  1e-05  1.028544  0.0
H  H106  1  0.17727755  0.16513473  0.69515180  1  0.085761  -4.4e-05  0.107594  0.093057  -1e-05  1.028875  0.0
H  H107  1  0.01206677  0.83489188  0.80471188  1  0.09308  4.6e-05  0.107985  0.093462  1.1e-05  1.028501  0.0
H  H108  1  0.96156027  0.94255158  0.53610038  1  0.131097  1.2e-05  0.116664  0.113988  -0.0  1.027661  0.0
H  H109  1  0.01912390  0.05756122  0.96398927  1  0.13361  -1e-05  0.116957  0.114045  1e-06  1.027112  0.0
H  H110  1  0.03857076  0.05755008  0.46392970  1  0.13155  1.8e-05  0.116816  0.113961  1e-06  1.027665  0.0
H  H111  1  0.98077617  0.94247762  0.03598275  1  0.132606  1.9e-05  0.117085  0.114221  0.0  1.027104  0.0
C  C112  1  0.51725582  0.92013998  0.90884068  1  -0.003512  0.003855  0.013563  0.177118  0.001141  3.932362  0.002
C  C113  1  0.59740867  0.07992386  0.59108725  1  0.005232  -0.003568  0.013776  0.177738  -0.001158  3.931947  -0.002
C  C114  1  0.48283566  0.07993497  0.09119202  1  0.000484  0.004023  0.013607  0.176681  0.001188  3.930133  0.003
C  C115  1  0.40265381  0.92020223  0.40899562  1  -0.02023  0.003587  0.014154  0.177959  0.001058  3.932315  0.002
C  C116  1  0.37806818  0.86474419  0.88202897  1  -0.037558  -4.4e-05  -0.086062  -0.185319  -4.3e-05  3.915628  0.0
C  C117  1  0.51360488  0.13534713  0.61794730  1  -0.042336  0.000118  -0.085691  -0.184601  3.3e-05  3.915722  0.0
C  C118  1  0.62205301  0.13534224  0.11802289  1  -0.03525  -4.7e-05  -0.085996  -0.185374  -2.7e-05  3.913879  0.0
C  C119  1  0.48642435  0.86475828  0.38213303  1  -0.039341  -0.000102  -0.086128  -0.185213  -5.9e-05  3.915386  0.0
C  C120  1  0.35628102  0.81827191  0.80689024  1  0.46492  0.001574  0.045646  0.101043  0.00044  3.971025  0.001
C  C121  1  0.53811925  0.18178160  0.69311169  1  0.445517  -0.001544  0.044658  0.098582  -0.000478  3.971935  -0.001
C  C122  1  0.64374773  0.18180417  0.19317572  1  0.427345  0.001657  0.045458  0.100315  0.000464  3.971332  0.001
C  C123  1  0.46186575  0.81830954  0.30697183  1  0.444039  0.001542  0.044927  0.099097  0.000431  3.971168  0.001
C  C124  1  0.09784190  0.79760068  0.64689967  1  0.454534  0.00174  0.04438  0.093646  0.00049  3.989469  0.001
C  C125  1  0.30031955  0.20230829  0.85316541  1  0.430337  -0.001759  0.044803  0.094266  -0.000546  3.98901  -0.001
C  C126  1  0.90201865  0.20245963  0.35315499  1  0.45436  0.001856  0.04417  0.093617  0.000523  3.989709  0.001
C  C127  1  0.69977693  0.79775912  0.14682937  1  0.428422  0.001827  0.044767  0.093988  0.000514  3.988778  0.001
C  C128  1  0.26315067  0.69925573  0.43659556  1  0.486602  0.000864  0.041595  0.092581  0.000287  4.002598  0.0
C  C129  1  0.56414825  0.30064621  0.06350934  1  0.477344  -0.000827  0.042103  0.092414  -0.000307  4.004949  0.0
C  C130  1  0.73667770  0.30066814  0.56338015  1  0.493677  0.000808  0.041317  0.092134  0.000272  4.002744  0.0
C  C131  1  0.43587826  0.69927245  0.93640003  1  0.475254  0.000837  0.041907  0.09252  0.000279  4.005478  0.0
C  C132  1  0.62671963  0.92670916  0.85698805  1  -0.082858  -0.000707  -0.089173  -0.190041  -0.000234  3.944764  -0.001
C  C133  1  0.70006739  0.07327964  0.64293150  1  -0.066434  0.000794  -0.089216  -0.189471  0.000231  3.942035  0.001
C  C134  1  0.37333823  0.07335092  0.14304820  1  -0.088461  -0.000771  -0.089079  -0.190013  -0.000275  3.94291  -0.001
C  C135  1  0.29998170  0.92683712  0.35714420  1  -0.065642  -0.000807  -0.089205  -0.189042  -0.000284  3.942905  -0.001
C  C136  1  0.21008043  0.95443106  0.66440716  1  -0.058068  -0.000624  -0.085308  -0.178749  -0.000214  3.936294  -0.001
C  C137  1  0.25559441  0.04546046  0.83555062  1  -0.093524  0.000637  -0.086269  -0.182025  0.000194  3.937375  0.001
C  C138  1  0.78986239  0.04562142  0.33562407  1  -0.057383  -0.00054  -0.085195  -0.178568  -0.000186  3.935432  -0.001
C  C139  1  0.74445371  0.95461063  0.16446795  1  -0.051166  -0.000534  -0.08612  -0.181997  -0.000185  3.93773  -0.001
C  C140  1  0.29940594  0.90162146  0.64661856  1  0.431469  0.002196  0.040719  0.09157  0.000619  3.979944  0.001
C  C141  1  0.39769609  0.09831025  0.85343459  1  0.465972  -0.002234  0.041555  0.09565  -0.000696  3.978984  -0.001
C  C142  1  0.70054484  0.09844693  0.35341699  1  0.432004  0.002315  0.040563  0.091344  0.000654  3.979116  0.001
C  C143  1  0.60235310  0.90174333  0.14657107  1  0.42585  0.002286  0.041685  0.095696  0.000645  3.979257  0.001
C  C144  1  0.59627336  0.87782731  0.78278436  1  0.49462  0.003356  0.048084  0.105355  0.000989  3.979105  0.002
C  C145  1  0.71827450  0.12217180  0.71715291  1  0.477731  -0.003316  0.046796  0.102815  -0.001073  3.980642  -0.002
C  C146  1  0.40382482  0.12225884  0.21725123  1  0.492937  0.003507  0.048316  0.105585  0.001035  3.978707  0.002
C  C147  1  0.28176803  0.87793186  0.28292634  1  0.482947  0.00331  0.046225  0.10214  0.000978  3.981037  0.002
C  C148  1  0.54778686  0.96987949  0.98991214  1  -0.047991  0.000315  -0.159152  -0.197386  0.000112  3.925634  0.0
C  C149  1  0.57797863  0.03014441  0.50999926  1  -0.043441  0.000251  -0.159483  -0.198515  4.9e-05  3.921788  0.0
C  C150  1  0.45229969  0.03015938  0.01008848  1  -0.081454  0.000238  -0.159133  -0.197188  8.3e-05  3.92475  0.0
C  C151  1  0.42206652  0.96998410  0.49008112  1  -0.039344  -0.000237  -0.159968  -0.199703  -7.9e-05  3.922899  0.0
C  C152  1  0.00183606  0.84687505  0.66661760  1  -0.074287  -0.000363  -0.089707  -0.19267  -0.000144  3.941745  0.0
C  C153  1  0.15503933  0.15304663  0.83337260  1  -0.069161  0.000378  -0.089572  -0.191793  0.000129  3.940376  0.0
C  C154  1  0.99810550  0.15321201  0.33343230  1  -0.074372  -0.000385  -0.08951  -0.192616  -0.000152  3.93928  0.0
C  C155  1  0.84504309  0.84703414  0.16663544  1  -0.068452  -0.000367  -0.089838  -0.192452  -0.000146  3.939791  0.0
C  C156  1  0.00902326  0.57977869  0.42212171  1  0.023779  0.000834  -0.088403  -0.18713  0.000221  3.929842  0.0
C  C157  1  0.42924272  0.42003036  0.07794884  1  -0.039848  -0.000902  -0.08782  -0.184823  -0.000276  3.928049  -0.001
C  C158  1  0.99084922  0.42010692  0.57784283  1  0.024764  0.000822  -0.088543  -0.187255  0.000217  3.929774  0.0
C  C159  1  0.57079257  0.57989287  0.92199915  1  -0.039666  0.000878  -0.088255  -0.185372  0.000246  3.928905  0.0
C  C160  1  0.05830452  0.92777237  0.67732825  1  0.019006  0.003051  0.009003  0.164404  0.000901  3.936374  0.002
C  C161  1  0.13052874  0.07212669  0.82260756  1  0.01426  -0.003099  0.008797  0.165885  -0.001003  3.936465  -0.002
C  C162  1  0.94166992  0.07229537  0.32270980  1  0.019361  0.003308  0.009112  0.16452  0.000977  3.934451  0.002
C  C163  1  0.86953756  0.92795675  0.17741533  1  0.011959  0.003259  0.008728  0.16586  0.000962  3.936236  0.002
C  C164  1  0.05678462  0.59953522  0.35695597  1  -0.011944  -0.000121  0.016266  0.182317  -4.7e-05  3.918476  0.0
C  C165  1  0.45738178  0.40039227  0.14314488  1  0.030164  0.000181  0.015113  0.179641  6.1e-05  3.920951  0.0
C  C166  1  0.94313399  0.40034016  0.64301678  1  -0.019735  1.7e-05  0.016168  0.182009  -8e-06  3.917282  0.0
C  C167  1  0.54268187  0.59952222  0.85679613  1  0.028271  5.8e-05  0.014968  0.179558  7e-06  3.921522  0.0
C  C168  1  0.18665135  0.66191778  0.36556213  1  -0.073269  0.000844  -0.084187  -0.179757  0.000216  3.905517  0.001
C  C169  1  0.52503351  0.33806180  0.13456975  1  -0.077606  -0.000825  -0.084023  -0.179611  -0.000239  3.907453  0.0
C  C170  1  0.81319566  0.33797146  0.63442834  1  -0.075609  0.000922  -0.08378  -0.17978  0.000247  3.904081  0.001
C  C171  1  0.47502101  0.66184311  0.86534620  1  -0.077595  0.000965  -0.083735  -0.179585  0.000249  3.908305  0.001
C  C172  1  0.00251209  0.45649115  0.15356220  1  -0.030219  -0.002128  0.018413  0.183309  -0.000687  3.907294  -0.001
C  C173  1  0.54623054  0.54336528  0.34644731  1  0.017121  0.002513  0.01945  0.184971  0.000742  3.909395  0.002
C  C174  1  0.99738433  0.54341169  0.84636876  1  -0.033748  0.002148  0.019104  0.184439  0.000629  3.906389  0.001
C  C175  1  0.45378031  0.45654401  0.65351693  1  0.004754  0.002682  0.019293  0.184716  0.000796  3.908548  0.002
C  C176  1  0.96199595  0.98351037  0.70602238  1  -0.041342  -0.000264  -0.157033  -0.197337  -8.2e-05  3.894633  0.0
C  C177  1  0.97841263  0.01641422  0.79390991  1  -0.045095  0.000259  -0.157379  -0.200393  6.6e-05  3.894677  0.0
C  C178  1  0.03804467  0.01655662  0.29399386  1  -0.043192  0.000244  -0.15702  -0.197628  8.5e-05  3.894356  0.0
C  C179  1  0.02164477  0.98367326  0.20611800  1  -0.043364  0.000252  -0.157013  -0.199667  8.5e-05  3.894857  0.0
C  C180  1  0.93000565  0.48646538  0.10654364  1  -0.042091  0.000505  -0.084181  -0.183185  0.000162  3.906126  0.0
C  C181  1  0.44376767  0.51336714  0.39350766  1  -0.088641  -0.000415  -0.084757  -0.183759  -0.000149  3.906332  0.0
C  C182  1  0.06988875  0.51343342  0.89338231  1  -0.086139  -0.000505  -0.084465  -0.184243  -0.000181  3.906352  0.0
C  C183  1  0.55631522  0.48654013  0.60646944  1  -0.084658  -0.000461  -0.084676  -0.184268  -0.000166  3.905578  -0.001
C  C184  1  0.09305440  0.61963530  0.49106272  1  0.387929  5e-05  0.043758  0.095399  -1.4e-05  3.991825  0.0
C  C185  1  0.47350526  0.38009211  0.00900337  1  0.394019  -5.3e-05  0.042365  0.092292  7e-06  3.99475  0.0
C  C186  1  0.90671089  0.38025410  0.50891971  1  0.38677  0.000203  0.043829  0.09578  3.3e-05  3.992892  0.0
C  C187  1  0.52652353  0.61985735  0.99093592  1  0.393972  0.000215  0.042395  0.092361  3.5e-05  3.994414  0.0
C  C188  1  0.86935679  0.43810136  0.03484097  1  0.450881  -0.002539  0.047491  0.100821  -0.000792  3.993286  -0.002
C  C189  1  0.43111233  0.56173368  0.46517225  1  0.495708  0.002563  0.047703  0.101605  0.000724  3.992277  0.002
C  C190  1  0.13060529  0.56180408  0.96507785  1  0.497158  0.002526  0.047619  0.10163  0.000714  3.993069  0.002
C  C191  1  0.56889587  0.43815506  0.53478354  1  0.491369  0.002689  0.047567  0.101654  0.00076  3.992308  0.002
C  C192  1  0.01152551  0.37850082  0.12389512  1  0.041116  -0.000557  -0.088083  -0.188401  -0.000169  3.932647  0.0
C  C193  1  0.63299206  0.62136549  0.37606345  1  -0.00604  0.000482  -0.088439  -0.187053  0.000119  3.93638  0.0
C  C194  1  0.98841109  0.62140385  0.87603316  1  0.028971  0.000539  -0.088076  -0.188438  0.000135  3.932169  0.0
C  C195  1  0.36699833  0.37852906  0.62389789  1  0.033178  0.000503  -0.088461  -0.187368  0.000136  3.934885  0.0
C  C196  1  0.94910840  0.33424437  0.05121887  1  0.357251  -0.000631  0.045616  0.100375  -0.000215  3.988132  0.0
C  C197  1  0.61474825  0.66564123  0.44872241  1  0.380086  0.000961  0.04535  0.099372  0.000291  3.989342  0.0
C  C198  1  0.05089056  0.66566506  0.94870818  1  0.36958  0.000664  0.045646  0.10066  0.000203  3.9878  0.0
C  C199  1  0.38525606  0.33428761  0.55121165  1  0.380423  0.001027  0.045256  0.099311  0.000311  3.988671  0.0
C  C200  1  0.97542883  0.55407094  0.28075297  1  -0.036315  -0.000143  -0.163033  -0.20893  -5.9e-05  3.923138  0.0
C  C201  1  0.42157929  0.44594134  0.21940294  1  -0.001928  -1.1e-05  -0.162333  -0.207116  -1.3e-05  3.924046  0.0
C  C202  1  0.02451299  0.44582471  0.71924270  1  -0.03199  8.3e-05  -0.163248  -0.209298  2e-05  3.922849  0.0
C  C203  1  0.57847065  0.55395453  0.78055179  1  -0.001307  9.5e-05  -0.162499  -0.206825  3.6e-05  3.924103  0.0
C  C204  1  0.07350976  0.50563686  0.23114096  1  -0.022448  -4.6e-05  -0.155472  -0.194973  -3.2e-05  3.914802  0.0
C  C205  1  0.56820268  0.49425787  0.26890832  1  -0.012388  -3.3e-05  -0.155819  -0.196082  -1.4e-05  3.91724  0.0
C  C206  1  0.92639076  0.49425025  0.76880678  1  -0.023789  2e-05  -0.15552  -0.19485  2e-06  3.915483  0.0
C  C207  1  0.43181144  0.50566456  0.73108043  1  -0.035805  -3e-06  -0.155412  -0.195567  1.3e-05  3.916888  0.0
C  C208  1  0.95256750  0.78901064  0.37130435  1  -0.304764  -1.1e-05  -0.10531  -0.237481  -1.8e-05  3.976314  0.0
C  C209  1  0.16377482  0.21102542  0.12878600  1  -0.294098  -2e-05  -0.104832  -0.237128  -2e-05  3.977179  0.0
C  C210  1  0.04741366  0.21105526  0.62873692  1  -0.305507  3.1e-05  -0.105626  -0.237874  2.3e-05  3.974741  0.0
C  C211  1  0.83622528  0.78896924  0.87120381  1  -0.293781  -1.1e-05  -0.104703  -0.237033  -1.9e-05  3.976338  0.0
C  C212  1  0.87702609  0.84060377  0.35914171  1  0.458734  6.4e-05  -0.004  0.020649  1.6e-05  4.046451  0.0
C  C213  1  0.03658067  0.15945092  0.14099534  1  0.446865  4.5e-05  -0.004551  0.01997  1e-05  4.046726  0.0
C  C214  1  0.12301640  0.15948008  0.64089048  1  0.458816  -2.8e-05  -0.004034  0.02066  -6e-06  4.044968  0.0
C  C215  1  0.96340229  0.84055963  0.85899986  1  0.446028  7e-05  -0.004625  0.019894  1.9e-05  4.04681  0.0
C  C216  1  0.94646562  0.89931503  0.48050033  1  0.430045  9e-05  0.03744  -0.019233  8e-06  3.966206  0.0
C  C217  1  0.04731672  0.10078376  0.01959248  1  0.430404  6.5e-05  0.037107  -0.019  4.1e-05  3.964905  0.0
C  C218  1  0.05363467  0.10079276  0.51951922  1  0.428099  -3.8e-05  0.03709  -0.019486  -3.2e-05  3.965786  0.0
C  C219  1  0.95258890  0.89924656  0.98039097  1  0.431126  0.000113  0.036932  -0.019624  1.2e-05  3.965304  0.0
S  S220  1  0.02146306  0.81925575  0.46406045  1  0.244226  7.2e-05  0.106615  0.182874  1e-06  2.955996  0.0
S  S221  1  0.20244861  0.18080403  0.03599777  1  0.234027  -1e-05  0.10613  0.18213  2.4e-05  2.956888  0.0
S  S222  1  0.97854326  0.18081684  0.53597207  1  0.244461  2.5e-05  0.10686  0.183235  -1.8e-05  2.955337  0.0
S  S223  1  0.79750016  0.81921233  0.96400299  1  0.234145  8.2e-05  0.106185  0.182288  1e-06  2.956064  0.0
N  N224  1  0.46368838  0.82379113  0.75752095  1  -1.257544  0.000517  -0.378031  -0.329459  -0.00017  3.532808  -0.002
N  N225  1  0.63983924  0.17625205  0.74249454  1  -1.241438  -0.000318  -0.375962  -0.326016  9.8e-05  3.531739  0.002
N  N226  1  0.53636105  0.17632195  0.24256064  1  -1.256717  0.000607  -0.378165  -0.328716  -0.000144  3.532065  -0.002
N  N227  1  0.36016528  0.82383229  0.25757341  1  -1.2457  0.000367  -0.375279  -0.325668  -0.000217  3.530239  -0.002
N  N228  1  0.22006536  0.67794541  0.49869526  1  -1.266764  -0.000302  -0.372135  -0.337209  -0.000432  3.536264  -0.003
N  N229  1  0.54232748  0.32184431  0.00136453  1  -1.268132  0.000326  -0.372089  -0.335819  0.000295  3.540954  0.003
N  N230  1  0.77966089  0.32196397  0.50126469  1  -1.267601  -0.000234  -0.372371  -0.336521  -0.000411  3.538109  -0.003
N  N231  1  0.45769457  0.67810471  0.99856708  1  -1.265705  -0.000195  -0.371852  -0.335836  -0.000401  3.540639  -0.003
N  N232  1  0.24572497  0.82416646  0.63818547  1  -1.276711  0.000848  -0.372914  -0.330844  -0.000182  3.54133  -0.003
N  N233  1  0.42161153  0.17577517  0.86190525  1  -1.242586  -0.000744  -0.373633  -0.332575  3.1e-05  3.540643  0.003
N  N234  1  0.75412629  0.17591232  0.36186351  1  -1.277066  0.000954  -0.373027  -0.33078  -0.000151  3.541153  -0.003
N  N235  1  0.57845316  0.82427449  0.13808896  1  -1.243265  0.000861  -0.373683  -0.332308  -0.00015  3.540359  -0.002
N  N236  1  0.87667258  0.36280352  0.00694317  1  -1.277047  0.000319  -0.378664  -0.333364  0.000274  3.528231  0.003
N  N237  1  0.51366994  0.63705177  0.49300394  1  -1.288806  -0.000204  -0.378968  -0.334117  -0.000385  3.527237  -0.002
N  N238  1  0.12336177  0.63711777  0.99298318  1  -1.276666  -0.000278  -0.378417  -0.333759  -0.000396  3.527779  -0.003
N  N239  1  0.48632571  0.36284445  0.50690234  1  -1.287887  -0.00012  -0.37961  -0.334057  -0.000361  3.527185  -0.002
N  N240  1  0.87461746  0.90350555  0.42112535  1  -1.203327  -5e-06  -0.337475  -0.270708  -8e-06  3.379921  0.0
N  N241  1  0.97122814  0.09659020  0.07900159  1  -1.201542  3.4e-05  -0.336951  -0.270328  1.2e-05  3.37838  0.0
N  N242  1  0.12549994  0.09659936  0.57888954  1  -1.200505  -2.6e-05  -0.337254  -0.270674  -1e-05  3.379241  0.0
N  N243  1  0.02870803  0.90344234  0.92098954  1  -1.201285  1.1e-05  -0.337018  -0.270123  -5e-06  3.378118  0.0
Cl  Cl244  1  0.61506892  0.85007517  0.57442117  1  -0.720398  -0.005032  -0.328884  -0.564471  -0.002054  1.027608  -0.006
Cl  Cl245  1  0.76491291  0.14997927  0.92544238  1  -0.720642  0.005022  -0.329139  -0.564387  0.001744  1.029418  0.006
Cl  Cl246  1  0.38513253  0.15010382  0.42553059  1  -0.719413  -0.005025  -0.328888  -0.563937  -0.002054  1.03099  -0.006
Cl  Cl247  1  0.23511733  0.84995342  0.07447613  1  -0.720323  -0.005021  -0.329252  -0.564267  -0.002058  1.029459  -0.006
Cl  Cl248  1  0.67091695  0.69870208  0.67724534  1  -0.718771  -0.004498  -0.343631  -0.585339  -0.00187  1.031515  -0.006
Cl  Cl249  1  0.97219436  0.30116881  0.82270774  1  -0.719598  0.004496  -0.343946  -0.585578  0.001567  1.03189  0.006
Cl  Cl250  1  0.32901489  0.30123704  0.32282944  1  -0.718411  -0.004486  -0.34374  -0.585422  -0.001863  1.032309  -0.006
Cl  Cl251  1  0.02788556  0.69880656  0.17723893  1  -0.719624  -0.004506  -0.344116  -0.585711  -0.001871  1.031244  -0.006
Cl  Cl252  1  0.22147353  0.62836307  0.66977417  1  -0.724821  -0.005058  -0.338259  -0.576125  -0.002107  0.996338  -0.007
Cl  Cl253  1  0.59338836  0.37147934  0.83036335  1  -0.724105  0.005135  -0.338459  -0.576195  0.001805  0.998009  0.007
Cl  Cl254  1  0.77817523  0.37154890  0.33038673  1  -0.723606  -0.005073  -0.338119  -0.575561  -0.00211  0.999198  -0.007
Cl  Cl255  1  0.40666607  0.62854979  0.16962027  1  -0.724177  -0.005137  -0.338796  -0.576411  -0.002121  0.99759  -0.007
