# generated using pymatgen
data_ZnH21C10N3O4
_symmetry_space_group_name_H-M   'P 1'
_cell_length_a   6.95504905
_cell_length_b   9.79477652
_cell_length_c   10.43204431
_cell_angle_alpha   115.81133472
_cell_angle_beta   95.62893320
_cell_angle_gamma   93.02103696
_symmetry_Int_Tables_number   1
_chemical_formula_structural   ZnH21C10N3O4
_chemical_formula_sum   'Zn2 H42 C20 N6 O8'
_cell_volume   633.05697448
_cell_formula_units_Z   2
loop_
 _symmetry_equiv_pos_site_id
 _symmetry_equiv_pos_as_xyz
  1  'x, y, z'
loop_
 _atom_site_type_symbol
 _atom_site_label
 _atom_site_symmetry_multiplicity
 _atom_site_fract_x
 _atom_site_fract_y
 _atom_site_fract_z
 _atom_site_occupancy
 _atom_site_hle17_bader_spin_density
 _atom_site_hle17_ddec_charge
 _atom_site_hle17_ddec_spin_density
 _atom_site_hle17_ddec_sum_bond_order
 _atom_site_hle17_magmom
 _atom_site_hse06_10hf_bader_spin_density
 _atom_site_hse06_10hf_ddec_charge
 _atom_site_hse06_10hf_ddec_spin_density
 _atom_site_hse06_10hf_ddec_sum_bond_order
 _atom_site_hse06_10hf_magmom
 _atom_site_hse06_bader_spin_density
 _atom_site_hse06_ddec_charge
 _atom_site_hse06_ddec_spin_density
 _atom_site_hse06_ddec_sum_bond_order
 _atom_site_hse06_magmom
 _atom_site_pbe_bader_spin_density
 _atom_site_pbe_cm5_charge
 _atom_site_pbe_ddec_charge
 _atom_site_pbe_ddec_spin_density
 _atom_site_pbe_ddec_sum_bond_order
 _atom_site_pbe_magmom
Zn  Zn0  1  0.94458778  0.11909447  0.84247585  1  0  1.01725  0  1.743549  0  0  0.812733  0  2.213758  0  0  0.861534  0  2.15975  0  0  0.677581  0.778199  0  2.251162  0
Zn  Zn1  1  0.05541276  0.88089749  0.15751973  1  0  1.017202  0  1.743622  0  0  0.812671  0  2.213842  0  0  0.861466  0  2.15983  0  0  0.677538  0.778134  0  2.251244  0
H  H2  1  0.49875814  0.70474635  0.56683641  1  0  0.126116  0  0.959634  0  0  0.148133  0  1.0204  0  0  0.150108  0  1.020523  0  0  0.097127  0.146741  0  1.020215  0
H  H3  1  0.50124215  0.29526631  0.43315735  1  0  0.126134  0  0.959716  0  0  0.148122  0  1.020499  0  0  0.150101  0  1.020613  0  0  0.097098  0.146731  0  1.020318  0
H  H4  1  0.65717827  0.63399380  0.66093652  1  0  0.129861  0  0.945862  0  0  0.151197  0  1.003208  0  0  0.153742  0  1.002286  0  0  0.095055  0.149262  0  1.00398  0
H  H5  1  0.34281422  0.36600525  0.33904821  1  0  0.129872  0  0.945934  0  0  0.151178  0  1.003298  0  0  0.153711  0  1.002391  0  0  0.09506  0.149243  0  1.004066  0
H  H6  1  0.67208179  0.58350616  0.47550933  1  0  0.117236  0  0.99339  0  0  0.13638  0  1.057893  0  0  0.13819  0  1.057665  0  0  0.088158  0.134738  0  1.058553  0
H  H7  1  0.32789743  0.41649062  0.52447567  1  0  0.117275  0  0.993242  0  0  0.136403  0  1.057738  0  0  0.138206  0  1.057516  0  0  0.088185  0.134759  0  1.058404  0
H  H8  1  0.89266492  0.50837278  0.33709857  1  0  0.129137  0  0.967686  0  0  0.147864  0  1.028426  0  0  0.150176  0  1.027567  0  0  0.093659  0.146151  0  1.029435  0
H  H9  1  0.10732761  0.49162377  0.66289853  1  0  0.12912  0  0.967648  0  0  0.147842  0  1.028409  0  0  0.150155  0  1.027546  0  0  0.09366  0.146128  0  1.029421  0
H  H10  1  0.92216648  0.32640234  0.33342252  1  0  0.137921  0  0.958182  0  0  0.159155  0  1.015441  0  0  0.161182  0  1.015443  0  0  0.098358  0.15778  0  1.015414  0
H  H11  1  0.07783030  0.67359424  0.66657194  1  0  0.138024  0  0.958172  0  0  0.159256  0  1.01542  0  0  0.161285  0  1.01542  0  0  0.098407  0.157879  0  1.015392  0
H  H12  1  0.69612872  0.35853411  0.26484240  1  0  0.127364  0  0.955424  0  0  0.147897  0  1.017799  0  0  0.150104  0  1.017191  0  0  0.096396  0.14621  0  1.018561  0
H  H13  1  0.30386904  0.64145902  0.73515162  1  0  0.127391  0  0.955481  0  0  0.147938  0  1.017823  0  0  0.150146  0  1.017213  0  0  0.096433  0.146251  0  1.018584  0
H  H14  1  0.21947233  0.89398970  0.66701017  1  0  0.06589  0  0.961379  0  0  0.081197  0  1.030482  0  0  0.081435  0  1.030914  0  0  0.102033  0.080958  0  1.030205  0
H  H15  1  0.78052809  0.10601136  0.33299021  1  0  0.065889  0  0.961332  0  0  0.081228  0  1.030426  0  0  0.081465  0  1.030853  0  0  0.102046  0.080987  0  1.030151  0
H  H16  1  0.44382208  0.92199869  0.78154448  1  0  0.062706  0  0.952981  0  0  0.075878  0  1.024404  0  0  0.076666  0  1.024294  0  0  0.098979  0.075244  0  1.024497  0
H  H17  1  0.55617981  0.07800235  0.21845693  1  0  0.062676  0  0.952981  0  0  0.075874  0  1.024408  0  0  0.076659  0  1.024302  0  0  0.098969  0.07524  0  1.024503  0
H  H18  1  0.49773016  0.02255267  0.61499408  1  0  0.055366  0  0.953276  0  0  0.073328  0  1.017581  0  0  0.0731  0  1.018454  0  0  0.101506  0.073411  0  1.016802  0
H  H19  1  0.50226803  0.97745297  0.38500811  1  0  0.05537  0  0.953274  0  0  0.073352  0  1.01757  0  0  0.073117  0  1.018444  0  0  0.101543  0.073434  0  1.016792  0
H  H20  1  0.29599516  0.13009848  0.65187402  1  0  0.044088  0  0.965439  0  0  0.060947  0  1.033654  0  0  0.061563  0  1.033437  0  0  0.091264  0.060345  0  1.034  0
H  H21  1  0.70400447  0.86990592  0.34813348  1  0  0.044057  0  0.965458  0  0  0.060941  0  1.033652  0  0  0.061542  0  1.033446  0  0  0.091253  0.060336  0  1.033999  0
H  H22  1  0.32031333  0.35034601  0.91727038  1  0  0.044199  0  0.932827  0  0  0.061512  0  1.003228  0  0  0.062208  0  1.002363  0  0  0.092404  0.060897  0  1.003749  0
H  H23  1  0.67968886  0.64965609  0.08273629  1  0  0.044201  0  0.932823  0  0  0.061504  0  1.003244  0  0  0.062202  0  1.002381  0  0  0.092399  0.060887  0  1.003766  0
H  H24  1  0.54689037  0.38045974  0.02571741  1  0  0.061536  0  0.939125  0  0  0.080008  0  1.003734  0  0  0.079568  0  1.004929  0  0  0.104495  0.080344  0  1.002488  0
H  H25  1  0.45311041  0.61954236  0.97429013  1  0  0.061502  0  0.93913  0  0  0.079979  0  1.003726  0  0  0.079541  0  1.004919  0  0  0.104468  0.080314  0  1.002481  0
H  H26  1  0.48700296  0.13127789  0.02643993  1  0  0.064218  0  0.934761  0  0  0.079684  0  1.002275  0  0  0.080527  0  1.001853  0  0  0.10157  0.079044  0  1.00256  0
H  H27  1  0.51299190  0.86872308  0.97356779  1  0  0.064282  0  0.934726  0  0  0.079712  0  1.002257  0  0  0.080556  0  1.001836  0  0  0.101593  0.079074  0  1.002541  0
H  H28  1  0.28937036  0.24118669  0.08800219  1  0  0.069695  0  0.94942  0  0  0.084643  0  1.015448  0  0  0.084865  0  1.015932  0  0  0.104344  0.084437  0  1.015104  0
H  H29  1  0.71062386  0.75881094  0.91199834  1  0  0.069751  0  0.949446  0  0  0.084679  0  1.015461  0  0  0.084902  0  1.015946  0  0  0.104365  0.084474  0  1.01512  0
H  H30  1  0.68181710  0.42641057  0.85856460  1  0  0.081899  0  0.942014  0  0  0.098704  0  1.003464  0  0  0.09936  0  1.004079  0  0  0.110228  0.098199  0  1.002851  0
H  H31  1  0.31818544  0.57359380  0.14144399  1  0  0.081804  0  0.942038  0  0  0.098642  0  1.003459  0  0  0.099294  0  1.004079  0  0  0.11019  0.098137  0  1.002847  0
H  H32  1  0.49070325  0.35765217  0.71159592  1  0  0.043245  0  0.933452  0  0  0.059145  0  1.001705  0  0  0.059553  0  1.001759  0  0  0.089716  0.05873  0  1.001833  0
H  H33  1  0.50929962  0.64235448  0.28841365  1  0  0.043232  0  0.933373  0  0  0.059128  0  1.001648  0  0  0.059537  0  1.001701  0  0  0.089703  0.058719  0  1.001772  0
H  H34  1  0.71202019  0.14957513  0.57445932  1  0  0.057207  0  0.943326  0  0  0.079313  0  1.002035  0  0  0.078943  0  1.003404  0  0  0.10596  0.079564  0  1.00099  0
H  H35  1  0.28797535  0.85043162  0.42554607  1  0  0.057282  0  0.943257  0  0  0.079377  0  1.001952  0  0  0.079008  0  1.003321  0  0  0.105959  0.079629  0  1.000906  0
H  H36  1  0.78819903  0.34034424  0.61318185  1  0  0.047875  0  0.925175  0  0  0.069161  0  0.986337  0  0  0.068615  0  0.987271  0  0  0.100092  0.069364  0  0.985952  0
H  H37  1  0.21180397  0.65966358  0.38682726  1  0  0.047881  0  0.925172  0  0  0.069146  0  0.986348  0  0  0.068601  0  0.987281  0  0  0.100033  0.06935  0  0.985963  0
H  H38  1  0.18763361  0.97977070  0.91644591  1  0  0.272468  0  0.934061  0  0  0.262147  0  0.987326  0  0  0.269145  0  0.982814  0  0  0.291029  0.257118  0  0.990656  0
H  H39  1  0.81236779  0.02022692  0.08355402  1  0  0.272493  0  0.934015  0  0  0.262176  0  0.987288  0  0  0.269173  0  0.982776  0  0  0.291048  0.257148  0  0.990619  0
H  H40  1  0.99775924  0.36279084  0.81386137  1  0  0.304427  0  0.929255  0  0  0.288287  0  0.994897  0  0  0.296066  0  0.988747  0  0  0.284272  0.282557  0  0.999497  0
H  H41  1  0.00224487  0.63720441  0.18614250  1  0  0.304497  0  0.929181  0  0  0.288286  0  0.9949  0  0  0.296065  0  0.988744  0  0  0.284259  0.282558  0  0.999498  0
H  H42  1  0.04282751  0.21773066  0.66333589  1  0  0.303411  0  0.923879  0  0  0.290984  0  0.983791  0  0  0.297959  0  0.978025  0  0  0.28759  0.285892  0  0.988113  0
H  H43  1  0.95717248  0.78226695  0.33666493  1  0  0.303482  0  0.923825  0  0  0.291018  0  0.983768  0  0  0.297994  0  0.978001  0  0  0.287599  0.285932  0  0.988087  0
C  C44  1  0.78947839  0.81618655  0.62330571  1  0  0.726554  0  3.88483  0  0  0.686023  0  4.180785  0  0  0.718731  0  4.174202  0  0  0.198325  0.663468  0  4.184861  0
C  C45  1  0.21053897  0.18380562  0.37667263  1  0  0.726681  0  3.884659  0  0  0.685941  0  4.180909  0  0  0.718648  0  4.174327  0  0  0.19819  0.663387  0  4.184984  0
C  C46  1  0.64746304  0.67478097  0.57802469  1  0  -0.457305  0  3.676137  0  0  -0.535978  0  3.907624  0  0  -0.543011  0  3.911326  0  0  -0.251517  -0.530581  0  3.905232  0
C  C47  1  0.35252896  0.32521465  0.42195857  1  0  -0.457361  0  3.676405  0  0  -0.535923  0  3.9079  0  0  -0.542946  0  3.911617  0  0  -0.251468  -0.530528  0  3.905511  0
C  C48  1  0.91648970  0.32846338  0.12682712  1  0  0.730859  0  3.854908  0  0  0.685934  0  4.153709  0  0  0.718611  0  4.147615  0  0  0.202963  0.663746  0  4.157044  0
C  C49  1  0.08351180  0.67152638  0.87316184  1  0  0.731009  0  3.854504  0  0  0.686169  0  4.15321  0  0  0.718859  0  4.147094  0  0  0.203057  0.663959  0  4.156571  0
C  C50  1  0.85396886  0.38514885  0.27501161  1  0  -0.459568  0  3.650898  0  0  -0.535511  0  3.879267  0  0  -0.542237  0  3.882123  0  0  -0.249235  -0.530852  0  3.877662  0
C  C51  1  0.14602737  0.61485339  0.72498809  1  0  -0.459712  0  3.651127  0  0  -0.535658  0  3.879459  0  0  -0.542386  0  3.882309  0  0  -0.249292  -0.530993  0  3.877862  0
C  C52  1  0.32595085  0.97897076  0.75336110  1  0  0.001809  0  3.644158  0  0  -0.060375  0  3.909629  0  0  -0.057009  0  3.922121  0  0  -0.080077  -0.062533  0  3.90085  0
C  C53  1  0.67405398  0.02103024  0.24664236  1  0  0.001869  0  3.644053  0  0  -0.060372  0  3.909605  0  0  -0.056997  0  3.922083  0  0  -0.080095  -0.062532  0  3.90083  0
C  C54  1  0.41261758  0.08777519  0.70098677  1  0  -0.024339  0  3.684343  0  0  -0.079036  0  3.943255  0  0  -0.076529  0  3.956848  0  0  -0.073324  -0.080544  0  3.933533  0
C  C55  1  0.58738327  0.91222810  0.29901840  1  0  -0.024344  0  3.684256  0  0  -0.079051  0  3.943201  0  0  -0.076533  0  3.956794  0  0  -0.073337  -0.080558  0  3.933476  0
C  C56  1  0.44211758  0.29173701  0.94063082  1  0  -0.021061  0  3.693952  0  0  -0.080558  0  3.960519  0  0  -0.077284  0  3.973228  0  0  -0.069771  -0.082487  0  3.951116  0
C  C57  1  0.55787979  0.70826169  0.05937415  1  0  -0.021086  0  3.694098  0  0  -0.080613  0  3.96068  0  0  -0.07734  0  3.973388  0  0  -0.069797  -0.082544  0  3.951286  0
C  C58  1  0.36422550  0.18165762  0.99448716  1  0  0.01371  0  3.639741  0  0  -0.046576  0  3.90463  0  0  -0.042454  0  3.915493  0  0  -0.075821  -0.04923  0  3.896849  0
C  C59  1  0.63577195  0.81834228  0.00551544  1  0  0.013557  0  3.639874  0  0  -0.046607  0  3.904649  0  0  -0.042485  0  3.91551  0  0  -0.075838  -0.049263  0  3.896874  0
C  C60  1  0.61244573  0.32318895  0.76464435  1  0  -0.045219  0  3.695248  0  0  -0.098209  0  3.955657  0  0  -0.09601  0  3.968925  0  0  -0.072487  -0.099582  0  3.946324  0
C  C61  1  0.38755682  0.67681543  0.23536425  1  0  -0.044988  0  3.694948  0  0  -0.098004  0  3.955363  0  0  -0.095802  0  3.968628  0  0  -0.072393  -0.099382  0  3.94603  0
C  C62  1  0.76218201  0.26281612  0.66230366  1  0  0.078106  0  3.639447  0  0  0.013327  0  3.909131  0  0  0.018156  0  3.921481  0  0  -0.071457  0.009828  0  3.900826  0
C  C63  1  0.23781917  0.73718945  0.33770249  1  0  0.077982  0  3.639453  0  0  0.013237  0  3.909073  0  0  0.018067  0  3.921421  0  0  -0.071357  0.009739  0  3.900777  0
N  N64  1  0.22540573  0.05961564  0.88038132  1  0  -0.433257  0  3.199464  0  0  -0.347383  0  3.459562  0  0  -0.366966  0  3.466486  0  0  -0.486028  -0.333673  0  3.45446  0
N  N65  1  0.77459605  0.94038424  0.11962150  1  0  -0.433241  0  3.199428  0  0  -0.347455  0  3.459632  0  0  -0.367041  0  3.466558  0  0  -0.486052  -0.333738  0  3.45452  0
N  N66  1  0.54129745  0.21450527  0.81485005  1  0  -0.231308  0  3.229516  0  0  -0.147513  0  3.481124  0  0  -0.162796  0  3.501239  0  0  -0.341993  -0.136727  0  3.466777  0
N  N67  1  0.45870485  0.78549801  0.18515520  1  0  -0.231282  0  3.229506  0  0  -0.147503  0  3.48117  0  0  -0.162784  0  3.501278  0  0  -0.342002  -0.136718  0  3.466821  0
N  N68  1  0.94767943  0.25212765  0.73843685  1  0  -0.649011  0  3.122602  0  0  -0.58565  0  3.397159  0  0  -0.605588  0  3.388159  0  0  -0.631358  -0.571599  0  3.403489  0
N  N69  1  0.05232075  0.74787109  0.26156541  1  0  -0.649125  0  3.12254  0  0  -0.58563  0  3.397083  0  0  -0.605564  0  3.388078  0  0  -0.631375  -0.571597  0  3.403429  0
O  O70  1  0.79113827  0.91564017  0.75505875  1  0  -0.656893  0  2.036349  0  0  -0.573824  0  2.307856  0  0  -0.602221  0  2.293213  0  0  -0.334343  -0.55404  0  2.317781  0
O  O71  1  0.20887078  0.08435308  0.24492631  1  0  -0.656968  0  2.036251  0  0  -0.57374  0  2.30774  0  0  -0.60211  0  2.293072  0  0  -0.334285  -0.553961  0  2.317658  0
O  O72  1  0.89157928  0.83052131  0.53617508  1  0  -0.651854  0  1.901845  0  0  -0.601951  0  2.125655  0  0  -0.624149  0  2.115545  0  0  -0.335664  -0.586413  0  2.13222  0
O  O73  1  0.10843408  0.16945917  0.46381634  1  0  -0.651922  0  1.901445  0  0  -0.601958  0  2.125351  0  0  -0.624167  0  2.11525  0  0  -0.33563  -0.586402  0  2.131893  0
O  O74  1  0.87569162  0.18393213  0.04290425  1  0  -0.655726  0  2.044643  0  0  -0.569394  0  2.303001  0  0  -0.598738  0  2.289914  0  0  -0.323718  -0.548805  0  2.311548  0
O  O75  1  0.12431255  0.81607460  0.95710063  1  0  -0.655827  0  2.044254  0  0  -0.569581  0  2.302659  0  0  -0.598946  0  2.289595  0  0  -0.323799  -0.54898  0  2.31121  0
O  O76  1  0.00095774  0.41901661  0.08973138  1  0  -0.628669  0  1.934163  0  0  -0.571661  0  2.159284  0  0  -0.595152  0  2.151336  0  0  -0.316333  -0.555196  0  2.164154  0
O  O77  1  0.99903655  0.58098099  0.91027200  1  0  -0.628603  0  1.93395  0  0  -0.571667  0  2.159088  0  0  -0.595163  0  2.151134  0  0  -0.316313  -0.555197  0  2.163966  0
