# generated using pymatgen
data_CuPH19C23BrNO3
_symmetry_space_group_name_H-M   'P 1'
_cell_length_a   9.43891355
_cell_length_b   9.45005504
_cell_length_c   13.08088322
_cell_angle_alpha   74.41862632
_cell_angle_beta   70.49422545
_cell_angle_gamma   83.70214131
_symmetry_Int_Tables_number   1
_chemical_formula_structural   CuPH19C23BrNO3
_chemical_formula_sum   'Cu2 P2 H38 C46 Br2 N2 O6'
_cell_volume   1059.15123247
_cell_formula_units_Z   2
loop_
 _symmetry_equiv_pos_site_id
 _symmetry_equiv_pos_as_xyz
  1  'x, y, z'
loop_
 _atom_site_type_symbol
 _atom_site_label
 _atom_site_symmetry_multiplicity
 _atom_site_fract_x
 _atom_site_fract_y
 _atom_site_fract_z
 _atom_site_occupancy
 _atom_site_pbe_bader_spin_density
 _atom_site_pbe_cm5_charge
 _atom_site_pbe_ddec_charge
 _atom_site_pbe_ddec_spin_density
 _atom_site_pbe_ddec_sum_bond_order
 _atom_site_pbe_magmom
Cu  Cu0  1  0.45239135  0.57746659  0.40478994  1  0  0.386209  0.066561  0  2.876791  0
Cu  Cu1  1  0.54761038  0.42252573  0.59520819  1  0  0.386263  0.066686  0  2.876799  0
P  P2  1  0.55420338  0.57957580  0.23020950  1  0  0.212375  0.668872  0  4.824341  0
P  P3  1  0.44579818  0.42042421  0.76978719  1  0  0.212352  0.668769  0  4.824217  0
H  H4  1  0.11704773  0.57489724  0.50490076  1  0  0.111982  0.090583  0  1.000094  0
H  H5  1  0.88294600  0.42510057  0.49509976  1  0  0.111901  0.090487  0  1.000132  0
H  H6  1  0.91057343  0.75624075  0.54306774  1  0  0.104908  0.114695  0  1.029321  0
H  H7  1  0.08942914  0.24376253  0.45693496  1  0  0.104924  0.114678  0  1.029351  0
H  H8  1  0.25101273  0.08842025  0.43003404  1  0  0.108619  0.118179  0  1.014731  0
H  H9  1  0.74898685  0.91156767  0.56996775  1  0  0.108623  0.118146  0  1.014672  0
H  H10  1  0.44068139  0.89187316  0.39451265  1  0  0.108634  0.083005  0  1.031099  0
H  H11  1  0.55932037  0.10811806  0.60548569  1  0  0.108621  0.082976  0  1.031145  0
H  H12  1  0.65198966  0.27966827  0.36775382  1  0  0.0933  0.108911  0  1.065859  0
H  H13  1  0.34801839  0.72034272  0.63224074  1  0  0.093338  0.108905  0  1.065914  0
H  H14  1  0.66419616  0.00833133  0.38380143  1  0  0.089211  0.088597  0  1.040467  0
H  H15  1  0.33580069  0.99167746  0.61619699  1  0  0.089217  0.08855  0  1.040545  0
H  H16  1  0.71828547  0.91570577  0.21414098  1  0  0.095756  0.103636  0  1.044678  0
H  H17  1  0.28170806  0.08430082  0.78585866  1  0  0.095766  0.103655  0  1.044623  0
H  H18  1  0.76564677  0.09252945  0.02671669  1  0  0.098349  0.095218  0  1.021266  0
H  H19  1  0.23435134  0.90747386  0.97328096  1  0  0.098353  0.095228  0  1.021268  0
H  H20  1  0.75219495  0.36349163  0.01158317  1  0  0.104228  0.1238  0  1.021886  0
H  H21  1  0.24780882  0.63651059  0.98841104  1  0  0.10419  0.123783  0  1.021921  0
H  H22  1  0.26361293  0.35036753  0.18024524  1  0  0.100462  0.11934  0  1.03774  0
H  H23  1  0.73638197  0.64962695  0.81976174  1  0  0.100469  0.119356  0  1.037726  0
H  H24  1  0.98589457  0.38928748  0.22313717  1  0  0.096169  0.096024  0  1.026442  0
H  H25  1  0.01410024  0.61071252  0.77686343  1  0  0.096156  0.096047  0  1.026493  0
H  H26  1  0.86675519  0.62760989  0.26040586  1  0  0.087738  0.0944  0  1.055555  0
H  H27  1  0.13324736  0.37239449  0.73959588  1  0  0.087743  0.094393  0  1.055624  0
H  H28  1  0.02664203  0.82801598  0.24736169  1  0  0.096815  0.096264  0  1.016585  0
H  H29  1  0.97336403  0.17198180  0.75264200  1  0  0.096851  0.096365  0  1.016582  0
H  H30  1  0.30318805  0.78983087  0.20276835  1  0  0.099439  0.110408  0  1.042317  0
H  H31  1  0.69681700  0.21016252  0.79723413  1  0  0.099436  0.110383  0  1.042346  0
H  H32  1  0.90922790  0.73677023  0.05155379  1  0  0.106064  0.123228  0  1.015989  0
H  H33  1  0.09076940  0.26321991  0.94844276  1  0  0.106084  0.123288  0  1.015908  0
H  H34  1  0.02651204  0.84306372  0.84671353  1  0  0.092926  0.086707  0  1.076573  0
H  H35  1  0.97348753  0.15692420  0.15328825  1  0  0.09292  0.08664  0  1.076561  0
H  H36  1  0.86655466  0.95200556  0.72752046  1  0  0.091011  0.08605  0  1.055353  0
H  H37  1  0.13344697  0.04799116  0.27247762  1  0  0.091018  0.08603  0  1.055408  0
H  H38  1  0.58578237  0.95169508  0.81205513  1  0  0.097297  0.095971  0  1.026723  0
H  H39  1  0.41421571  0.04830821  0.18794635  1  0  0.097265  0.095868  0  1.026796  0
H  H40  1  0.47044755  0.84626414  0.01607740  1  0  0.102854  0.114854  0  1.036466  0
H  H41  1  0.52955160  0.15374134  0.98392570  1  0  0.102822  0.114831  0  1.036415  0
C  C42  1  0.14071657  0.69073005  0.48870137  1  0  0.047106  0.097264  0  3.914374  0
C  C43  1  0.85927836  0.30926334  0.51130429  1  0  0.047178  0.097327  0  3.91431  0
C  C44  1  0.02564385  0.79433026  0.51056009  1  0  -0.076443  -0.159049  0  3.919034  0
C  C45  1  0.97435662  0.20566754  0.48944111  1  0  -0.076432  -0.158952  0  3.919076  0
C  C46  1  0.05941043  0.94275375  0.48995908  1  0  0.009558  0.091999  0  3.965356  0
C  C47  1  0.94059347  0.05724075  0.51004346  1  0  0.009588  0.092036  0  3.965342  0
C  C48  1  0.21306886  0.97698751  0.44784973  1  0  -0.077354  -0.161921  0  3.936343  0
C  C49  1  0.78693173  0.02300480  0.55215096  1  0  -0.077327  -0.161889  0  3.936048  0
C  C50  1  0.32122905  0.86747827  0.42740056  1  0  0.0401  0.085373  0  3.92031  0
C  C51  1  0.67876811  0.13251623  0.57260359  1  0  0.040081  0.08542  0  3.920103  0
C  C52  1  0.70229512  0.33392650  0.18879463  1  0  0.083372  0.28655  0  4.014206  0
C  C53  1  0.29771070  0.66608451  0.81119664  1  0  0.083434  0.286384  0  4.014499  0
C  C54  1  0.67745011  0.23678426  0.29403305  1  0  -0.108824  -0.213071  0  3.999771  0
C  C55  1  0.32255791  0.76322784  0.70596131  1  0  -0.108908  -0.21304  0  3.999846  0
C  C56  1  0.68316103  0.08595344  0.30222105  1  0  -0.098577  -0.069078  0  4.027933  0
C  C57  1  0.31684254  0.91405645  0.69777632  1  0  -0.098528  -0.068972  0  4.0278  0
C  C58  1  0.71415039  0.03352213  0.20660560  1  0  -0.103683  -0.115229  0  4.01188  0
C  C59  1  0.28584313  0.96648557  0.79339230  1  0  -0.103728  -0.115239  0  4.011819  0
C  C60  1  0.73923230  0.13285702  0.10182090  1  0  -0.088747  -0.059992  0  4.003301  0
C  C61  1  0.26076241  0.86714739  0.89817735  1  0  -0.088784  -0.060085  0  4.003347  0
C  C62  1  0.73298797  0.28404214  0.09227248  1  0  -0.095446  -0.181801  0  3.938079  0
C  C63  1  0.26701343  0.71596446  0.90772451  1  0  -0.095355  -0.181675  0  3.938153  0
C  C64  1  0.29732427  0.56645157  0.19090564  1  0  0.07844  0.271573  0  4.053438  0
C  C65  1  0.70267841  0.43354733  0.80909558  1  0  0.078396  0.271478  0  4.053485  0
C  C66  1  0.20947429  0.45368190  0.19615537  1  0  -0.103351  -0.195015  0  3.973119  0
C  C67  1  0.79052842  0.54631590  0.80384682  1  0  -0.103346  -0.195005  0  3.973252  0
C  C68  1  0.05456856  0.47679361  0.22001149  1  0  -0.092618  -0.061713  0  4.006683  0
C  C69  1  0.94543420  0.52320199  0.77999036  1  0  -0.09266  -0.061877  0  4.006969  0
C  C70  1  0.98800152  0.61083867  0.23933705  1  0  -0.104064  -0.107883  0  4.020457  0
C  C71  1  0.01200119  0.38915913  0.76066438  1  0  -0.104032  -0.107692  0  4.020427  0
C  C72  1  0.07759664  0.72279346  0.23326545  1  0  -0.094052  -0.061139  0  4.018763  0
C  C73  1  0.92240945  0.27720435  0.76673211  1  0  -0.09411  -0.061402  0  4.018739  0
C  C74  1  0.23320779  0.70181471  0.20853039  1  0  -0.110942  -0.223337  0  4.014664  0
C  C75  1  0.76679607  0.29818198  0.79147097  1  0  -0.110937  -0.22325  0  4.014491  0
C  C76  1  0.68408280  0.78793066  0.04376141  1  0  0.084607  0.290223  0  3.985977  0
C  C77  1  0.31591302  0.21207372  0.95624116  1  0  0.084583  0.290149  0  3.986134  0
C  C78  1  0.84024657  0.78458642  0.99808315  1  0  -0.093951  -0.181449  0  3.946711  0
C  C79  1  0.15974831  0.21541029  0.00191729  1  0  -0.093942  -0.181568  0  3.94672  0
C  C80  1  0.90477657  0.84409706  0.88352505  1  0  -0.091363  -0.065404  0  4.014251  0
C  C81  1  0.09522392  0.15589965  0.11647482  1  0  -0.091326  -0.065172  0  4.014062  0
C  C82  1  0.81437520  0.90520784  0.81656230  1  0  -0.101469  -0.107606  0  4.02602  0
C  C83  1  0.18562735  0.09479655  0.18343944  1  0  -0.101512  -0.107747  0  4.026156  0
C  C84  1  0.65799116  0.90549062  0.86342228  1  0  -0.092866  -0.071847  0  4.020909  0
C  C85  1  0.34200901  0.09451925  0.13658126  1  0  -0.092907  -0.071749  0  4.020924  0
C  C86  1  0.59197105  0.84587649  0.97788862  1  0  -0.098173  -0.190993  0  3.974236  0
C  C87  1  0.40802703  0.15412680  0.02211363  1  0  -0.098059  -0.190852  0  3.974059  0
Br  Br88  1  0.35095959  0.33775485  0.52835557  1  0  -0.275626  -0.399507  0  1.554891  0
Br  Br89  1  0.64903978  0.66224186  0.47164457  1  0  -0.275627  -0.39952  0  1.554839  0
N  N90  1  0.28720902  0.72535453  0.44733813  1  0  -0.358327  -0.166768  0  3.639567  0
N  N91  1  0.71278479  0.27463998  0.55266376  1  0  -0.358339  -0.166886  0  3.639652  0
O  O92  1  0.70401026  0.48538707  0.17680228  1  0  -0.186184  -0.333767  0  2.584149  0
O  O93  1  0.29599219  0.51462283  0.82319383  1  0  -0.186256  -0.333683  0  2.584102  0
O  O94  1  0.45204833  0.53975797  0.16220816  1  0  -0.186036  -0.328508  0  2.582425  0
O  O95  1  0.54795543  0.46024312  0.83779163  1  0  -0.185966  -0.3284  0  2.582376  0
O  O96  1  0.61767904  0.74219985  0.16046580  1  0  -0.189457  -0.353207  0  2.640556  0
O  O97  1  0.38231695  0.25779796  0.83953418  1  0  -0.18946  -0.353202  0  2.640463  0
