# generated using pymatgen
data_NaH10C6NO3
_symmetry_space_group_name_H-M   'P 1'
_cell_length_a   6.87697837
_cell_length_b   8.25484590
_cell_length_c   13.76039664
_cell_angle_alpha   89.99992617
_cell_angle_beta   92.70391814
_cell_angle_gamma   89.99984849
_symmetry_Int_Tables_number   1
_chemical_formula_structural   NaH10C6NO3
_chemical_formula_sum   'Na4 H40 C24 N4 O12'
_cell_volume   780.28595638
_cell_formula_units_Z   4
loop_
 _symmetry_equiv_pos_site_id
 _symmetry_equiv_pos_as_xyz
  1  'x, y, z'
loop_
 _atom_site_type_symbol
 _atom_site_label
 _atom_site_symmetry_multiplicity
 _atom_site_fract_x
 _atom_site_fract_y
 _atom_site_fract_z
 _atom_site_occupancy
 _atom_site_hle17_bader_spin_density
 _atom_site_hle17_ddec_charge
 _atom_site_hle17_ddec_spin_density
 _atom_site_hle17_ddec_sum_bond_order
 _atom_site_hle17_magmom
 _atom_site_hse06_10hf_bader_spin_density
 _atom_site_hse06_10hf_ddec_charge
 _atom_site_hse06_10hf_ddec_spin_density
 _atom_site_hse06_10hf_ddec_sum_bond_order
 _atom_site_hse06_10hf_magmom
 _atom_site_hse06_bader_spin_density
 _atom_site_hse06_ddec_charge
 _atom_site_hse06_ddec_spin_density
 _atom_site_hse06_ddec_sum_bond_order
 _atom_site_hse06_magmom
 _atom_site_pbe_bader_spin_density
 _atom_site_pbe_cm5_charge
 _atom_site_pbe_ddec_charge
 _atom_site_pbe_ddec_spin_density
 _atom_site_pbe_ddec_sum_bond_order
 _atom_site_pbe_magmom
Na  Na0  1  0.75292788  0.50224667  0.48409275  1  0  0.899242  0  0.400451  0  0  0.859387  0  0.55321  0  0  0.868842  0  0.531174  0  0  0.675692  0.852296  0  0.569017  0
Na  Na1  1  0.74706941  0.00224579  0.51590726  1  0  0.899244  0  0.400445  0  0  0.859418  0  0.55316  0  0  0.868873  0  0.531125  0  0  0.675713  0.852315  0  0.568999  0
Na  Na2  1  0.24706855  0.49775286  0.51590722  1  0  0.899229  0  0.400475  0  0  0.859399  0  0.553207  0  0  0.868846  0  0.531176  0  0  0.675699  0.852298  0  0.569036  0
Na  Na3  1  0.25292993  0.99775253  0.48409351  1  0  0.899248  0  0.40044  0  0  0.859434  0  0.553147  0  0  0.868882  0  0.531118  0  0  0.675718  0.852325  0  0.568997  0
H  H4  1  0.30884220  0.68353796  0.74729624  1  0  0.116228  0  0.971391  0  0  0.124675  0  1.034773  0  0  0.128025  0  1.034808  0  0  0.103158  0.122261  0  1.03505  0
H  H5  1  0.19115876  0.18353656  0.25270262  1  0  0.116252  0  0.971382  0  0  0.124719  0  1.034736  0  0  0.128074  0  1.034763  0  0  0.103168  0.122305  0  1.035017  0
H  H6  1  0.69115278  0.31645551  0.25270371  1  0  0.116265  0  0.971393  0  0  0.124669  0  1.034815  0  0  0.128026  0  1.034842  0  0  0.10315  0.122255  0  1.035098  0
H  H7  1  0.80884203  0.81645934  0.74729746  1  0  0.116259  0  0.971383  0  0  0.124704  0  1.034762  0  0  0.128047  0  1.034803  0  0  0.103146  0.122293  0  1.035039  0
H  H8  1  0.40829818  0.67942856  0.92393289  1  0  0.07629  0  0.965989  0  0  0.088725  0  1.027591  0  0  0.090689  0  1.026438  0  0  0.097185  0.087291  0  1.02835  0
H  H9  1  0.09170280  0.17942412  0.07606669  1  0  0.076258  0  0.96595  0  0  0.08868  0  1.027577  0  0  0.090646  0  1.026424  0  0  0.09716  0.087245  0  1.028338  0
H  H10  1  0.59170116  0.32056976  0.07606715  1  0  0.076275  0  0.965904  0  0  0.088706  0  1.027514  0  0  0.09067  0  1.026362  0  0  0.097161  0.087273  0  1.028274  0
H  H11  1  0.90829800  0.82057177  0.92393412  1  0  0.076266  0  0.965951  0  0  0.088696  0  1.027564  0  0  0.090661  0  1.02641  0  0  0.097157  0.087265  0  1.028319  0
H  H12  1  0.71479345  0.53270465  0.97972515  1  0  0.09643  0  0.983436  0  0  0.107881  0  1.045785  0  0  0.110571  0  1.046322  0  0  0.095618  0.105973  0  1.045566  0
H  H13  1  0.78520666  0.03269870  0.02027273  1  0  0.096409  0  0.983422  0  0  0.107848  0  1.045798  0  0  0.110536  0  1.046339  0  0  0.095592  0.105946  0  1.045573  0
H  H14  1  0.28520880  0.46730094  0.02027206  1  0  0.096427  0  0.983385  0  0  0.107866  0  1.04576  0  0  0.110553  0  1.046301  0  0  0.095596  0.105964  0  1.045534  0
H  H15  1  0.21479269  0.96730083  0.97972732  1  0  0.096414  0  0.98341  0  0  0.107849  0  1.045787  0  0  0.110537  0  1.046329  0  0  0.095593  0.105953  0  1.045553  0
H  H16  1  0.93876502  0.23873662  0.83830615  1  0  0.119759  0  0.958051  0  0  0.139527  0  1.021235  0  0  0.140568  0  1.02262  0  0  0.093932  0.138782  0  1.02029  0
H  H17  1  0.56123586  0.73873499  0.16169450  1  0  0.119766  0  0.958043  0  0  0.139534  0  1.021226  0  0  0.140574  0  1.022612  0  0  0.093925  0.138789  0  1.020278  0
H  H18  1  0.06124014  0.76127139  0.16169404  1  0  0.119726  0  0.958038  0  0  0.139488  0  1.021242  0  0  0.140529  0  1.022625  0  0  0.093886  0.138742  0  1.02029  0
H  H19  1  0.43875911  0.26126697  0.83830689  1  0  0.119733  0  0.958035  0  0  0.139492  0  1.021247  0  0  0.140533  0  1.022629  0  0  0.093892  0.138747  0  1.020298  0
H  H20  1  0.98844987  0.36726460  0.94018514  1  0  0.105413  0  0.960219  0  0  0.128009  0  1.020917  0  0  0.129287  0  1.020716  0  0  0.089235  0.127081  0  1.021035  0
H  H21  1  0.51154769  0.86726329  0.05981460  1  0  0.105392  0  0.960259  0  0  0.127985  0  1.020963  0  0  0.129263  0  1.020763  0  0  0.089211  0.127054  0  1.021085  0
H  H22  1  0.01155093  0.63274220  0.05981567  1  0  0.105412  0  0.960341  0  0  0.128023  0  1.021015  0  0  0.129299  0  1.020814  0  0  0.089238  0.127085  0  1.021142  0
H  H23  1  0.48844728  0.13274108  0.94018679  1  0  0.105432  0  0.960281  0  0  0.128075  0  1.020919  0  0  0.129337  0  1.020732  0  0  0.089269  0.127136  0  1.021048  0
H  H24  1  0.08587039  0.41256880  0.82533582  1  0  0.121626  0  0.93733  0  0  0.142865  0  0.997872  0  0  0.144792  0  0.99724  0  0  0.095841  0.141416  0  0.998431  0
H  H25  1  0.41412982  0.91256878  0.17466357  1  0  0.121627  0  0.937264  0  0  0.142875  0  0.997799  0  0  0.144801  0  0.997167  0  0  0.09584  0.141425  0  0.99836  0
H  H26  1  0.91413332  0.58743679  0.17466215  1  0  0.121663  0  0.937186  0  0  0.14292  0  0.997713  0  0  0.144829  0  0.997098  0  0  0.095862  0.141466  0  0.99828  0
H  H27  1  0.58586806  0.08743801  0.82533790  1  0  0.121671  0  0.9371  0  0  0.142919  0  0.997647  0  0  0.144828  0  0.99703  0  0  0.095858  0.141469  0  0.99821  0
H  H28  1  0.00121978  0.26786405  0.39782618  1  0  0.417605  0  0.895407  0  0  0.388889  0  0.957048  0  0  0.399306  0  0.941773  0  0  0.290087  0.381549  0  0.9678  0
H  H29  1  0.49878237  0.76786535  0.60217264  1  0  0.417595  0  0.895421  0  0  0.388871  0  0.957074  0  0  0.399289  0  0.941798  0  0  0.290106  0.381532  0  0.967825  0
H  H30  1  0.99878102  0.73213064  0.60217317  1  0  0.41755  0  0.895473  0  0  0.388836  0  0.957125  0  0  0.399253  0  0.941848  0  0  0.290054  0.381489  0  0.967884  0
H  H31  1  0.50121843  0.23213418  0.39782672  1  0  0.417616  0  0.89539  0  0  0.388902  0  0.957028  0  0  0.399318  0  0.941754  0  0  0.290099  0.381562  0  0.967781  0
H  H32  1  0.07445964  0.42788397  0.34530769  1  0  0.397356  0  0.911419  0  0  0.365154  0  0.982866  0  0  0.374114  0  0.969747  0  0  0.290266  0.358854  0  0.992092  0
H  H33  1  0.42554052  0.92788532  0.65469168  1  0  0.397288  0  0.911455  0  0  0.36507  0  0.982979  0  0  0.37403  0  0.969859  0  0  0.290248  0.358772  0  0.992201  0
H  H34  1  0.92553825  0.57211192  0.65469159  1  0  0.397351  0  0.911438  0  0  0.365146  0  0.982882  0  0  0.374105  0  0.969763  0  0  0.29025  0.358843  0  0.99211  0
H  H35  1  0.57446028  0.07211421  0.34530840  1  0  0.397357  0  0.911405  0  0  0.365152  0  0.982867  0  0  0.374114  0  0.969745  0  0  0.290264  0.358851  0  0.992096  0
H  H36  1  0.95182418  0.23128427  0.59947136  1  0  0.418997  0  0.848619  0  0  0.400164  0  0.909132  0  0  0.408031  0  0.897745  0  0  0.313345  0.394565  0  0.915668  0
H  H37  1  0.54817964  0.73128215  0.40052937  1  0  0.418983  0  0.848699  0  0  0.400138  0  0.909246  0  0  0.408007  0  0.897802  0  0  0.313335  0.394535  0  0.915788  0
H  H38  1  0.04817516  0.76871283  0.40052941  1  0  0.418982  0  0.848633  0  0  0.40015  0  0.909144  0  0  0.408017  0  0.897763  0  0  0.313336  0.394552  0  0.915678  0
H  H39  1  0.45181825  0.26871374  0.59947065  1  0  0.418927  0  0.848657  0  0  0.400079  0  0.909223  0  0  0.407946  0  0.897865  0  0  0.313293  0.394476  0  0.915766  0
H  H40  1  0.79312191  0.33284898  0.65175073  1  0  0.383203  0  0.945571  0  0  0.342615  0  1.026052  0  0  0.353846  0  1.009929  0  0  0.278185  0.33477  0  1.037297  0
H  H41  1  0.70687721  0.83284904  0.34824907  1  0  0.38322  0  0.945541  0  0  0.34264  0  1.026012  0  0  0.353873  0  1.009886  0  0  0.278208  0.334796  0  1.037257  0
H  H42  1  0.20687451  0.66715177  0.34824997  1  0  0.383235  0  0.945527  0  0  0.342648  0  1.026009  0  0  0.35388  0  1.009885  0  0  0.278202  0.334805  0  1.037252  0
H  H43  1  0.29312213  0.16714928  0.65175097  1  0  0.383185  0  0.945584  0  0  0.34261  0  1.026049  0  0  0.353839  0  1.009929  0  0  0.278206  0.334769  0  1.037288  0
C  C44  1  0.56520210  0.55233600  0.70490125  1  0  0.527159  0  3.931369  0  0  0.497179  0  4.20141  0  0  0.521222  0  4.207141  0  0  0.194785  0.481133  0  4.197013  0
C  C45  1  0.93479649  0.05233640  0.29509731  1  0  0.52723  0  3.931259  0  0  0.49726  0  4.201299  0  0  0.521304  0  4.207028  0  0  0.19482  0.481216  0  4.196898  0
C  C46  1  0.43479724  0.44766474  0.29509808  1  0  0.52713  0  3.931523  0  0  0.497172  0  4.201523  0  0  0.521215  0  4.207254  0  0  0.194802  0.481121  0  4.197134  0
C  C47  1  0.06519994  0.94766434  0.70490267  1  0  0.527322  0  3.931252  0  0  0.497303  0  4.201354  0  0  0.521343  0  4.207082  0  0  0.194868  0.481253  0  4.196959  0
C  C48  1  0.44277495  0.62444401  0.77369024  1  0  -0.271043  0  3.717613  0  0  -0.286938  0  3.972704  0  0  -0.299647  0  3.992119  0  0  -0.115072  -0.278791  0  3.959737  0
C  C49  1  0.05722330  0.12444538  0.22630859  1  0  -0.271137  0  3.717772  0  0  -0.287049  0  3.972843  0  0  -0.299764  0  3.992256  0  0  -0.115104  -0.278912  0  3.959882  0
C  C50  1  0.55722003  0.37554946  0.22630970  1  0  -0.271108  0  3.71781  0  0  -0.286975  0  3.972899  0  0  -0.299687  0  3.992304  0  0  -0.115078  -0.278833  0  3.959943  0
C  C51  1  0.94277750  0.87555172  0.77369149  1  0  -0.271191  0  3.717854  0  0  -0.28707  0  3.972954  0  0  -0.299778  0  3.992384  0  0  -0.115114  -0.27893  0  3.959994  0
C  C52  1  0.49838357  0.61967695  0.87147451  1  0  0.008274  0  3.820397  0  0  -0.008833  0  4.071845  0  0  -0.00137  0  4.090179  0  0  -0.084485  -0.013255  0  4.058957  0
C  C53  1  0.00162051  0.11967017  0.12852520  1  0  0.008341  0  3.820468  0  0  -0.00876  0  4.071919  0  0  -0.001298  0  4.090252  0  0  -0.084474  -0.013177  0  4.059031  0
C  C54  1  0.50161868  0.38032622  0.12852561  1  0  0.008307  0  3.820376  0  0  -0.008793  0  4.07181  0  0  -0.00133  0  4.090144  0  0  -0.084464  -0.013218  0  4.058931  0
C  C55  1  0.99838029  0.88032814  0.87147489  1  0  0.008317  0  3.820518  0  0  -0.008786  0  4.07195  0  0  -0.00132  0  4.090276  0  0  -0.084462  -0.013206  0  4.059062  0
C  C56  1  0.66982380  0.53881392  0.90288999  1  0  -0.255689  0  3.777664  0  0  -0.273017  0  4.029774  0  0  -0.285849  0  4.053543  0  0  -0.123268  -0.264737  0  4.01368  0
C  C57  1  0.83018066  0.03881013  0.09710799  1  0  -0.255656  0  3.777712  0  0  -0.272983  0  4.029829  0  0  -0.285815  0  4.053598  0  0  -0.123221  -0.264714  0  4.013738  0
C  C58  1  0.33017846  0.46118924  0.09710868  1  0  -0.255686  0  3.777702  0  0  -0.273011  0  4.029818  0  0  -0.285842  0  4.05359  0  0  -0.12323  -0.264738  0  4.013722  0
C  C59  1  0.16981868  0.96118819  0.90289133  1  0  -0.255679  0  3.777778  0  0  -0.272998  0  4.029897  0  0  -0.285828  0  4.053669  0  0  -0.123237  -0.264727  0  4.013797  0
C  C60  1  0.77912039  0.46248537  0.83365449  1  0  0.329173  0  3.781413  0  0  0.331715  0  4.029296  0  0  0.343199  0  4.049566  0  0  0.110496  0.324245  0  4.015219  0
C  C61  1  0.72088122  0.96248459  0.16634382  1  0  0.32914  0  3.781481  0  0  0.331693  0  4.029341  0  0  0.343181  0  4.04961  0  0  0.11051  0.324219  0  4.01527  0
C  C62  1  0.22088477  0.53751415  0.16634497  1  0  0.329137  0  3.781452  0  0  0.331679  0  4.029326  0  0  0.343166  0  4.04959  0  0  0.110486  0.324211  0  4.015243  0
C  C63  1  0.27911375  0.03751615  0.83365685  1  0  0.32917  0  3.781451  0  0  0.331714  0  4.029319  0  0  0.343198  0  4.04958  0  0  0.110499  0.324236  0  4.015251  0
C  C64  1  0.95784629  0.36560266  0.86124856  1  0  -0.365832  0  3.696265  0  0  -0.445911  0  3.929189  0  0  -0.449176  0  3.936393  0  0  -0.238747  -0.443426  0  3.924068  0
C  C65  1  0.54215564  0.86560233  0.13875056  1  0  -0.365801  0  3.696261  0  0  -0.445885  0  3.92918  0  0  -0.44915  0  3.936384  0  0  -0.238708  -0.443403  0  3.924066  0
C  C66  1  0.04216179  0.63440171  0.13875024  1  0  -0.365854  0  3.696248  0  0  -0.445962  0  3.929202  0  0  -0.449208  0  3.93642  0  0  -0.238727  -0.44347  0  3.924086  0
C  C67  1  0.45783933  0.13440083  0.86125084  1  0  -0.365887  0  3.696043  0  0  -0.446021  0  3.929008  0  0  -0.449255  0  3.936237  0  0  -0.238759  -0.443523  0  3.923897  0
N  N68  1  0.72865639  0.47032335  0.73737933  1  0  -0.544695  0  3.112639  0  0  -0.466968  0  3.334068  0  0  -0.48903  0  3.345183  0  0  -0.340804  -0.452107  0  3.32632  0
N  N69  1  0.77134083  0.97032346  0.26262033  1  0  -0.544673  0  3.112613  0  0  -0.466949  0  3.334037  0  0  -0.489019  0  3.34516  0  0  -0.340808  -0.45207  0  3.326264  0
N  N70  1  0.27134295  0.52967617  0.26262217  1  0  -0.54462  0  3.112577  0  0  -0.466897  0  3.334001  0  0  -0.488961  0  3.345117  0  0  -0.340814  -0.452026  0  3.326228  0
N  N71  1  0.22865705  0.02967485  0.73738041  1  0  -0.544695  0  3.112596  0  0  -0.46695  0  3.334037  0  0  -0.489  0  3.345141  0  0  -0.340826  -0.452089  0  3.326304  0
O  O72  1  0.52985797  0.56481245  0.61153470  1  0  -0.767488  0  1.977566  0  0  -0.711194  0  2.212288  0  0  -0.733105  0  2.200595  0  0  -0.452204  -0.695578  0  2.219767  0
O  O73  1  0.97014057  0.06481378  0.38846457  1  0  -0.767552  0  1.977513  0  0  -0.711277  0  2.212241  0  0  -0.733187  0  2.200546  0  0  -0.452237  -0.695664  0  2.219726  0
O  O74  1  0.47013700  0.43518708  0.38846524  1  0  -0.76749  0  1.97761  0  0  -0.711213  0  2.212335  0  0  -0.733123  0  2.200639  0  0  -0.452209  -0.695598  0  2.219819  0
O  O75  1  0.02986168  0.93518575  0.61153482  1  0  -0.767538  0  1.97749  0  0  -0.711237  0  2.212224  0  0  -0.73315  0  2.200534  0  0  -0.45222  -0.695609  0  2.219702  0
O  O76  1  0.00435515  0.38898320  0.40143429  1  0  -0.924983  0  1.829353  0  0  -0.882343  0  2.015979  0  0  -0.897642  0  1.983114  0  0  -0.708567  -0.871417  0  2.03887  0
O  O77  1  0.49564660  0.88898330  0.59856442  1  0  -0.924918  0  1.829378  0  0  -0.882272  0  2.01605  0  0  -0.897563  0  1.983169  0  0  -0.708582  -0.871348  0  2.038956  0
O  O78  1  0.99564711  0.61101269  0.59856655  1  0  -0.924936  0  1.829434  0  0  -0.882277  0  2.015983  0  0  -0.897564  0  1.9831  0  0  -0.708515  -0.871363  0  2.038937  0
O  O79  1  0.50435274  0.11101623  0.40143417  1  0  -0.92501  0  1.829363  0  0  -0.88237  0  2.01598  0  0  -0.897659  0  1.983094  0  0  -0.708582  -0.871447  0  2.038896  0
O  O80  1  0.81456491  0.26126561  0.59326480  1  0  -0.887009  0  1.787785  0  0  -0.841568  0  1.973956  0  0  -0.856665  0  1.942463  0  0  -0.664681  -0.830874  0  1.994415  0
O  O81  1  0.68543736  0.76126923  0.40673732  1  0  -0.887003  0  1.787876  0  0  -0.841569  0  1.974016  0  0  -0.856667  0  1.942472  0  0  -0.664701  -0.830875  0  1.994478  0
O  O82  1  0.18543443  0.73873392  0.40673670  1  0  -0.887019  0  1.787772  0  0  -0.841592  0  1.973941  0  0  -0.856686  0  1.942449  0  0  -0.664693  -0.830893  0  1.994384  0
O  O83  1  0.31456053  0.23872909  0.59326269  1  0  -0.88691  0  1.787848  0  0  -0.841484  0  1.973982  0  0  -0.856576  0  1.942522  0  0  -0.664652  -0.830787  0  1.994442  0
