# generated using pymatgen
data_H8PbC10N2Cl2O
_symmetry_space_group_name_H-M   'P 1'
_cell_length_a   4.07733349
_cell_length_b   8.31388634
_cell_length_c   18.15231821
_cell_angle_alpha   94.44209970
_cell_angle_beta   89.78889884
_cell_angle_gamma   103.90089137
_symmetry_Int_Tables_number   1
_chemical_formula_structural   H8PbC10N2Cl2O
_chemical_formula_sum   'H16 Pb2 C20 N4 Cl4 O2'
_cell_volume   595.44955536
_cell_formula_units_Z   2
loop_
 _symmetry_equiv_pos_site_id
 _symmetry_equiv_pos_as_xyz
  1  'x, y, z'
loop_
 _atom_site_type_symbol
 _atom_site_label
 _atom_site_symmetry_multiplicity
 _atom_site_fract_x
 _atom_site_fract_y
 _atom_site_fract_z
 _atom_site_occupancy
 _atom_site_hle17_bader_spin_density
 _atom_site_hle17_ddec_charge
 _atom_site_hle17_ddec_spin_density
 _atom_site_hle17_ddec_sum_bond_order
 _atom_site_hle17_magmom
 _atom_site_hse06_10hf_bader_spin_density
 _atom_site_hse06_10hf_ddec_charge
 _atom_site_hse06_10hf_ddec_spin_density
 _atom_site_hse06_10hf_ddec_sum_bond_order
 _atom_site_hse06_10hf_magmom
 _atom_site_hse06_bader_spin_density
 _atom_site_hse06_ddec_charge
 _atom_site_hse06_ddec_spin_density
 _atom_site_hse06_ddec_sum_bond_order
 _atom_site_hse06_magmom
 _atom_site_pbe_bader_spin_density
 _atom_site_pbe_cm5_charge
 _atom_site_pbe_ddec_charge
 _atom_site_pbe_ddec_spin_density
 _atom_site_pbe_ddec_sum_bond_order
 _atom_site_pbe_magmom
H  H0  1  0.33592276  0.53244339  0.46266369  1  0  0.121288  0  0.970272  0  0  0.125149  0  1.038158  0  0  0.130365  0  1.032783  0  0  0.126048  0.12134  0  1.04208  0
H  H1  1  0.80511810  0.46877931  0.53778466  1  0  0.121785  0  0.968944  0  0  0.125199  0  1.037315  0  0  0.130395  0  1.031938  0  0  0.126198  0.121427  0  1.04122  0
H  H2  1  0.18923144  0.42108224  0.12322492  1  0  0.106586  0  0.979453  0  0  0.112545  0  1.048702  0  0  0.11595  0  1.047176  0  0  0.094828  0.110098  0  1.04993  0
H  H3  1  0.76566029  0.57777720  0.87750068  1  0  0.107477  0  0.978561  0  0  0.113485  0  1.047728  0  0  0.116877  0  1.046259  0  0  0.095119  0.110993  0  1.049029  0
H  H4  1  0.00926089  0.28198316  0.21076497  1  0  0.118837  0  0.973975  0  0  0.126295  0  1.037827  0  0  0.129654  0  1.036208  0  0  0.100227  0.123822  0  1.039244  0
H  H5  1  0.71557893  0.71622028  0.79025126  1  0  0.117775  0  0.975598  0  0  0.125641  0  1.038921  0  0  0.128966  0  1.037296  0  0  0.100151  0.123221  0  1.040277  0
H  H6  1  0.44901063  0.59263787  0.02271474  1  0  0.071718  0  0.948328  0  0  0.077884  0  1.018489  0  0  0.080119  0  1.016807  0  0  0.107114  0.076274  0  1.019695  0
H  H7  1  0.85350119  0.40418354  0.97717054  1  0  0.070842  0  0.951146  0  0  0.077754  0  1.020441  0  0  0.079974  0  1.018801  0  0  0.107399  0.07614  0  1.02164  0
H  H8  1  0.64257986  0.66812959  0.35806366  1  0  0.111399  0  0.977547  0  0  0.117323  0  1.04444  0  0  0.120834  0  1.042653  0  0  0.101491  0.114832  0  1.045806  0
H  H9  1  0.98353968  0.33435112  0.64153115  1  0  0.112683  0  0.978877  0  0  0.118532  0  1.045686  0  0  0.122051  0  1.044  0  0  0.100768  0.116015  0  1.047012  0
H  H10  1  0.10896213  0.92294821  0.16857172  1  0  0.073812  0  0.94127  0  0  0.08049  0  1.008351  0  0  0.083239  0  1.005956  0  0  0.107136  0.078435  0  1.0102  0
H  H11  1  0.19626895  0.07649152  0.83034768  1  0  0.074606  0  0.938783  0  0  0.081609  0  1.005407  0  0  0.084407  0  1.00298  0  0  0.107446  0.079523  0  1.007265  0
H  H12  1  0.88056211  0.77116033  0.27523488  1  0  0.11173  0  0.996801  0  0  0.118661  0  1.062152  0  0  0.122632  0  1.060209  0  0  0.091743  0.115799  0  1.063667  0
H  H13  1  0.11759899  0.22963916  0.72404935  1  0  0.111017  0  0.995998  0  0  0.119086  0  1.059716  0  0  0.123061  0  1.057746  0  0  0.092886  0.116224  0  1.061248  0
H  H14  1  0.72691109  0.16074815  0.32320447  1  0  0.117277  0  0.939046  0  0  0.123184  0  1.004423  0  0  0.126746  0  1.001223  0  0  0.122553  0.120576  0  1.006783  0
H  H15  1  0.55051742  0.83743028  0.67820918  1  0  0.117311  0  0.933563  0  0  0.123738  0  0.998265  0  0  0.127275  0  0.995202  0  0  0.124688  0.121145  0  1.000521  0
Pb  Pb16  1  0.02680973  0.00128924  0.00120083  1  0  1.078059  0  1.727062  0  0  0.891377  0  2.17094  0  0  0.94661  0  2.132687  0  0  0.470792  0.852284  0  2.197156  0
Pb  Pb17  1  0.74559168  0.99851848  0.49770972  1  0  1.178002  0  1.70158  0  0  1.015992  0  2.150131  0  0  1.070965  0  2.105611  0  0  0.482848  0.974357  0  2.184954  0
C  C18  1  0.50900173  0.57960117  0.20980272  1  0  0.096893  0  3.737466  0  0  0.109825  0  3.96869  0  0  0.113496  0  3.989467  0  0  0.011293  0.107427  0  3.954493  0
C  C19  1  0.93125039  0.42016575  0.79019001  1  0  0.096356  0  3.73765  0  0  0.110225  0  3.968487  0  0  0.114001  0  3.989342  0  0  0.011476  0.107761  0  3.954217  0
C  C20  1  0.35208913  0.49073245  0.27311398  1  0  0.069215  0  3.74657  0  0  0.077537  0  3.980734  0  0  0.080604  0  4.002677  0  0  0.002382  0.07584  0  3.965656  0
C  C21  1  0.86045770  0.50939915  0.72721981  1  0  0.067644  0  3.747529  0  0  0.074785  0  3.983369  0  0  0.077664  0  4.005466  0  0  0.001833  0.073217  0  3.968168  0
C  C22  1  0.27903748  0.48220485  0.40563635  1  0  0.017893  0  3.583264  0  0  -0.02541  0  3.848451  0  0  -0.017467  0  3.85691  0  0  0.037683  -0.030372  0  3.842842  0
C  C23  1  0.79615079  0.51876987  0.59484591  1  0  0.020244  0  3.579454  0  0  -0.023579  0  3.845645  0  0  -0.015552  0  3.853882  0  0  0.037761  -0.028636  0  3.840228  0
C  C24  1  0.39455302  0.53032346  0.13662319  1  0  -0.140277  0  3.685549  0  0  -0.160515  0  3.936477  0  0  -0.166548  0  3.956386  0  0  -0.083294  -0.156622  0  3.923204  0
C  C25  1  0.86395391  0.46856878  0.86357439  1  0  -0.140836  0  3.683594  0  0  -0.161131  0  3.934228  0  0  -0.167284  0  3.954212  0  0  -0.083064  -0.15715  0  3.920898  0
C  C26  1  0.09515569  0.34301894  0.26498534  1  0  -0.124407  0  3.704487  0  0  -0.13987  0  3.951224  0  0  -0.146211  0  3.971761  0  0  -0.07452  -0.135914  0  3.937423  0
C  C27  1  0.74449583  0.65614962  0.73586260  1  0  -0.126206  0  3.707896  0  0  -0.140835  0  3.954196  0  0  -0.147103  0  3.974958  0  0  -0.075775  -0.136935  0  3.940246  0
C  C28  1  0.53956362  0.62548949  0.07978898  1  0  0.122709  0  3.731595  0  0  0.093956  0  3.988963  0  0  0.100184  0  4.008002  0  0  0.04182  0.089876  0  3.975977  0
C  C29  1  0.91410272  0.37242752  0.91999853  1  0  0.122398  0  3.736684  0  0  0.092871  0  3.993869  0  0  0.099141  0  4.012942  0  0  0.042126  0.088779  0  3.980834  0
C  C30  1  0.44391024  0.55566550  0.34600438  1  0  -0.117819  0  3.720484  0  0  -0.137105  0  3.974657  0  0  -0.142228  0  3.99348  0  0  -0.076629  -0.134021  0  3.962113  0
C  C31  1  0.89079888  0.44554049  0.65415663  1  0  -0.115438  0  3.715214  0  0  -0.134809  0  3.97032  0  0  -0.139798  0  3.988917  0  0  -0.076379  -0.131811  0  3.957958  0
C  C32  1  0.90415868  0.81058151  0.16085540  1  0  0.12321  0  3.748344  0  0  0.095143  0  4.00158  0  0  0.101486  0  4.02048  0  0  0.04091  0.090992  0  3.988723  0
C  C33  1  0.10033727  0.18857081  0.83834171  1  0  0.123558  0  3.746132  0  0  0.094795  0  4.000428  0  0  0.101198  0  4.019259  0  0  0.041202  0.090602  0  3.987624  0
C  C34  1  0.77335943  0.72357543  0.22074782  1  0  -0.147144  0  3.680098  0  0  -0.165815  0  3.925553  0  0  -0.171859  0  3.944751  0  0  -0.08447  -0.161938  0  3.912798  0
C  C35  1  0.05570893  0.27637328  0.77874884  1  0  -0.148658  0  3.681483  0  0  -0.168014  0  3.926362  0  0  -0.174186  0  3.945692  0  0  -0.084537  -0.164047  0  3.9135  0
C  C36  1  0.93381915  0.27183361  0.32586325  1  0  0.006143  0  3.606137  0  0  -0.034404  0  3.868203  0  0  -0.028142  0  3.881659  0  0  0.037274  -0.038214  0  3.859128  0
C  C37  1  0.65173180  0.72725269  0.67527319  1  0  0.002954  0  3.607696  0  0  -0.038505  0  3.870351  0  0  -0.032518  0  3.88404  0  0  0.036505  -0.04212  0  3.861107  0
N  N38  1  0.02028707  0.34418969  0.39535607  1  0  0.276988  0  3.724699  0  0  0.32767  0  3.98825  0  0  0.328365  0  4.010254  0  0  -0.108768  0.32658  0  3.97322  0
N  N39  1  0.66899492  0.65568683  0.60555215  1  0  0.276685  0  3.732027  0  0  0.328356  0  3.995399  0  0  0.329223  0  4.017445  0  0  -0.10927  0.327159  0  3.980349  0
N  N40  1  0.78969136  0.76387140  0.09119379  1  0  -0.356762  0  3.248137  0  0  -0.283265  0  3.50232  0  0  -0.303437  0  3.5262  0  0  -0.31079  -0.269363  0  3.485781  0
N  N41  1  0.02919948  0.23418800  0.90813768  1  0  -0.35615  0  3.247569  0  0  -0.282716  0  3.502384  0  0  -0.302843  0  3.526118  0  0  -0.310871  -0.268849  0  3.485949  0
Cl  Cl42  1  0.20421240  0.92578984  0.38627142  1  0  -0.626626  0  0.85721  0  0  -0.555656  0  1.102751  0  0  -0.579156  0  1.085611  0  0  -0.271488  -0.537698  0  1.114929  0
Cl  Cl43  1  0.27732677  0.08234424  0.60696665  1  0  -0.620876  0  0.855472  0  0  -0.55024  0  1.101644  0  0  -0.573278  0  1.083933  0  0  -0.269997  -0.532621  0  1.114251  0
Cl  Cl44  1  0.63108209  0.16736223  0.09378045  1  0  -0.606612  0  0.856425  0  0  -0.532315  0  1.103922  0  0  -0.554239  0  1.088333  0  0  -0.269826  -0.516429  0  1.114712  0
Cl  Cl45  1  0.46892968  0.83484958  0.90950435  1  0  -0.603955  0  0.858299  0  0  -0.530001  0  1.106512  0  0  -0.551663  0  1.090554  0  0  -0.268884  -0.514274  0  1.117499  0
O  O46  1  0.84794733  0.28626319  0.45317189  1  0  -0.555471  0  1.81892  0  0  -0.505335  0  2.058653  0  0  -0.533816  0  2.060538  0  0  -0.22113  -0.484768  0  2.056678  0
O  O47  1  0.55161761  0.71339597  0.54823096  1  0  -0.557858  0  1.816917  0  0  -0.509588  0  2.056819  0  0  -0.538156  0  2.059063  0  0  -0.222008  -0.488957  0  2.054571  0
