# generated using pymatgen
data_MgH5C5O4
_symmetry_space_group_name_H-M   'P 1'
_cell_length_a   6.87927267
_cell_length_b   15.15151329
_cell_length_c   15.14717069
_cell_angle_alpha   117.80371697
_cell_angle_beta   98.70685970
_cell_angle_gamma   98.69246217
_symmetry_Int_Tables_number   1
_chemical_formula_structural   MgH5C5O4
_chemical_formula_sum   'Mg6 H30 C30 O24'
_cell_volume   1335.31467708
_cell_formula_units_Z   6
loop_
 _symmetry_equiv_pos_site_id
 _symmetry_equiv_pos_as_xyz
  1  'x, y, z'
loop_
 _atom_site_type_symbol
 _atom_site_label
 _atom_site_symmetry_multiplicity
 _atom_site_fract_x
 _atom_site_fract_y
 _atom_site_fract_z
 _atom_site_occupancy
 _atom_site_pbe_bader_charge
 _atom_site_pbe_bader_spin_density
 _atom_site_pbe_cm5_charge
 _atom_site_pbe_ddec_charge
 _atom_site_pbe_ddec_spin_density
 _atom_site_pbe_ddec_sum_bond_order
 _atom_site_pbe_magmom
Mg  Mg0  1  0.62124972  0.32223398  0.58507514  1  1.684725  0  0.829628  1.360328  0  1.45593  0
Mg  Mg1  1  0.03595767  0.41476021  0.73687701  1  1.682625  0  0.83025  1.36005  0  1.456825  0
Mg  Mg2  1  0.29901859  0.26305958  0.67752606  1  1.684417  0  0.830157  1.360277  0  1.456469  0
Mg  Mg3  1  0.37875033  0.67776533  0.41492653  1  1.68471  0  0.82965  1.360368  0  1.455872  0
Mg  Mg4  1  0.96405194  0.58524064  0.26312337  1  1.682632  0  0.830222  1.359984  0  1.456927  0
Mg  Mg5  1  0.70098040  0.73694051  0.32247722  1  1.684371  0  0.830163  1.360311  0  1.456446  0
H  H6  1  0.86670450  0.56078853  0.02110529  1  0.101728  0  0.106325  0.1289  0  1.009674  0
H  H7  1  0.84569813  0.97903145  0.53992741  1  0.106175  0  0.106291  0.129009  0  1.008893  0
H  H8  1  0.30528432  0.45967357  0.43872411  1  0.105022  0  0.106298  0.128967  0  1.008801  0
H  H9  1  0.13330727  0.43920770  0.97889770  1  0.101883  0  0.106344  0.128897  0  1.009553  0
H  H10  1  0.15429642  0.02096555  0.46007810  1  0.10616  0  0.106334  0.129064  0  1.009006  0
H  H11  1  0.69471110  0.54031957  0.56126776  1  0.105039  0  0.106287  0.128994  0  1.008869  0
H  H12  1  0.50494999  0.28234818  0.35975919  1  0.071578  0  0.111767  0.117584  0  0.98545  0
H  H13  1  0.14562986  0.64035824  0.92233485  1  0.077067  0  0.11185  0.117905  0  0.984989  0
H  H14  1  0.22256762  0.07801718  0.71779698  1  0.07642  0  0.111718  0.117743  0  0.985325  0
H  H15  1  0.49502430  0.71765808  0.64025855  1  0.070668  0  0.111808  0.117601  0  0.985489  0
H  H16  1  0.85440296  0.35965109  0.07765783  1  0.076987  0  0.111778  0.117897  0  0.98498  0
H  H17  1  0.77741845  0.92198059  0.28220437  1  0.076395  0  0.11175  0.117774  0  0.985329  0
H  H18  1  0.61710601  0.18253162  0.28208327  1  0.048557  0  0.092643  0.082629  0  0.990161  0
H  H19  1  0.33527518  0.71765164  0.89984578  1  0.014502  0  0.092482  0.082746  0  0.989592  0
H  H20  1  0.43449723  0.10046534  0.81774204  1  0.053758  0  0.092817  0.083131  0  0.989943  0
H  H21  1  0.38285339  0.81747464  0.71791829  1  0.048368  0  0.092586  0.082447  0  0.990296  0
H  H22  1  0.66475958  0.28234997  0.10013682  1  0.014545  0  0.092459  0.082657  0  0.989647  0
H  H23  1  0.56548221  0.89953089  0.18226013  1  0.053385  0  0.092849  0.083052  0  0.989917  0
H  H24  1  0.76174038  0.31555487  0.35463452  1  0.061799  0  0.098168  0.09453  0  1.025476  0
H  H25  1  0.40752899  0.64533602  0.96047924  1  0.071358  0  0.098196  0.094713  0  1.02585  0
H  H26  1  0.44616174  0.03957498  0.68467995  1  0.071416  0  0.098301  0.095037  0  1.025005  0
H  H27  1  0.23822602  0.68445061  0.64536978  1  0.061403  0  0.098123  0.094488  0  1.025514  0
H  H28  1  0.59250628  0.35466945  0.03950916  1  0.070936  0  0.098156  0.094613  0  1.025902  0
H  H29  1  0.55382620  0.96042356  0.31532386  1  0.071272  0  0.098245  0.094915  0  1.025054  0
H  H30  1  0.85338444  0.25261632  0.45777041  1  0.600465  0  0.339028  0.368155  0  0.879877  0
H  H31  1  0.39527441  0.54180051  0.79422379  1  0.603331  0  0.339039  0.367587  0  0.880541  0
H  H32  1  0.60074866  0.20564356  0.74743631  1  0.601613  0  0.339372  0.367922  0  0.879398  0
H  H33  1  0.14660881  0.74737836  0.54222204  1  0.60045  0  0.33905  0.368199  0  0.879952  0
H  H34  1  0.60473932  0.45819416  0.20576144  1  0.603604  0  0.338969  0.367393  0  0.880802  0
H  H35  1  0.39924199  0.79435730  0.25257471  1  0.601601  0  0.339354  0.367964  0  0.879383  0
C  C36  1  0.67932334  0.43820422  0.82527831  1  1.503658  0  0.226551  0.639061  0  4.142496  0
C  C37  1  0.85393153  0.17468965  0.61261932  1  1.508857  0  0.227408  0.63975  0  4.140791  0
C  C38  1  0.24086995  0.38699582  0.56158000  1  1.504369  0  0.226626  0.640661  0  4.14373  0
C  C39  1  0.32069059  0.56179354  0.17471828  1  1.503566  0  0.226557  0.639134  0  4.14212  0
C  C40  1  0.14606039  0.82530812  0.38738044  1  1.509427  0  0.227379  0.639703  0  4.140681  0
C  C41  1  0.75912790  0.61300503  0.43841895  1  1.504366  0  0.226607  0.640668  0  4.144102  0
C  C42  1  0.58033725  0.46651799  0.91237977  1  -0.061367  0  -0.041454  -0.186377  0  3.996617  0
C  C43  1  0.66788306  0.08761547  0.55400821  1  -0.020788  0  -0.041922  -0.18672  0  3.998109  0
C  C44  1  0.11354087  0.44569482  0.53329131  1  -0.061128  0  -0.041765  -0.187322  0  3.998907  0
C  C45  1  0.41967579  0.53348364  0.08762913  1  -0.061824  0  -0.04139  -0.186319  0  3.996721  0
C  C46  1  0.33210518  0.91238384  0.44598872  1  -0.02121  0  -0.041867  -0.186649  0  3.998037  0
C  C47  1  0.88645705  0.55430604  0.46671358  1  -0.060824  0  -0.04179  -0.187345  0  3.998909  0
C  C48  1  0.70466177  0.53496990  0.01209284  1  -0.035051  0  -0.10714  -0.212998  0  3.96706  0
C  C49  1  0.69256905  0.98799064  0.52302473  1  -0.028769  0  -0.107372  -0.213093  0  3.966462  0
C  C50  1  0.16927035  0.47675176  0.46474834  1  -0.047092  0  -0.106833  -0.212211  0  3.966054  0
C  C51  1  0.29536527  0.46503327  0.98791704  1  -0.034773  0  -0.107199  -0.212959  0  3.966659  0
C  C52  1  0.30742658  0.01200867  0.47697533  1  -0.028494  0  -0.107441  -0.213236  0  3.966695  0
C  C53  1  0.83072679  0.52324755  0.53525578  1  -0.04728  0  -0.106799  -0.212271  0  3.966271  0
C  C54  1  0.36704711  0.42925142  0.89851093  1  0.606795  0  0.073006  0.319816  0  4.148941  0
C  C55  1  0.46846133  0.10138844  0.53046164  1  0.559654  0  0.073011  0.319681  0  4.150368  0
C  C56  1  0.93787269  0.46944132  0.57081129  1  0.618154  0  0.073142  0.319463  0  4.148555  0
C  C57  1  0.63297598  0.57074711  0.10148333  1  0.607234  0  0.072817  0.319673  0  4.148983  0
C  C58  1  0.53153684  0.89861010  0.46953691  1  0.559742  0  0.073046  0.319606  0  4.150428  0
C  C59  1  0.06212924  0.53056185  0.42918769  1  0.618378  0  0.073177  0.319395  0  4.148496  0
C  C60  1  0.64534033  0.25667068  0.35376249  1  0.369539  0  -0.137892  -0.111817  0  3.888447  0
C  C61  1  0.29183440  0.64612897  0.90245915  1  0.390796  0  -0.137505  -0.112474  0  3.888973  0
C  C62  1  0.38861634  0.09773669  0.74350529  1  0.348659  0  -0.137959  -0.113191  0  3.888551  0
C  C63  1  0.35463121  0.74333327  0.64624342  1  0.371122  0  -0.13786  -0.111624  0  3.888606  0
C  C64  1  0.70819488  0.35387342  0.09752477  1  0.391633  0  -0.137305  -0.112111  0  3.888772  0
C  C65  1  0.61136643  0.90226031  0.25649812  1  0.349341  0  -0.137949  -0.112969  0  3.888425  0
O  O66  1  0.56442596  0.38369643  0.73229315  1  -1.28269  0  -0.376653  -0.728645  0  2.416955  0
O  O67  1  0.83197978  0.26763693  0.65097656  1  -1.277159  0  -0.377766  -0.729407  0  2.416374  0
O  O68  1  0.18066540  0.34872080  0.61619884  1  -1.275669  0  -0.377447  -0.729781  0  2.418224  0
O  O69  1  0.43558230  0.61630751  0.26771188  1  -1.282866  0  -0.376681  -0.728803  0  2.416775  0
O  O70  1  0.16801436  0.73236238  0.34902208  1  -1.27748  0  -0.377751  -0.729383  0  2.416406  0
O  O71  1  0.81932979  0.65127466  0.38380136  1  -1.275603  0  -0.377393  -0.729737  0  2.418477  0
O  O72  1  0.87088140  0.46870390  0.84371321  1  -1.222198  0  -0.34624  -0.615098  0  2.208835  0
O  O73  1  0.02714529  0.15633104  0.62469169  1  -1.234371  0  -0.346193  -0.615239  0  2.2088  0
O  O74  1  0.40190966  0.37484287  0.53105192  1  -1.235787  0  -0.345485  -0.61543  0  2.208856  0
O  O75  1  0.12912668  0.53129387  0.15628629  1  -1.222106  0  -0.346277  -0.615106  0  2.208501  0
O  O76  1  0.97285267  0.84366982  0.37531650  1  -1.234427  0  -0.346194  -0.615215  0  2.208693  0
O  O77  1  0.59809402  0.62515490  0.46894729  1  -1.23577  0  -0.345494  -0.615413  0  2.208969  0
O  O78  1  0.23403383  0.36531252  0.80698584  1  -1.302239  0  -0.458268  -0.779221  0  2.387938  0
O  O79  1  0.42688898  0.19282852  0.55783470  1  -1.305288  0  -0.458391  -0.779807  0  2.385934  0
O  O80  1  0.86876370  0.44198812  0.63476521  1  -1.298492  0  -0.458533  -0.779466  0  2.385532  0
O  O81  1  0.76597700  0.63469373  0.19301583  1  -1.302172  0  -0.458234  -0.77917  0  2.387679  0
O  O82  1  0.57310662  0.80716771  0.44216721  1  -1.305342  0  -0.458435  -0.779812  0  2.386031  0
O  O83  1  0.13123859  0.55801274  0.36523667  1  -1.298537  0  -0.458535  -0.779414  0  2.385673  0
O  O84  1  0.70673683  0.24417292  0.44210142  1  -1.1453  0  -0.409652  -0.476414  0  2.354995  0
O  O85  1  0.26442866  0.55761082  0.80156548  1  -1.149837  0  -0.409647  -0.475363  0  2.355993  0
O  O86  1  0.46252503  0.19849145  0.75584623  1  -1.144161  0  -0.409874  -0.475465  0  2.354877  0
O  O87  1  0.29325510  0.75582485  0.55789899  1  -1.145402  0  -0.409653  -0.476458  0  2.355102  0
O  O88  1  0.73558966  0.44239003  0.19842624  1  -1.150469  0  -0.409651  -0.475331  0  2.356186  0
O  O89  1  0.53746038  0.80150786  0.24415910  1  -1.14429  0  -0.409892  -0.47558  0  2.354804  0
