# generated using pymatgen
data_CuH7C6N7
_symmetry_space_group_name_H-M   'P 1'
_cell_length_a   8.20745660
_cell_length_b   8.95288370
_cell_length_c   13.06946911
_cell_angle_alpha   90.00834358
_cell_angle_beta   89.92612402
_cell_angle_gamma   112.04012862
_symmetry_Int_Tables_number   1
_chemical_formula_structural   CuH7C6N7
_chemical_formula_sum   'Cu4 H28 C24 N28'
_cell_volume   890.16791899
_cell_formula_units_Z   4
loop_
 _symmetry_equiv_pos_site_id
 _symmetry_equiv_pos_as_xyz
  1  'x, y, z'
loop_
 _atom_site_type_symbol
 _atom_site_label
 _atom_site_symmetry_multiplicity
 _atom_site_fract_x
 _atom_site_fract_y
 _atom_site_fract_z
 _atom_site_occupancy
 _atom_site_pbe_cm5_charge
 _atom_site_pbe_ddec_charge
 _atom_site_pbe_ddec_spin_density
 _atom_site_pbe_ddec_sum_bond_order
 _atom_site_pbe_magmom
Cu  Cu0  1  0.90912759  0.91233246  0.89359759  1  0.750627  0.673899  0.001134  2.48093  0.001
Cu  Cu1  1  0.59051823  0.08722737  0.39727725  1  0.767391  0.705314  0.601779  2.466818  0.435
Cu  Cu2  1  0.09086794  0.08767680  0.10641332  1  0.750556  0.673799  -0.001097  2.480748  -0.001
Cu  Cu3  1  0.40948093  0.91277587  0.60272065  1  0.767406  0.705308  -0.601775  2.46675  -0.435
H  H4  1  0.26970047  0.54347472  0.90418812  1  0.105427  0.115825  -4.5e-05  1.025917  0.0
H  H5  1  0.23020289  0.45674166  0.40437142  1  0.106162  0.117357  0.001006  1.024129  0.001
H  H6  1  0.73029645  0.45652008  0.09581361  1  0.105405  0.115791  4.7e-05  1.025988  0.0
H  H7  1  0.76979871  0.54326158  0.59562801  1  0.10616  0.117349  -0.001007  1.024144  -0.001
H  H8  1  0.31925311  0.29956979  0.83855086  1  0.106277  0.10497  -8.9e-05  1.007284  0.0
H  H9  1  0.18054905  0.70047960  0.33873327  1  0.106041  0.105268  5.2e-05  1.008872  0.0
H  H10  1  0.68075088  0.70042742  0.16144934  1  0.106305  0.104983  8.9e-05  1.007366  0.0
H  H11  1  0.81945084  0.29952244  0.66126616  1  0.106017  0.105237  -5.1e-05  1.008863  0.0
H  H12  1  0.62780314  0.32029960  0.80577409  1  0.107675  0.114726  6.2e-05  1.010645  0.0
H  H13  1  0.87191293  0.67925270  0.30614009  1  0.107238  0.113938  0.000595  1.012402  0.001
H  H14  1  0.37220283  0.67970243  0.19422304  1  0.107664  0.114757  -6.1e-05  1.010642  0.0
H  H15  1  0.12808596  0.32074693  0.69386088  1  0.107242  0.113944  -0.000596  1.012407  -0.001
H  H16  1  0.87444641  0.58628332  0.83604660  1  0.113833  0.082894  -0.000565  1.043033  0.0
H  H17  1  0.62547054  0.41291034  0.33588446  1  0.114655  0.084199  0.001115  1.041664  0.002
H  H18  1  0.12555424  0.41372353  0.16395130  1  0.113852  0.082902  0.000566  1.04293  0.0
H  H19  1  0.37453079  0.58708928  0.66411497  1  0.11464  0.084182  -0.001116  1.041689  -0.002
H  H20  1  0.55751810  0.93452253  0.88754546  1  0.095975  0.140162  1.1e-05  1.019727  0.0
H  H21  1  0.94262803  0.06513662  0.38761087  1  0.09619  0.140062  -0.00023  1.021032  0.0
H  H22  1  0.44247836  0.06547710  0.11245703  1  0.095966  0.140145  -1.1e-05  1.019699  0.0
H  H23  1  0.05737379  0.93486421  0.61238856  1  0.096189  0.140053  0.000229  1.021003  0.0
H  H24  1  0.61132917  0.88643918  0.01125891  1  0.096516  0.143206  0.000102  1.009238  0.0
H  H25  1  0.88877174  0.11363948  0.51132655  1  0.096367  0.142086  -0.000186  1.011722  0.0
H  H26  1  0.38866827  0.11356286  0.98874129  1  0.096514  0.143241  -0.000102  1.009161  0.0
H  H27  1  0.11122764  0.88636135  0.48867517  1  0.096369  0.142098  0.000186  1.011721  0.0
H  H28  1  0.38727323  0.81086881  0.97008920  1  0.094333  0.143494  1.5e-05  1.019032  0.0
H  H29  1  0.11271352  0.18905284  0.46989571  1  0.09491  0.145219  -7.6e-05  1.017901  0.0
H  H30  1  0.61272372  0.18913202  0.02991253  1  0.094352  0.143474  -1.4e-05  1.018993  0.0
H  H31  1  0.88728830  0.81094798  0.53010449  1  0.0949  0.145217  7.5e-05  1.017871  0.0
C  C32  1  0.54490201  0.69163716  0.90413197  1  0.119403  0.31209  4e-06  3.936782  0.0
C  C33  1  0.95530269  0.30816071  0.40395988  1  0.119399  0.312393  0.000895  3.940967  0.0
C  C34  1  0.45510103  0.30836367  0.09587281  1  0.119331  0.311944  -3e-06  3.936931  0.0
C  C35  1  0.04470035  0.69184012  0.59604031  1  0.11934  0.312289  -0.000895  3.940996  0.0
C  C36  1  0.40157450  0.54774851  0.88769261  1  -0.084772  -0.178502  0.000136  3.904821  0.0
C  C37  1  0.09844257  0.45220491  0.38764746  1  -0.084749  -0.177796  0.004207  3.904436  0.004
C  C38  1  0.59842805  0.45225111  0.11230606  1  -0.084699  -0.178336  -0.000135  3.904979  0.0
C  C39  1  0.90155975  0.54779712  0.61235197  1  -0.084746  -0.177773  -0.004207  3.904495  -0.004
C  C40  1  0.42942217  0.41301327  0.85108157  1  -0.066495  -0.011276  2.6e-05  3.950353  0.0
C  C41  1  0.07044884  0.58688300  0.35113850  1  -0.066388  -0.010998  -0.002197  3.950287  -0.002
C  C42  1  0.57058402  0.58698634  0.14892245  1  -0.066539  -0.011408  -2.5e-05  3.950611  0.0
C  C43  1  0.92955176  0.41311782  0.64886016  1  -0.06635  -0.010931  0.002198  3.950227  0.002
C  C44  1  0.60063529  0.42383097  0.83243566  1  -0.084815  -0.128617  0.000299  3.970762  0.0
C  C45  1  0.89924681  0.57572640  0.33243164  1  -0.084439  -0.128722  0.003906  3.971694  0.004
C  C46  1  0.39936874  0.57617226  0.16756300  1  -0.084806  -0.128577  -0.000297  3.970846  0.0
C  C47  1  0.10075429  0.42427563  0.66756855  1  -0.084434  -0.12874  -0.003905  3.971715  -0.004
C  C48  1  0.73794649  0.57039641  0.84913852  1  0.043829  0.092732  -0.000303  3.948132  0.0
C  C49  1  0.76200283  0.42896207  0.34891985  1  0.044325  0.094674  -0.000207  3.94599  -0.001
C  C50  1  0.26205633  0.42960683  0.15086244  1  0.043774  0.092642  0.000304  3.948036  0.0
C  C51  1  0.23799899  0.57103875  0.65107958  1  0.044338  0.094694  0.000208  3.945986  0.001
C  C52  1  0.52325993  0.83865025  0.94569234  1  -0.245555  -0.471949  6e-05  3.941125  0.0
C  C53  1  0.97681315  0.16117077  0.44559348  1  -0.245856  -0.473039  0.000895  3.943027  0.002
C  C54  1  0.47673725  0.16134817  0.05431015  1  -0.245558  -0.471923  -6.1e-05  3.941033  0.0
C  C55  1  0.02318769  0.83882764  0.55440672  1  -0.245817  -0.472983  -0.000896  3.942987  -0.002
N  N56  1  0.95368841  0.86577024  0.04747831  1  -0.334748  -0.517525  -0.000588  3.180856  -0.001
N  N57  1  0.54954187  0.13747053  0.54824062  1  -0.349685  -0.542598  0.012446  3.220162  0.015
N  N58  1  0.04630664  0.13423783  0.95252265  1  -0.334652  -0.51756  0.000578  3.180851  0.001
N  N59  1  0.45045850  0.86253271  0.45175957  1  -0.349665  -0.542507  -0.012463  3.219782  -0.015
N  N60  1  0.00682275  0.75792046  0.06503505  1  0.100168  0.416809  -2.4e-05  4.390626  0.0
N  N61  1  0.49312180  0.24310750  0.56494515  1  0.096486  0.422588  2.5e-05  4.404842  -0.001
N  N62  1  0.99316622  0.24208761  0.93495444  1  0.100045  0.416839  2.4e-05  4.390912  0.0
N  N63  1  0.50688173  0.75689453  0.43505351  1  0.096514  0.422569  -2.4e-05  4.404679  0.001
N  N64  1  0.05731205  0.65545225  0.08130078  1  -0.116599  -0.271416  -0.000393  2.578489  0.0
N  N65  1  0.44164643  0.34490535  0.58153500  1  -0.126466  -0.287166  0.013106  2.582374  0.014
N  N66  1  0.94268126  0.34454859  0.91868182  1  -0.116536  -0.271406  0.000386  2.578696  0.0
N  N67  1  0.55835444  0.65509909  0.41846367  1  -0.126505  -0.2872  -0.013126  2.582613  -0.014
N  N68  1  0.13113012  0.84834157  0.84445170  1  -0.228569  -0.416969  -0.067888  2.852207  -0.072
N  N69  1  0.36900499  0.15162322  0.34504472  1  -0.228192  -0.420699  -0.000426  2.84609  0.001
N  N70  1  0.86887426  0.15163876  0.15555232  1  -0.228483  -0.416633  0.067829  2.853579  0.072
N  N71  1  0.63099041  0.84836194  0.65495318  1  -0.228222  -0.420786  0.000427  2.845709  -0.001
N  N72  1  0.24293996  0.92541739  0.78801917  1  0.084041  0.43375  -0.000342  4.460894  0.006
N  N73  1  0.25736091  0.07340914  0.28907238  1  0.082869  0.432392  -0.001064  4.461065  -0.001
N  N74  1  0.75708063  0.07458462  0.21197183  1  0.084125  0.433714  0.000353  4.461466  -0.006
N  N75  1  0.74263939  0.92658204  0.71093700  1  0.08282  0.432343  0.001063  4.461356  0.001
N  N76  1  0.35833435  0.00609055  0.73242479  1  -0.296747  -0.489799  -0.046969  2.949037  -0.056
N  N77  1  0.14196779  0.99151298  0.23401183  1  -0.298647  -0.487651  -0.000622  2.956697  -0.001
N  N78  1  0.64165917  0.99390787  0.26757617  1  -0.296877  -0.490018  0.047022  2.948456  0.056
N  N79  1  0.85801785  0.00847218  0.76599832  1  -0.298562  -0.487538  0.000621  2.957358  0.001
N  N80  1  0.71030835  0.70085760  0.88313477  1  -0.354307  -0.286317  0.001705  3.59808  0.002
N  N81  1  0.79004237  0.29870397  0.38275560  1  -0.353124  -0.28902  0.054495  3.596406  0.066
N  N82  1  0.28969666  0.29914805  0.11686619  1  -0.354263  -0.28622  -0.001705  3.598006  -0.002
N  N83  1  0.20996067  0.70129685  0.61724383  1  -0.353095  -0.288967  -0.054491  3.596326  -0.066
