# generated using pymatgen
data_Zn2H18C24N3O8
_symmetry_space_group_name_H-M   'P 1'
_cell_length_a   9.67343849
_cell_length_b   10.89690682
_cell_length_c   12.07700000
_cell_angle_alpha   83.79202909
_cell_angle_beta   79.09158029
_cell_angle_gamma   72.65111893
_symmetry_Int_Tables_number   1
_chemical_formula_structural   Zn2H18C24N3O8
_chemical_formula_sum   'Zn4 H36 C48 N6 O16'
_cell_volume   1191.35495749
_cell_formula_units_Z   2
loop_
 _symmetry_equiv_pos_site_id
 _symmetry_equiv_pos_as_xyz
  1  'x, y, z'
loop_
 _atom_site_type_symbol
 _atom_site_label
 _atom_site_symmetry_multiplicity
 _atom_site_fract_x
 _atom_site_fract_y
 _atom_site_fract_z
 _atom_site_occupancy
 _atom_site_hle17_bader_spin_density
 _atom_site_hle17_ddec_charge
 _atom_site_hle17_ddec_spin_density
 _atom_site_hle17_ddec_sum_bond_order
 _atom_site_hle17_magmom
 _atom_site_hse06_10hf_bader_spin_density
 _atom_site_hse06_10hf_ddec_charge
 _atom_site_hse06_10hf_ddec_spin_density
 _atom_site_hse06_10hf_ddec_sum_bond_order
 _atom_site_hse06_10hf_magmom
 _atom_site_hse06_bader_spin_density
 _atom_site_hse06_ddec_charge
 _atom_site_hse06_ddec_spin_density
 _atom_site_hse06_ddec_sum_bond_order
 _atom_site_hse06_magmom
 _atom_site_pbe_bader_charge
 _atom_site_pbe_bader_spin_density
 _atom_site_pbe_cm5_charge
 _atom_site_pbe_ddec_charge
 _atom_site_pbe_ddec_spin_density
 _atom_site_pbe_ddec_sum_bond_order
 _atom_site_pbe_magmom
Zn  Zn0  1  0.09715585  0.13176375  0.37555856  1  0  1.065856  0  1.842163  0  0  0.886189  0  2.328291  0  0  0.935162  0  2.265846  0  1.295192  0  0.696171  0.851752  0  2.37162  0
Zn  Zn1  1  0.90284390  0.86823529  0.62444116  1  0  1.06589  0  1.842104  0  0  0.886227  0  2.32824  0  0  0.935197  0  2.265794  0  1.295199  0  0.696172  0.851787  0  2.371565  0
Zn  Zn2  1  0.39195242  0.06618085  0.16429469  1  0  1.143027  0  1.837799  0  0  0.970665  0  2.330729  0  0  1.01992  0  2.26378  0  1.361109  0  0.701321  0.934966  0  2.377788  0
Zn  Zn3  1  0.60804839  0.93381818  0.83570486  1  0  1.143037  0  1.837775  0  0  0.970687  0  2.330707  0  0  1.019944  0  2.263753  0  1.361118  0  0.701345  0.934987  0  2.377764  0
H  H4  1  0.22266286  0.92152488  0.58816511  1  0  0.134438  0  0.906178  0  0  0.145041  0  0.963704  0  0  0.148068  0  0.959654  0  0.208532  0  0.157632  0.142625  0  0.966907  0
H  H5  1  0.77733658  0.07847512  0.41183374  1  0  0.134436  0  0.906177  0  0  0.145049  0  0.963697  0  0  0.148075  0  0.959647  0  0.208685  0  0.157642  0.142633  0  0.9669  0
H  H6  1  0.61967657  0.84872122  0.35269574  1  0  0.13454  0  0.895685  0  0  0.145382  0  0.951576  0  0  0.148078  0  0.948791  0  0.229214  0  0.157966  0.143198  0  0.95388  0
H  H7  1  0.38032256  0.15127974  0.64730306  1  0  0.134537  0  0.895687  0  0  0.145379  0  0.951587  0  0  0.148073  0  0.948802  0  0.229206  0  0.157956  0.143193  0  0.953892  0
H  H8  1  0.46644330  0.76213851  0.65583019  1  0  0.105658  0  0.910489  0  0  0.120211  0  0.968374  0  0  0.121632  0  0.967075  0  0.103726  0  0.121952  0.119087  0  0.969366  0
H  H9  1  0.53355614  0.23786148  0.34416948  1  0  0.105642  0  0.910523  0  0  0.120205  0  0.968409  0  0  0.121626  0  0.967112  0  0.103703  0  0.121948  0.119081  0  0.969401  0
H  H10  1  0.63251991  0.74319545  0.55813558  1  0  0.113344  0  0.922727  0  0  0.124024  0  0.988423  0  0  0.125369  0  0.987457  0  0.127436  0  0.12077  0.122995  0  0.989071  0
H  H11  1  0.36747954  0.25680455  0.44186243  1  0  0.113349  0  0.922682  0  0  0.124053  0  0.988361  0  0  0.125398  0  0.987396  0  0.127425  0  0.120762  0.123022  0  0.989011  0
H  H12  1  0.72773734  0.56832185  0.43808923  1  0  0.104828  0  0.947766  0  0  0.115816  0  1.007931  0  0  0.118914  0  1.006191  0  0.095427  0  0.104363  0.113028  0  1.01017  0
H  H13  1  0.27226242  0.43167718  0.56191132  1  0  0.104813  0  0.94777  0  0  0.115798  0  1.007941  0  0  0.118896  0  1.006201  0  0.095408  0  0.104354  0.11301  0  1.010179  0
H  H14  1  0.28648606  0.63775344  0.62261256  1  0  0.094514  0  0.942792  0  0  0.108219  0  0.999035  0  0  0.110735  0  0.998175  0  0.050233  0  0.104116  0.106237  0  1.000034  0
H  H15  1  0.71351265  0.36224559  0.37738814  1  0  0.094515  0  0.942818  0  0  0.108226  0  0.999058  0  0  0.110742  0  0.998198  0  0.050222  0  0.104115  0.106243  0  1.000056  0
H  H16  1  0.44530021  0.43394673  0.15371498  1  0  0.097954  0  0.954538  0  0  0.108881  0  1.016822  0  0  0.112298  0  1.014278  0  0.064499  0  0.102185  0.106306  0  1.018789  0
H  H17  1  0.55470153  0.56604942  0.84628969  1  0  0.098001  0  0.954547  0  0  0.108968  0  1.016774  0  0  0.112356  0  1.014264  0  0.064497  0  0.102224  0.106389  0  1.018738  0
H  H18  1  0.26693953  0.78221491  0.33263851  1  0  0.098176  0  0.965381  0  0  0.106111  0  1.032208  0  0  0.108809  0  1.031314  0  0.087738  0  0.098165  0.104272  0  1.032617  0
H  H19  1  0.73306065  0.21778605  0.66736095  1  0  0.098172  0  0.965383  0  0  0.106113  0  1.032207  0  0  0.108812  0  1.031313  0  0.087746  0  0.098168  0.104275  0  1.032615  0
H  H20  1  0.02290637  0.50538018  0.36696487  1  0  0.109984  0  0.942849  0  0  0.119299  0  1.005037  0  0  0.123037  0  1.002081  0  0.087781  0  0.106334  0.116213  0  1.00818  0
H  H21  1  0.97709276  0.49462078  0.63303558  1  0  0.109966  0  0.942859  0  0  0.119288  0  1.005039  0  0  0.123025  0  1.002084  0  0.087788  0  0.106331  0.116202  0  1.008182  0
H  H22  1  0.59371808  0.61772808  0.22710032  1  0  0.10358  0  0.950331  0  0  0.125697  0  1.01192  0  0  0.126109  0  1.013305  0  0.039265  0  0.087734  0.12498  0  1.011761  0
H  H23  1  0.40628242  0.38227192  0.77289920  1  0  0.103584  0  0.950329  0  0  0.125699  0  1.01192  0  0  0.126112  0  1.013305  0  0.039269  0  0.087735  0.124982  0  1.011761  0
H  H24  1  0.47728632  0.76517742  0.17827450  1  0  0.115071  0  0.971085  0  0  0.132119  0  1.039824  0  0  0.133805  0  1.039321  0  0.066222  0  0.088153  0.130762  0  1.040293  0
H  H25  1  0.52271344  0.23482162  0.82172605  1  0  0.115161  0  0.970999  0  0  0.132212  0  1.039718  0  0  0.133897  0  1.039216  0  0.066206  0  0.088187  0.130855  0  1.040188  0
H  H26  1  0.54140924  0.63160631  0.09245950  1  0  0.112768  0  0.939313  0  0  0.13587  0  0.995694  0  0  0.137248  0  0.995204  0  0.037135  0  0.092113  0.134861  0  0.995893  0
H  H27  1  0.45858841  0.36839272  0.90754136  1  0  0.112817  0  0.939344  0  0  0.135917  0  0.995713  0  0  0.137296  0  0.995223  0  0.037114  0  0.092133  0.134909  0  0.995913  0
H  H28  1  0.26230834  0.80020952  0.04495147  1  0  0.111055  0  0.934419  0  0  0.125018  0  0.989193  0  0  0.127851  0  0.987783  0  0.060208  0  0.109531  0.122902  0  0.990341  0
H  H29  1  0.73769352  0.19978951  0.95504793  1  0  0.111076  0  0.934413  0  0  0.125038  0  0.989185  0  0  0.12787  0  0.987775  0  0.060231  0  0.109536  0.122921  0  0.990334  0
H  H30  1  0.89052312  0.72855846  0.94365329  1  0  0.10421  0  0.950951  0  0  0.113375  0  1.013416  0  0  0.116693  0  1.011195  0  0.098352  0  0.103557  0.110975  0  1.014989  0
H  H31  1  0.10947800  0.27143962  0.05634714  1  0  0.10423  0  0.950985  0  0  0.11342  0  1.013417  0  0  0.11674  0  1.011194  0  0.098337  0  0.103566  0.111021  0  1.014989  0
H  H32  1  0.82413895  0.00149056  0.19355599  1  0  0.103825  0  0.952011  0  0  0.110091  0  1.020061  0  0  0.114413  0  1.015952  0  0.106589  0  0.102324  0.107005  0  1.022903  0
H  H33  1  0.17586291  0.99850847  0.80644341  1  0  0.10382  0  0.952024  0  0  0.110092  0  1.020062  0  0  0.114414  0  1.015954  0  0.106561  0  0.102335  0.107006  0  1.022903  0
H  H34  1  0.23662774  0.55862933  0.95704394  1  0  0.108825  0  0.944315  0  0  0.130337  0  1.004732  0  0  0.130934  0  1.00568  0  0.046284  0  0.092338  0.129892  0  1.003978  0
H  H35  1  0.76337022  0.44136874  0.04295614  1  0  0.108826  0  0.944336  0  0  0.130348  0  1.004743  0  0  0.130947  0  1.005691  0  0.046298  0  0.092335  0.129904  0  1.00399  0
H  H36  1  0.28557753  0.68236349  0.86516752  1  0  0.105449  0  0.944517  0  0  0.127446  0  1.004367  0  0  0.12888  0  1.003757  0  0.038096  0  0.090841  0.126378  0  1.004847  0
H  H37  1  0.71442465  0.31763459  0.13483358  1  0  0.10542  0  0.94457  0  0  0.127424  0  1.004411  0  0  0.128856  0  1.003805  0  0.038093  0  0.090813  0.126357  0  1.004891  0
H  H38  1  0.13503951  0.62808692  0.84643956  1  0  0.116172  0  0.941778  0  0  0.137223  0  0.999851  0  0  0.13913  0  0.999035  0  0.042224  0  0.092519  0.135595  0  1.000899  0
H  H39  1  0.86495962  0.37191404  0.15356007  1  0  0.116166  0  0.941795  0  0  0.137209  0  0.999868  0  0  0.139118  0  0.999051  0  0.042203  0  0.092506  0.135581  0  1.000916  0
C  C40  1  0.30316345  0.92625655  0.51299744  1  0  0.198636  0  3.57218  0  0  0.129907  0  3.845766  0  0  0.14542  0  3.854745  0  1.00337  0  0.183699  0.119928  0  3.839399  0
C  C41  1  0.69683568  0.07374441  0.48700136  1  0  0.198749  0  3.572046  0  0  0.130005  0  3.845657  0  0  0.145519  0  3.854635  0  1.003191  0  0.183711  0.120026  0  3.839292  0
C  C42  1  0.50628247  0.88973003  0.39113871  1  0  0.176354  0  3.586172  0  0  0.110149  0  3.863508  0  0  0.122929  0  3.875269  0  0.956848  0  0.172301  0.102051  0  3.854908  0
C  C43  1  0.49371666  0.11027093  0.60886091  1  0  0.176348  0  3.586141  0  0  0.110136  0  3.863493  0  0  0.122919  0  3.875251  0  0.95686  0  0.172303  0.102041  0  3.854893  0
C  C44  1  0.51768872  0.74256956  0.56808237  1  0  -0.047538  0  3.609691  0  0  -0.115336  0  3.862363  0  0  -0.110465  0  3.87241  0  0.234564  0  -0.042376  -0.118226  0  3.855105  0
C  C45  1  0.48231103  0.25742947  0.43191652  1  0  -0.047468  0  3.609578  0  0  -0.1153  0  3.86229  0  0  -0.110434  0  3.872343  0  0.23454  0  -0.042366  -0.118188  0  3.855032  0
C  C46  1  0.50835112  0.61621633  0.53416780  1  0  0.058043  0  3.754692  0  0  0.077026  0  3.998461  0  0  0.075081  0  4.024957  0  -0.008984  0  -0.014859  0.078264  0  3.980407  0
C  C47  1  0.49164696  0.38378463  0.46583115  1  0  0.058042  0  3.754571  0  0  0.07701  0  3.998392  0  0  0.075066  0  4.024889  0  -0.00893  0  -0.014876  0.078248  0  3.980338  0
C  C48  1  0.62766571  0.53840176  0.46446066  1  0  -0.104104  0  3.72977  0  0  -0.123675  0  3.976993  0  0  -0.126611  0  3.999737  0  -0.088727  0  -0.083039  -0.121589  0  3.961926  0
C  C49  1  0.37233163  0.46159823  0.53553850  1  0  -0.104114  0  3.72969  0  0  -0.123678  0  3.97692  0  0  -0.126613  0  3.999662  0  -0.088701  0  -0.083024  -0.121592  0  3.961853  0
C  C50  1  0.38078614  0.57715932  0.56940203  1  0  -0.095611  0  3.735189  0  0  -0.117543  0  3.986229  0  0  -0.120005  0  4.008619  0  0.027318  0  -0.084722  -0.116108  0  3.971486  0
C  C51  1  0.61921299  0.42284164  0.43059759  1  0  -0.095626  0  3.735278  0  0  -0.11756  0  3.986334  0  0  -0.120024  0  4.008726  0  0.027332  0  -0.08471  -0.116124  0  3.971591  0
C  C52  1  0.23583210  0.32135040  0.24808376  1  0  0.665548  0  3.884267  0  0  0.614321  0  4.172765  0  0  0.650214  0  4.164378  0  1.549662  0  0.220552  0.59008  0  4.177324  0
C  C53  1  0.76416703  0.67865056  0.75191669  1  0  0.66561  0  3.884192  0  0  0.614374  0  4.172697  0  0  0.650267  0  4.164311  0  1.549755  0  0.220576  0.590132  0  4.177258  0
C  C54  1  0.23490398  0.45626956  0.25939989  1  0  -0.080897  0  3.796973  0  0  -0.053766  0  4.031516  0  0  -0.064477  0  4.057136  0  -0.006587  0  -0.024893  -0.046912  0  4.014304  0
C  C55  1  0.76509682  0.54372947  0.74060298  1  0  -0.080863  0  3.796907  0  0  -0.053736  0  4.03146  0  0  -0.064445  0  4.057074  0  -0.006609  0  -0.024912  -0.046883  0  4.014251  0
C  C56  1  0.35769110  0.49764427  0.20959956  1  0  -0.117428  0  3.693827  0  0  -0.151592  0  3.936401  0  0  -0.150889  0  3.956814  0  -0.04331  0  -0.082443  -0.151552  0  3.922247  0
C  C57  1  0.64230928  0.50235284  0.79040356  1  0  -0.117511  0  3.693897  0  0  -0.1517  0  3.936461  0  0  -0.150975  0  3.956891  0  -0.043314  0  -0.082465  -0.15166  0  3.922295  0
C  C58  1  0.37011049  0.61648209  0.23276100  1  0  0.134544  0  3.7644  0  0  0.166522  0  4.002807  0  0  0.164603  0  4.028214  0  -0.005153  0  -0.006866  0.167767  0  3.985001  0
C  C59  1  0.62989063  0.38351598  0.76724109  1  0  0.134524  0  3.764413  0  0  0.166497  0  4.002846  0  0  0.16458  0  4.028246  0  -0.005183  0  -0.006886  0.167766  0  3.985007  0
C  C60  1  0.25781630  0.69150812  0.30949591  1  0  -0.099204  0  3.664267  0  0  -0.135297  0  3.913289  0  0  -0.134103  0  3.93312  0  0.019892  0  -0.080062  -0.135654  0  3.899172  0
C  C61  1  0.74218419  0.30849188  0.69050443  1  0  -0.099176  0  3.664197  0  0  -0.135263  0  3.913255  0  0  -0.134069  0  3.933085  0  0.019877  0  -0.080057  -0.135628  0  3.899131  0
C  C62  1  0.13148164  0.65418817  0.35589689  1  0  -0.062338  0  3.769133  0  0  -0.035565  0  4.002489  0  0  -0.044864  0  4.026304  0  -0.129654  0  -0.018103  -0.029613  0  3.986488  0
C  C63  1  0.86851780  0.34581183  0.64410361  1  0  -0.062318  0  3.769065  0  0  -0.035614  0  4.002529  0  0  -0.044911  0  4.026345  0  -0.129644  0  -0.018107  -0.029661  0  3.98653  0
C  C64  1  0.11892298  0.53684380  0.32925571  1  0  -0.061348  0  3.690379  0  0  -0.099661  0  3.935305  0  0  -0.096968  0  3.954664  0  0.017841  0  -0.075405  -0.101863  0  3.923626  0
C  C65  1  0.88107752  0.46315620  0.67074546  1  0  -0.06133  0  3.690269  0  0  -0.099627  0  3.935218  0  0  -0.096935  0  3.954578  0  0.017844  0  -0.075401  -0.10183  0  3.92354  0
C  C66  1  0.50220603  0.66025538  0.17987080  1  0  -0.33903  0  3.727914  0  0  -0.420742  0  3.961603  0  0  -0.422767  0  3.972154  0  -0.061541  0  -0.244384  -0.418849  0  3.954138  0
C  C67  1  0.49779372  0.33974366  0.82013057  1  0  -0.339196  0  3.727943  0  0  -0.420893  0  3.96161  0  0  -0.422918  0  3.972161  0  -0.061511  0  -0.244442  -0.419008  0  3.954139  0
C  C68  1  0.01324372  0.73435606  0.43931985  1  0  0.649732  0  3.903186  0  0  0.606161  0  4.186954  0  0  0.640176  0  4.180099  0  1.545852  0  0.201699  0.583131  0  4.190498  0
C  C69  1  0.98675572  0.26564394  0.56067982  1  0  0.64972  0  3.903173  0  0  0.606171  0  4.186945  0  0  0.640185  0  4.180093  0  1.545856  0  0.201701  0.58314  0  4.190489  0
C  C70  1  0.10954801  0.97774360  0.19570851  1  0  0.679765  0  3.870271  0  0  0.62628  0  4.162026  0  0  0.661987  0  4.154787  0  1.521904  0  0.226257  0.602063  0  4.165885  0
C  C71  1  0.89045280  0.02225543  0.80429187  1  0  0.679884  0  3.870045  0  0  0.626387  0  4.161832  0  0  0.662095  0  4.154589  0  1.521993  0  0.226275  0.60217  0  4.165691  0
C  C72  1  0.04967713  0.90488025  0.12852869  1  0  -0.079227  0  3.794908  0  0  -0.053588  0  4.033258  0  0  -0.06496  0  4.059474  0  0.036724  0  -0.021024  -0.046362  0  4.015757  0
C  C73  1  0.95032504  0.09511782  0.87147158  1  0  -0.079196  0  3.794857  0  0  -0.053549  0  4.033213  0  0  -0.064919  0  4.059426  0  0.036619  0  -0.021034  -0.046322  0  4.015714  0
C  C74  1  0.14434037  0.81560721  0.05281666  1  0  -0.092839  0  3.649782  0  0  -0.128679  0  3.89398  0  0  -0.127015  0  3.914096  0  -0.012819  0  -0.072741  -0.129545  0  3.880265  0
C  C75  1  0.85566149  0.18439183  0.94718273  1  0  -0.092863  0  3.649769  0  0  -0.128686  0  3.893977  0  0  -0.127022  0  3.914093  0  -0.012793  0  -0.072717  -0.129553  0  3.880263  0
C  C76  1  0.08934715  0.74817170  0.98761788  1  0  0.13648  0  3.746565  0  0  0.167788  0  3.98496  0  0  0.165356  0  4.010673  0  0.067971  0  -0.006782  0.16923  0  3.967395  0
C  C77  1  0.91065261  0.25182734  0.01238184  1  0  0.136513  0  3.746465  0  0  0.167774  0  3.984929  0  0  0.165342  0  4.010642  0  0.067965  0  -0.006786  0.169217  0  3.967366  0
C  C78  1  0.93685434  0.77602252  0.99623556  1  0  -0.102902  0  3.670143  0  0  -0.13549  0  3.910061  0  0  -0.134315  0  3.929726  0  -0.073067  0  -0.077925  -0.136037  0  3.896692  0
C  C79  1  0.06314752  0.22397651  0.00376550  1  0  -0.102939  0  3.670033  0  0  -0.135523  0  3.909953  0  0  -0.13435  0  3.929618  0  -0.073014  0  -0.077937  -0.136072  0  3.896586  0
C  C80  1  0.84160940  0.86751985  0.06946218  1  0  -0.083273  0  3.799199  0  0  -0.05746  0  4.034534  0  0  -0.067963  0  4.059155  0  -0.083497  0  -0.025501  -0.05078  0  4.017882  0
C  C81  1  0.15839351  0.13247918  0.93053706  1  0  -0.083262  0  3.799137  0  0  -0.057432  0  4.034474  0  0  -0.067936  0  4.059095  0  -0.083548  0  -0.025459  -0.050752  0  4.017822  0
C  C82  1  0.89836025  0.92977209  0.13744314  1  0  -0.057221  0  3.714087  0  0  -0.098517  0  3.96646  0  0  -0.09504  0  3.985316  0  -0.030932  0  -0.077914  -0.100318  0  3.95372  0
C  C83  1  0.10164088  0.07022598  0.86255646  1  0  -0.057295  0  3.714165  0  0  -0.098605  0  3.966549  0  0  -0.09513  0  3.985405  0  -0.030944  0  -0.077969  -0.100406  0  3.953808  0
C  C84  1  0.67984855  0.90677619  0.07133110  1  0  0.679074  0  3.883104  0  0  0.628279  0  4.168502  0  0  0.664059  0  4.160061  0  1.574831  0  0.218876  0.604173  0  4.1727  0
C  C85  1  0.32015332  0.09322284  0.92866830  1  0  0.679108  0  3.883119  0  0  0.628275  0  4.168572  0  0  0.664056  0  4.160128  0  1.574857  0  0.218853  0.604169  0  4.172771  0
C  C86  1  0.19171231  0.64936020  0.90944006  1  0  -0.333108  0  3.734207  0  0  -0.41284  0  3.965438  0  0  -0.414838  0  3.975866  0  -0.064063  0  -0.236579  -0.411084  0  3.958156  0
C  C87  1  0.80828850  0.35063883  0.09055949  1  0  -0.33307  0  3.734258  0  0  -0.412795  0  3.965482  0  0  -0.414794  0  3.975911  0  -0.064037  0  -0.236517  -0.411036  0  3.95819  0
N  N88  1  0.27979696  0.00559924  0.42299296  1  0  -0.27583  0  3.264977  0  0  -0.209242  0  3.57664  0  0  -0.225921  0  3.587151  0  -0.784743  0  -0.240697  -0.198053  0  3.569607  0
N  N89  1  0.72020112  0.99440172  0.57700682  1  0  -0.275967  0  3.264964  0  0  -0.209385  0  3.576656  0  0  -0.226063  0  3.587164  0  -0.784699  0  -0.240742  -0.198195  0  3.569623  0
N  N90  1  0.40731919  0.98288836  0.34624490  1  0  -0.249015  0  3.139018  0  0  -0.20475  0  3.434655  0  0  -0.217325  0  3.448801  0  -0.729539  0  -0.219734  -0.196251  0  3.424986  0
N  N91  1  0.59268100  0.01711260  0.65375456  1  0  -0.24892  0  3.139021  0  0  -0.204637  0  3.434636  0  0  -0.217212  0  3.448782  0  -0.729516  0  -0.219688  -0.196139  0  3.424966  0
N  N92  1  0.44506480  0.85185738  0.49576675  1  0  -0.077818  0  3.506406  0  0  0.013259  0  3.739427  0  0  -0.003729  0  3.763096  0  -1.234227  0  -0.221017  0.024484  0  3.722498  0
N  N93  1  0.55493569  0.14814262  0.50423276  1  0  -0.077914  0  3.506397  0  0  0.013172  0  3.739452  0  0  -0.003816  0  3.763121  0  -1.234264  0  -0.221014  0.024396  0  3.722525  0
O  O94  1  0.11703738  0.28976065  0.28266766  1  0  -0.648988  0  2.077996  0  0  -0.57837  0  2.351182  0  0  -0.605629  0  2.332988  0  -1.188371  0  -0.323951  -0.559223  0  2.36297  0
O  O95  1  0.88296132  0.71023838  0.71733221  1  0  -0.649035  0  2.078001  0  0  -0.578404  0  2.351175  0  0  -0.60566  0  2.33298  0  -1.188393  0  -0.323946  -0.559256  0  2.362963  0
O  O96  1  0.35888654  0.24396625  0.20864876  1  0  -0.639664  0  2.104377  0  0  -0.570858  0  2.379485  0  0  -0.598763  0  2.362582  0  -1.172883  0  -0.312612  -0.55156  0  2.390463  0
O  O97  1  0.64111006  0.75603279  0.79135226  1  0  -0.639714  0  2.104356  0  0  -0.570904  0  2.37948  0  0  -0.598808  0  2.362572  0  -1.172936  0  -0.31264  -0.551604  0  2.390456  0
O  O98  1  0.05763592  0.80592046  0.49737290  1  0  -0.674631  0  2.016135  0  0  -0.602967  0  2.290816  0  0  -0.633363  0  2.276067  0  -1.158736  0  -0.345815  -0.581622  0  2.300428  0
O  O99  1  0.94236321  0.19408050  0.50262756  1  0  -0.674621  0  2.01615  0  0  -0.602956  0  2.290817  0  0  -0.63335  0  2.276071  0  -1.158734  0  -0.345801  -0.581611  0  2.300431  0
O  O100  1  0.88391074  0.72812323  0.45314136  1  0  -0.63426  0  1.895308  0  0  -0.593987  0  2.118321  0  0  -0.617254  0  2.110138  0  -1.183193  0  -0.334478  -0.577316  0  2.123596  0
O  O101  1  0.11608944  0.27187773  0.54685976  1  0  -0.634266  0  1.895294  0  0  -0.593989  0  2.118295  0  0  -0.617257  0  2.110117  0  -1.183191  0  -0.334489  -0.577319  0  2.123573  0
O  O102  1  0.24547979  0.96973327  0.16899679  1  0  -0.665588  0  2.155784  0  0  -0.597444  0  2.447155  0  0  -0.625841  0  2.430544  0  -1.196315  0  -0.314255  -0.577708  0  2.458182  0
O  O103  1  0.75452102  0.03026577  0.83100442  1  0  -0.665637  0  2.155702  0  0  -0.59749  0  2.447074  0  0  -0.625888  0  2.430458  0  -1.1963  0  -0.314258  -0.577753  0  2.458102  0
O  O104  1  0.02120808  0.04216428  0.27643716  1  0  -0.63497  0  2.038148  0  0  -0.561181  0  2.305678  0  0  -0.589758  0  2.289779  0  -1.173505  0  -0.319015  -0.541333  0  2.316028  0
O  O105  1  0.97879241  0.95783571  0.72356235  1  0  -0.635032  0  2.038054  0  0  -0.561242  0  2.305598  0  0  -0.589817  0  2.289697  0  -1.173511  0  -0.319034  -0.541391  0  2.315946  0
O  O106  1  0.60368465  0.98194857  0.14936662  1  0  -0.651637  0  2.097084  0  0  -0.579214  0  2.370308  0  0  -0.608677  0  2.354402  0  -1.177566  0  -0.321554  -0.558204  0  2.380338  0
O  O107  1  0.39631553  0.01805239  0.85063202  1  0  -0.651592  0  2.097004  0  0  -0.579179  0  2.37028  0  0  -0.608642  0  2.35437  0  -1.177599  0  -0.321539  -0.558168  0  2.38031  0
O  O108  1  0.62554740  0.86600040  0.00016048  1  0  -0.652967  0  2.074222  0  0  -0.588948  0  2.34069  0  0  -0.615375  0  2.324548  0  -1.194627  0  -0.324728  -0.569449  0  2.350606  0
O  O109  1  0.37445446  0.13399863  0.99983892  1  0  -0.653048  0  2.0743  0  0  -0.589  0  2.340775  0  0  -0.615428  0  2.324633  0  -1.19463  0  -0.32476  -0.569502  0  2.350692  0
