# generated using pymatgen
data_Mn3H24C42N6O13
_symmetry_space_group_name_H-M   'P 1'
_cell_length_a   15.53397665
_cell_length_b   16.75855145
_cell_length_c   16.75844376
_cell_angle_alpha   119.99967793
_cell_angle_beta   90.00003631
_cell_angle_gamma   89.99972076
_symmetry_Int_Tables_number   1
_chemical_formula_structural   Mn3H24C42N6O13
_chemical_formula_sum   'Mn6 H48 C84 N12 O26'
_cell_volume   3778.19920531
_cell_formula_units_Z   2
loop_
 _symmetry_equiv_pos_site_id
 _symmetry_equiv_pos_as_xyz
  1  'x, y, z'
loop_
 _atom_site_type_symbol
 _atom_site_label
 _atom_site_symmetry_multiplicity
 _atom_site_fract_x
 _atom_site_fract_y
 _atom_site_fract_z
 _atom_site_occupancy
 _atom_site_pbe_bader_charge
 _atom_site_pbe_bader_spin_density
 _atom_site_pbe_cm5_charge
 _atom_site_pbe_ddec_charge
 _atom_site_pbe_ddec_spin_density
 _atom_site_pbe_ddec_sum_bond_order
 _atom_site_pbe_magmom
Mn  Mn0  1  0.75000303  0.53473097  0.26733713  1  1.661435  3.941121  0.737668  1.153489  4.04345  2.765419  3.918
Mn  Mn1  1  0.75000451  0.73270753  0.46528077  1  1.660649  3.940282  0.737813  1.153579  4.042519  2.766019  3.917
Mn  Mn2  1  0.74997740  0.73265368  0.26737504  1  1.664557  3.940679  0.737562  1.153466  4.044116  2.764846  3.919
Mn  Mn3  1  0.24999554  0.46524623  0.73267706  1  1.660426  3.9426  0.737496  1.153433  4.044478  2.763874  3.919
Mn  Mn4  1  0.24998312  0.26732076  0.53473007  1  1.660722  3.941411  0.737564  1.15381  4.043568  2.764122  3.918
Mn  Mn5  1  0.24998834  0.26733936  0.73270805  1  1.664757  3.939744  0.737729  1.153711  4.044104  2.76582  3.918
H  H6  1  0.55492705  0.40397691  0.06398083  1  0.082496  0.000431  0.103702  0.107952  4.3e-05  1.005442  0.0
H  H7  1  0.55489888  0.65998343  0.59600351  1  0.069857  0.000431  0.103628  0.107752  4.4e-05  1.005754  0.0
H  H8  1  0.55492445  0.93601980  0.34005611  1  0.108809  0.000423  0.10354  0.106421  4.4e-05  1.007027  0.0
H  H9  1  0.05489004  0.59596212  0.93600623  1  0.083525  0.000431  0.10357  0.106468  4.4e-05  1.00683  0.0
H  H10  1  0.05488796  0.34002441  0.40398277  1  0.070125  0.00043  0.103561  0.107636  4.3e-05  1.005739  0.0
H  H11  1  0.05490358  0.06399579  0.66000476  1  0.107523  0.000423  0.103723  0.10793  4.4e-05  1.005527  0.0
H  H12  1  0.44511855  0.33998642  0.93600689  1  0.107471  0.000424  0.103727  0.1068  4.5e-05  1.006829  0.0
H  H13  1  0.44510879  0.06398323  0.40402228  1  0.08328  0.000431  0.103569  0.107705  4.3e-05  1.005724  0.0
H  H14  1  0.44509074  0.59597905  0.65996260  1  0.070264  0.00043  0.103547  0.107634  4.3e-05  1.005827  0.0
H  H15  1  0.94508403  0.65995342  0.06397750  1  0.108559  0.000424  0.10353  0.106384  4.5e-05  1.006942  0.0
H  H16  1  0.94508542  0.93603396  0.59603394  1  0.082728  0.000431  0.10375  0.108016  4.3e-05  1.005522  0.0
H  H17  1  0.94507515  0.40402559  0.34001905  1  0.069827  0.000431  0.103625  0.106603  4.5e-05  1.006768  0.0
H  H18  1  0.44511015  0.59596181  0.93600382  1  0.083286  0.000431  0.10357  0.106484  4.4e-05  1.006789  0.0
H  H19  1  0.44511128  0.34002127  0.40397961  1  0.06974  0.00043  0.103517  0.107622  4.3e-05  1.005539  0.0
H  H20  1  0.44509536  0.06400178  0.66000797  1  0.107644  0.000423  0.103688  0.107891  4.4e-05  1.005571  0.0
H  H21  1  0.94507505  0.40398042  0.06398294  1  0.082497  0.000431  0.103721  0.107917  4.3e-05  1.005504  0.0
H  H22  1  0.94510031  0.65998463  0.59600675  1  0.069982  0.000431  0.103601  0.107732  4.4e-05  1.005739  0.0
H  H23  1  0.94507632  0.93601299  0.34005065  1  0.108846  0.000423  0.103514  0.106333  4.4e-05  1.006869  0.0
H  H24  1  0.55491607  0.65995333  0.06397674  1  0.108568  0.000424  0.103521  0.106362  4.5e-05  1.006957  0.0
H  H25  1  0.55491489  0.93603547  0.59603754  1  0.082788  0.000431  0.103703  0.107961  4.3e-05  1.005245  0.0
H  H26  1  0.55492650  0.40402439  0.34001581  1  0.069831  0.000431  0.103594  0.10774  4.4e-05  1.005508  0.0
H  H27  1  0.05488299  0.33998802  0.93600920  1  0.107445  0.000424  0.103716  0.107918  4.4e-05  1.005567  0.0
H  H28  1  0.05489255  0.06397884  0.40402343  1  0.083258  0.000431  0.103618  0.106511  4.4e-05  1.006997  0.0
H  H29  1  0.05491119  0.59598099  0.65996457  1  0.070212  0.00043  0.103595  0.106438  4.4e-05  1.007054  0.0
H  H30  1  0.75000024  0.37942619  0.31292149  1  0.168057  0.000515  0.128615  0.099685  4.9e-05  0.986102  0.0
H  H31  1  0.75000081  0.93351899  0.62056842  1  0.118678  0.000541  0.12846  0.099581  4.6e-05  0.985855  0.0
H  H32  1  0.75000063  0.68708470  0.06650686  1  0.111277  0.000548  0.128537  0.09961  4.4e-05  0.986289  0.0
H  H33  1  0.25000027  0.62058863  0.68705866  1  0.167595  0.000512  0.128441  0.099679  4.5e-05  0.985803  0.0
H  H34  1  0.25000033  0.06647808  0.37938294  1  0.117584  0.000542  0.128503  0.099711  4.8e-05  0.985741  0.0
H  H35  1  0.25000181  0.31292447  0.93348968  1  0.111477  0.00055  0.128666  0.099708  4.6e-05  0.985916  0.0
H  H36  1  0.25000044  0.06648484  0.68706415  1  0.111419  0.000549  0.128521  0.099683  4.5e-05  0.985797  0.0
H  H37  1  0.25000097  0.31292577  0.37940206  1  0.168024  0.000513  0.128509  0.099713  4.6e-05  0.985849  0.0
H  H38  1  0.25000164  0.62059257  0.93349844  1  0.118679  0.000541  0.12853  0.099646  4.7e-05  0.985877  0.0
H  H39  1  0.75000135  0.93352417  0.31293017  1  0.111453  0.000547  0.128456  0.099577  4.3e-05  0.986094  0.0
H  H40  1  0.75000211  0.68708226  0.62056579  1  0.167948  0.000511  0.128628  0.099756  4.6e-05  0.986067  0.0
H  H41  1  0.75000079  0.37944959  0.06649734  1  0.118645  0.000543  0.128506  0.099492  4.9e-05  0.986059  0.0
H  H42  1  0.75000066  0.20602797  0.23163642  1  0.07243  0.000548  0.113149  0.12074  0.000278  1.004536  0.0
H  H43  1  0.75000134  0.02564513  0.79397169  1  0.074669  0.000556  0.113177  0.121131  0.000282  1.004651  0.0
H  H44  1  0.75000137  0.76834034  0.97437141  1  0.1328  0.000527  0.113259  0.121073  0.000276  1.004709  0.0
H  H45  1  0.24999984  0.79399154  0.76833188  1  0.071847  0.000549  0.113193  0.121152  0.000276  1.004582  0.0
H  H46  1  0.24999852  0.97436410  0.20597945  1  0.074765  0.000551  0.113346  0.121246  0.000279  1.004792  0.0
H  H47  1  0.25000106  0.23165634  0.02562092  1  0.133123  0.000529  0.113264  0.121015  0.000279  1.004592  0.0
H  H48  1  0.25000129  0.97436717  0.76834389  1  0.132798  0.000526  0.113266  0.121155  0.000276  1.004854  0.0
H  H49  1  0.24999984  0.23165431  0.20599501  1  0.071255  0.000551  0.113251  0.121108  0.000279  1.004622  0.0
H  H50  1  0.25000087  0.79399207  0.02562042  1  0.075087  0.000552  0.113231  0.121029  0.00028  1.004533  0.0
H  H51  1  0.75000114  0.02563798  0.23165070  1  0.132562  0.00053  0.113234  0.121083  0.000278  1.004933  0.0
H  H52  1  0.75000260  0.76835152  0.79396788  1  0.072786  0.000546  0.113217  0.120905  0.000275  1.004449  0.0
H  H53  1  0.75000221  0.20604957  0.97436036  1  0.074749  0.000555  0.113181  0.121145  0.000282  1.004724  0.0
C  C54  1  0.62845578  0.57235748  0.14474702  1  1.560641  0.014961  0.233818  0.600211  0.014364  4.155257  0.014
C  C55  1  0.62847841  0.57239213  0.42764152  1  1.576609  0.014771  0.233853  0.600148  0.014315  4.154985  0.014
C  C56  1  0.62845899  0.85528816  0.42765548  1  1.559349  0.014987  0.23399  0.600374  0.014384  4.155162  0.014
C  C57  1  0.12844535  0.42760018  0.85526857  1  1.549549  0.014976  0.233862  0.600282  0.014372  4.155686  0.014
C  C58  1  0.12846714  0.42762617  0.57236237  1  1.579023  0.014746  0.233861  0.600233  0.014305  4.155405  0.014
C  C59  1  0.12846209  0.14472760  0.57239271  1  1.549068  0.014961  0.233883  0.600361  0.014348  4.155253  0.014
C  C60  1  0.37155310  0.42760793  0.85526226  1  1.549301  0.014967  0.233966  0.600391  0.014361  4.155636  0.014
C  C61  1  0.37153701  0.14473172  0.57239242  1  1.548552  0.014954  0.233844  0.600267  0.01434  4.155064  0.014
C  C62  1  0.37153304  0.42763123  0.57236233  1  1.578788  0.014732  0.233913  0.600233  0.01429  4.155286  0.014
C  C63  1  0.87154034  0.57237223  0.14474564  1  1.560491  0.014959  0.233853  0.600174  0.014361  4.154977  0.014
C  C64  1  0.87154291  0.85527441  0.42764560  1  1.559871  0.01497  0.233998  0.600514  0.014366  4.155579  0.014
C  C65  1  0.87152821  0.57238759  0.42764152  1  1.576  0.014789  0.233909  0.600092  0.014328  4.154846  0.014
C  C66  1  0.56131592  0.53527264  0.07059573  1  -0.009553  0.005067  -0.015094  -0.030515  0.003659  3.967702  0.003
C  C67  1  0.56131284  0.53531399  0.46469891  1  0.08379  0.004969  -0.015049  -0.030583  0.003621  3.967438  0.003
C  C68  1  0.56131631  0.92942046  0.46474386  1  -0.009282  0.00507  -0.01517  -0.030569  0.003661  3.967913  0.003
C  C69  1  0.06128540  0.46466959  0.92939525  1  0.002246  0.005065  -0.015242  -0.030779  0.003671  3.968065  0.003
C  C70  1  0.06130200  0.46469083  0.53528437  1  0.083272  0.005005  -0.015091  -0.030515  0.003648  3.967112  0.003
C  C71  1  0.06129853  0.07059551  0.53532017  1  0.002103  0.00505  -0.015191  -0.030889  0.003657  3.967802  0.003
C  C72  1  0.43871741  0.46467066  0.92939627  1  0.002228  0.005068  -0.01527  -0.030738  0.003674  3.967761  0.003
C  C73  1  0.43870286  0.07060343  0.53532390  1  0.002365  0.005052  -0.015123  -0.030871  0.003661  3.968254  0.003
C  C74  1  0.43869796  0.46469211  0.53527803  1  0.083389  0.005007  -0.015097  -0.030482  0.00365  3.967353  0.003
C  C75  1  0.93868227  0.53527594  0.07059691  1  -0.009597  0.005071  -0.015107  -0.030597  0.003662  3.967563  0.003
C  C76  1  0.93868394  0.92941217  0.46473276  1  -0.009737  0.005077  -0.015188  -0.030841  0.003667  3.968158  0.003
C  C77  1  0.93868756  0.53531624  0.46470593  1  0.083699  0.004971  -0.015096  -0.030605  0.003622  3.967621  0.003
C  C78  1  0.53042773  0.44516256  0.03516222  1  0.006929  0.002378  -0.08578  -0.099305  0.001728  3.986821  0.001
C  C79  1  0.53040886  0.58998825  0.55481412  1  -0.039089  0.002399  -0.085747  -0.098923  0.001723  3.986919  0.001
C  C80  1  0.53042005  0.96484253  0.41005239  1  -0.117801  0.002422  -0.085488  -0.097753  0.001732  3.986971  0.001
C  C81  1  0.03039547  0.55477839  0.96482669  1  0.006974  0.002377  -0.085542  -0.097622  0.001727  3.986627  0.001
C  C82  1  0.03039567  0.41002273  0.44517040  1  -0.114541  0.002411  -0.085672  -0.098831  0.001717  3.986734  0.001
C  C83  1  0.03040572  0.03517182  0.59000992  1  -0.032843  0.002388  -0.08584  -0.099072  0.001725  3.987221  0.001
C  C84  1  0.46961049  0.40998770  0.96482746  1  -0.115212  0.002414  -0.085829  -0.098221  0.001728  3.987324  0.001
C  C85  1  0.46960100  0.03517213  0.44521067  1  0.006927  0.002369  -0.085597  -0.098761  0.001721  3.986439  0.001
C  C86  1  0.46959260  0.55480923  0.58996997  1  -0.113789  0.002407  -0.08559  -0.099  0.001714  3.986869  0.001
C  C87  1  0.96957955  0.58995129  0.03516235  1  -0.117331  0.002414  -0.085458  -0.097611  0.001727  3.986627  0.001
C  C88  1  0.96958067  0.96484703  0.55485173  1  -0.075952  0.002402  -0.085722  -0.099241  0.00173  3.986914  0.001
C  C89  1  0.96957877  0.44519842  0.41001683  1  -0.038328  0.002401  -0.085687  -0.097965  0.001726  3.986904  0.001
C  C90  1  0.46960560  0.55477776  0.96482680  1  0.007108  0.002372  -0.08559  -0.097719  0.001724  3.98685  0.001
C  C91  1  0.46960645  0.41002475  0.44516904  1  -0.114193  0.002408  -0.085668  -0.098933  0.001715  3.987086  0.001
C  C92  1  0.46959526  0.03517394  0.59000727  1  -0.032676  0.002385  -0.085739  -0.098958  0.001723  3.987422  0.001
C  C93  1  0.96957285  0.44516089  0.03516336  1  0.006913  0.002376  -0.085705  -0.099095  0.001727  3.987042  0.001
C  C94  1  0.96958488  0.58998505  0.55481441  1  -0.039281  0.002401  -0.085638  -0.098843  0.001724  3.986763  0.001
C  C95  1  0.96958255  0.96484127  0.41005670  1  -0.117504  0.002417  -0.085525  -0.097523  0.001729  3.986895  0.001
C  C96  1  0.53041834  0.58994998  0.03515823  1  -0.117366  0.002416  -0.085428  -0.097546  0.001728  3.986598  0.001
C  C97  1  0.53041688  0.96484889  0.55484802  1  -0.076078  0.002406  -0.085715  -0.099256  0.001733  3.987024  0.001
C  C98  1  0.53042142  0.44519990  0.41001826  1  -0.038483  0.0024  -0.085688  -0.09899  0.001724  3.986957  0.001
C  C99  1  0.03038748  0.40998790  0.96482899  1  -0.115193  0.002417  -0.085875  -0.099277  0.00173  3.987205  0.001
C  C100  1  0.03039988  0.03516652  0.44520846  1  0.006978  0.002372  -0.085586  -0.097661  0.001725  3.986644  0.001
C  C101  1  0.03040821  0.55481018  0.58997432  1  -0.113573  0.002411  -0.085688  -0.097898  0.001718  3.986843  0.001
C  C102  1  0.74999710  0.33789791  0.23804829  1  0.517372  0.00867  0.061529  0.10162  0.006125  3.926175  0.005
C  C103  1  0.75000027  0.90017589  0.66210721  1  0.446392  0.008753  0.06175  0.102144  0.00607  3.927059  0.005
C  C104  1  0.75000044  0.76195642  0.09984094  1  0.462396  0.008771  0.061521  0.10184  0.006126  3.926554  0.005
C  C105  1  0.25000083  0.66212454  0.76193260  1  0.517681  0.008642  0.061793  0.101966  0.0061  3.926125  0.005
C  C106  1  0.25000023  0.09982937  0.33785029  1  0.448992  0.008754  0.061467  0.101557  0.006073  3.926631  0.005
C  C107  1  0.25000392  0.23804343  0.90015179  1  0.462604  0.008767  0.061547  0.101895  0.006129  3.92685  0.005
C  C108  1  0.24999973  0.09981974  0.76193440  1  0.461303  0.008803  0.061705  0.10199  0.006151  3.926038  0.005
C  C109  1  0.25000180  0.23804545  0.33786341  1  0.517722  0.008613  0.061625  0.101774  0.00608  3.926305  0.005
C  C110  1  0.25000409  0.66213029  0.90014948  1  0.447752  0.008746  0.061621  0.101938  0.006065  3.927165  0.005
C  C111  1  0.75000077  0.90017970  0.23805517  1  0.461603  0.008735  0.061663  0.101935  0.006097  3.926942  0.005
C  C112  1  0.75000386  0.76195546  0.66210559  1  0.517298  0.008684  0.061523  0.101728  0.006132  3.926238  0.005
C  C113  1  0.74999898  0.33791036  0.09984065  1  0.44659  0.00875  0.061533  0.102091  0.006069  3.927127  0.005
C  C114  1  0.75000056  0.24218969  0.19284392  1  -0.074577  0.004326  -0.075891  -0.15473  0.003065  3.939372  0.002
C  C115  1  0.75000017  0.95068319  0.75780591  1  0.044639  0.004301  -0.076067  -0.155919  0.003193  3.940639  0.002
C  C116  1  0.75000159  0.80714620  0.04932790  1  -0.090609  0.004474  -0.076203  -0.155732  0.00326  3.939931  0.002
C  C117  1  0.25000059  0.75783689  0.80713282  1  -0.075728  0.004454  -0.076085  -0.155791  0.003164  3.940597  0.002
C  C118  1  0.24999711  0.04931353  0.24214581  1  0.044793  0.004196  -0.075964  -0.155633  0.00311  3.939699  0.002
C  C119  1  0.25000213  0.19285716  0.95066491  1  -0.090056  0.004408  -0.076092  -0.155473  0.003205  3.939893  0.002
C  C120  1  0.25000181  0.04931560  0.80712962  1  -0.08909  0.004365  -0.076057  -0.155748  0.003175  3.940324  0.002
C  C121  1  0.24999995  0.19285898  0.24215456  1  -0.074602  0.00438  -0.076021  -0.155552  0.003106  3.939912  0.002
C  C122  1  0.25000257  0.75783322  0.95066509  1  0.045008  0.004308  -0.076048  -0.155586  0.003198  3.939657  0.002
C  C123  1  0.75000062  0.95068873  0.19285864  1  -0.090575  0.004525  -0.076117  -0.155722  0.003299  3.940254  0.002
C  C124  1  0.75000377  0.80714773  0.75780507  1  -0.075032  0.004401  -0.075942  -0.155046  0.003124  3.939273  0.002
C  C125  1  0.75000244  0.24220447  0.04931725  1  0.04462  0.00421  -0.075881  -0.155822  0.003122  3.940047  0.002
C  C126  1  0.75000001  0.19242817  0.09620013  1  -0.021394  0.01282  0.009707  0.044548  0.00984  3.966319  0.007
C  C127  1  0.74999967  0.90380217  0.80757443  1  -0.021535  0.012893  0.009653  0.044581  0.009897  3.966427  0.007
C  C128  1  0.74999878  0.90379706  0.09620321  1  0.116389  0.012999  0.009777  0.044917  0.010004  3.965819  0.007
C  C129  1  0.24999920  0.80758978  0.90377212  1  -0.021926  0.012877  0.00973  0.04478  0.009886  3.96655  0.007
C  C130  1  0.24999826  0.09621401  0.19239123  1  -0.021924  0.012793  0.009846  0.045103  0.009821  3.965693  0.007
C  C131  1  0.25000172  0.09621207  0.90378503  1  0.113623  0.012965  0.009684  0.044739  0.009976  3.966333  0.007
C  C132  1  0.74999962  0.09048682  0.04522909  1  1.055128  0.016784  0.256202  0.376153  0.014239  4.013639  0.009
C  C133  1  0.74999893  0.95476170  0.90950767  1  1.055039  0.017071  0.256056  0.375858  0.014469  4.013305  0.01
C  C134  1  0.75000185  0.95476024  0.04523340  1  1.225083  0.017119  0.25575  0.375435  0.01487  4.013604  0.01
C  C135  1  0.24999960  0.90952178  0.95474416  1  1.054725  0.017159  0.256054  0.375782  0.014536  4.013269  0.01
C  C136  1  0.25000029  0.04524844  0.09046643  1  1.054806  0.016848  0.25594  0.37541  0.014287  4.013549  0.009
C  C137  1  0.25000188  0.04524625  0.95475150  1  1.227716  0.016809  0.256097  0.375741  0.014614  4.013905  0.01
N  N138  1  0.74999439  0.38505358  0.19251149  1  -1.213393  0.027651  -0.303342  -0.201349  0.018548  3.475719  0.004
N  N139  1  0.75000308  0.80749518  0.61494939  1  -1.21296  0.027686  -0.303424  -0.201432  0.01856  3.475315  0.004
N  N140  1  0.74999520  0.80749225  0.19253670  1  -1.215779  0.027939  -0.303512  -0.20177  0.018709  3.474834  0.005
N  N141  1  0.25000419  0.61496868  0.80747197  1  -1.212822  0.027737  -0.303433  -0.201749  0.018609  3.475102  0.005
N  N142  1  0.24999936  0.19250861  0.38501077  1  -1.212789  0.027631  -0.303347  -0.201426  0.018513  3.47448  0.004
N  N143  1  0.24999951  0.19251315  0.80747674  1  -1.216169  0.027865  -0.303544  -0.201573  0.018579  3.476092  0.004
N  N144  1  0.75000425  0.04742573  0.09481638  1  -1.206141  0.022587  -0.306163  -0.407339  0.016087  3.203964  0.014
N  N145  1  0.74999683  0.04742297  0.95257995  1  -1.119015  0.022859  -0.306625  -0.40791  0.016497  3.204173  0.015
N  N146  1  0.74999778  0.90518795  0.95258503  1  -1.207467  0.022318  -0.306131  -0.407166  0.015862  3.204553  0.014
N  N147  1  0.25000590  0.95259304  0.90516221  1  -1.207893  0.02236  -0.30624  -0.40726  0.015907  3.204101  0.014
N  N148  1  0.24999402  0.95259461  0.04739745  1  -1.119166  0.022528  -0.306306  -0.407308  0.016234  3.2043  0.014
N  N149  1  0.25000529  0.09482687  0.04739512  1  -1.20809  0.022663  -0.30618  -0.407115  0.01616  3.204313  0.014
O  O150  1  0.74999562  0.66670524  0.33334939  1  -0.97105  0.040168  -0.507649  -0.80981  0.019703  2.164516  -0.035
O  O151  1  0.24999715  0.33328311  0.66669662  1  -0.971205  0.03994  -0.507696  -0.810174  0.019468  2.163929  -0.035
O  O152  1  0.65491084  0.51886352  0.17295764  1  -1.165688  0.054777  -0.297032  -0.550721  0.040371  2.35031  0.027
O  O153  1  0.65494278  0.65410472  0.48115609  1  -1.175357  0.05472  -0.297139  -0.550911  0.040289  2.349278  0.027
O  O154  1  0.65491846  0.82708530  0.34595240  1  -1.168402  0.05487  -0.297192  -0.550858  0.040473  2.349698  0.027
O  O155  1  0.15490205  0.48111729  0.82707637  1  -1.166493  0.054794  -0.29719  -0.550847  0.040436  2.349241  0.027
O  O156  1  0.15493191  0.34591024  0.51883421  1  -1.1758  0.054766  -0.297117  -0.551057  0.040304  2.349111  0.027
O  O157  1  0.15491503  0.17293174  0.65408477  1  -1.169023  0.054787  -0.296902  -0.550629  0.040414  2.350406  0.027
O  O158  1  0.34508165  0.34590272  0.82707197  1  -1.169155  0.05486  -0.29718  -0.550962  0.040468  2.349745  0.027
O  O159  1  0.34508264  0.17291659  0.51885056  1  -1.166058  0.05471  -0.297193  -0.551  0.040335  2.348727  0.027
O  O160  1  0.34508574  0.48111949  0.65405883  1  -1.177746  0.054779  -0.296991  -0.550751  0.040307  2.349587  0.027
O  O161  1  0.84508072  0.65407214  0.17294502  1  -1.168736  0.054804  -0.296969  -0.550627  0.040425  2.349182  0.027
O  O162  1  0.84508488  0.82706504  0.48116562  1  -1.164084  0.054802  -0.297286  -0.55116  0.040422  2.349817  0.027
O  O163  1  0.84505732  0.51887934  0.34592701  1  -1.175063  0.05477  -0.297089  -0.550721  0.040308  2.348991  0.027
O  O164  1  0.34509996  0.48111499  0.82706957  1  -1.166474  0.054793  -0.297115  -0.550715  0.040419  2.349703  0.027
O  O165  1  0.34507189  0.34590826  0.51883186  1  -1.175318  0.05471  -0.297222  -0.551173  0.040281  2.348639  0.027
O  O166  1  0.34507046  0.17293240  0.65408575  1  -1.168704  0.054744  -0.296926  -0.550725  0.040399  2.350046  0.027
O  O167  1  0.84508687  0.51886482  0.17296753  1  -1.165743  0.054771  -0.297225  -0.551012  0.040363  2.349634  0.027
O  O168  1  0.84507053  0.65410873  0.48115492  1  -1.175152  0.054726  -0.297184  -0.55089  0.040295  2.34926  0.027
O  O169  1  0.84509320  0.82706628  0.34594680  1  -1.168871  0.05482  -0.297129  -0.550791  0.040429  2.349754  0.027
O  O170  1  0.65490405  0.65407563  0.17295302  1  -1.169234  0.054842  -0.297085  -0.550893  0.040449  2.348993  0.027
O  O171  1  0.65491915  0.82706934  0.48116684  1  -1.164236  0.054797  -0.297268  -0.551062  0.040422  2.34966  0.027
O  O172  1  0.65493665  0.51888628  0.34593156  1  -1.175613  0.054738  -0.297078  -0.550857  0.040274  2.349428  0.027
O  O173  1  0.15491270  0.34590153  0.82707390  1  -1.169378  0.0549  -0.297034  -0.550825  0.040478  2.350243  0.027
O  O174  1  0.15491884  0.17290744  0.51885211  1  -1.165817  0.054707  -0.297259  -0.551092  0.040376  2.348768  0.027
O  O175  1  0.15492001  0.48112021  0.65405647  1  -1.17772  0.054805  -0.297041  -0.550724  0.040325  2.349405  0.027
