# generated using pymatgen
data_NiH12C20(NO2)2
_symmetry_space_group_name_H-M   'P 1'
_cell_length_a   15.45391092
_cell_length_b   16.92059179
_cell_length_c   16.92059395
_cell_angle_alpha   90.00000362
_cell_angle_beta   89.99999931
_cell_angle_gamma   90.00002342
_symmetry_Int_Tables_number   1
_chemical_formula_structural   NiH12C20(NO2)2
_chemical_formula_sum   'Ni8 H96 C160 N16 O32'
_cell_volume   4424.55457471
_cell_formula_units_Z   8
loop_
 _symmetry_equiv_pos_site_id
 _symmetry_equiv_pos_as_xyz
  1  'x, y, z'
loop_
 _atom_site_type_symbol
 _atom_site_label
 _atom_site_symmetry_multiplicity
 _atom_site_fract_x
 _atom_site_fract_y
 _atom_site_fract_z
 _atom_site_occupancy
 _atom_site_pbe_bader_charge
 _atom_site_pbe_bader_spin_density
 _atom_site_pbe_cm5_charge
 _atom_site_pbe_ddec_charge
 _atom_site_pbe_ddec_spin_density
 _atom_site_pbe_ddec_sum_bond_order
 _atom_site_pbe_magmom
Ni  Ni0  1  0.01880317  0.73413746  0.26517157  1  1.118492  1.530721  0.639025  0.690145  1.76045  2.507312  1.514
Ni  Ni1  1  0.51880400  0.26586257  0.73482823  1  1.118618  1.530722  0.639026  0.690123  1.760451  2.507346  1.514
Ni  Ni2  1  0.76880415  0.23482823  0.23413717  1  1.11857  1.530721  0.639031  0.690134  1.760451  2.507325  1.514
Ni  Ni3  1  0.26880397  0.76517189  0.76586262  1  1.118572  1.530722  0.639015  0.690094  1.760452  2.50735  1.514
Ni  Ni4  1  0.73119566  0.76586285  0.76517174  1  1.118567  1.530721  0.639021  0.690098  1.760451  2.507351  1.514
Ni  Ni5  1  0.23119590  0.23413725  0.23482805  1  1.118571  1.530722  0.639014  0.6901  1.760452  2.507335  1.514
Ni  Ni6  1  0.98119699  0.26517119  0.73413735  1  1.118495  1.530721  0.639039  0.690158  1.760448  2.507266  1.514
Ni  Ni7  1  0.48119680  0.73482842  0.26586303  1  1.118491  1.530721  0.639018  0.690127  1.760451  2.507341  1.514
H  H8  1  0.10850022  0.79723753  0.71774138  1  0.134266  -0.000314  0.109116  0.123255  -0.000416  1.04506  0.0
H  H9  1  0.60849973  0.20276253  0.28225842  1  0.134252  -0.000314  0.10914  0.123267  -0.000416  1.045121  0.0
H  H10  1  0.85850001  0.78225886  0.29723781  1  0.134259  -0.000314  0.109138  0.123301  -0.000416  1.045099  0.0
H  H11  1  0.35850023  0.21774129  0.70276198  1  0.134264  -0.000314  0.109121  0.123272  -0.000416  1.045066  0.0
H  H12  1  0.64149991  0.70276219  0.21774119  1  0.134254  -0.000314  0.109137  0.123291  -0.000416  1.045105  0.0
H  H13  1  0.14150017  0.29723788  0.78225860  1  0.134261  -0.000314  0.109119  0.123265  -0.000416  1.045074  0.0
H  H14  1  0.89150005  0.71774164  0.79723740  1  0.134259  -0.000314  0.109125  0.123249  -0.000416  1.045088  0.0
H  H15  1  0.39149967  0.28225912  0.20276239  1  0.134269  -0.000314  0.109117  0.123259  -0.000416  1.04506  0.0
H  H16  1  0.22601802  0.70298492  0.42216251  1  0.135891  0.000654  0.109219  0.116277  0.000429  1.026981  0.0
H  H17  1  0.72601758  0.29701518  0.57783729  1  0.135907  0.000654  0.109218  0.116267  0.000429  1.026987  0.0
H  H18  1  0.97601768  0.07783671  0.20298460  1  0.135917  0.000654  0.10923  0.116308  0.000429  1.026944  0.0
H  H19  1  0.47601757  0.92216290  0.79701519  1  0.13588  0.000654  0.109215  0.116268  0.000429  1.026972  0.0
H  H20  1  0.52398210  0.79701539  0.92216328  1  0.135917  0.000654  0.10923  0.116312  0.000429  1.026942  0.0
H  H21  1  0.02398232  0.20298463  0.07783711  1  0.135879  0.000654  0.109215  0.116268  0.000429  1.026972  0.0
H  H22  1  0.77398216  0.42216271  0.70298479  1  0.135875  0.000654  0.109224  0.11628  0.000429  1.026977  0.0
H  H23  1  0.27398191  0.57783742  0.29701560  1  0.135836  0.000654  0.109226  0.116275  0.000429  1.026983  0.0
H  H24  1  0.65726545  0.51824560  0.30721972  1  0.091864  0.000296  0.109598  0.115357  0.000178  0.995549  0.0
H  H25  1  0.15726580  0.48175389  0.69278066  1  0.091857  0.000296  0.109591  0.115355  0.000178  0.995581  0.0
H  H26  1  0.40726588  0.19278057  0.01824523  1  0.091876  0.000296  0.109558  0.115299  0.000178  0.995614  0.0
H  H27  1  0.90726566  0.80721960  0.98175397  1  0.091859  0.000296  0.109599  0.11536  0.000178  0.995558  0.0
H  H28  1  0.09273402  0.98175412  0.80721933  1  0.091868  0.000296  0.109574  0.115322  0.000178  0.995572  0.0
H  H29  1  0.59273410  0.01824593  0.19278046  1  0.091866  0.000296  0.109577  0.11531  0.000178  0.995557  0.0
H  H30  1  0.34273402  0.30721924  0.51824600  1  0.091859  0.000296  0.109592  0.115358  0.000178  0.995583  0.0
H  H31  1  0.84273440  0.69278032  0.48175438  1  0.091856  0.000296  0.109597  0.115355  0.000178  0.99556  0.0
H  H32  1  0.69554894  0.37854009  0.27324928  1  0.105859  -0.000365  0.110513  0.122741  -0.000499  1.026489  0.0
H  H33  1  0.19554934  0.62146000  0.72675051  1  0.10587  -0.000365  0.110489  0.122692  -0.000499  1.02648  0.0
H  H34  1  0.44555004  0.22675105  0.87854009  1  0.10589  -0.000364  0.110515  0.122743  -0.000499  1.026511  0.0
H  H35  1  0.94554917  0.77324914  0.12145970  1  0.105885  -0.000364  0.110485  0.122682  -0.000499  1.026494  0.0
H  H36  1  0.05445032  0.12145973  0.77324886  1  0.105888  -0.000364  0.110485  0.122672  -0.000499  1.026504  0.0
H  H37  1  0.55445078  0.87854031  0.22675093  1  0.105887  -0.000364  0.110486  0.122685  -0.000499  1.026493  0.0
H  H38  1  0.30445050  0.27324938  0.37853991  1  0.10586  -0.000365  0.110513  0.122744  -0.000499  1.026487  0.0
H  H39  1  0.80445089  0.72675076  0.62145988  1  0.105863  -0.000365  0.110514  0.122731  -0.000499  1.026495  0.0
H  H40  1  0.01907036  0.49440234  0.18741542  1  0.119362  0.000382  0.11218  0.119505  0.000138  0.999855  0.0
H  H41  1  0.51907066  0.50559710  0.81258437  1  0.11935  0.000382  0.112182  0.119487  0.000138  0.999872  0.0
H  H42  1  0.76907140  0.31258440  0.99440245  1  0.119344  0.000382  0.112187  0.119492  0.000138  0.999876  0.0
H  H43  1  0.26907055  0.68741572  0.00559734  1  0.11936  0.000382  0.112184  0.1195  0.000138  0.999842  0.0
H  H44  1  0.73092954  0.00559630  0.68741499  1  0.119341  0.000382  0.112164  0.11949  0.000138  0.999881  0.0
H  H45  1  0.23092947  0.99440263  0.31258421  1  0.119361  0.000382  0.112185  0.119503  0.000138  0.999839  0.0
H  H46  1  0.98092973  0.18741563  0.49440227  1  0.119361  0.000382  0.112181  0.119471  0.000138  0.999874  0.0
H  H47  1  0.48092957  0.81258457  0.50559752  1  0.119358  0.000382  0.112178  0.119501  0.000138  0.999857  0.0
H  H48  1  0.04695324  0.35267621  0.14675904  1  0.134604  0.000933  0.107349  0.123724  0.000482  1.031962  0.0
H  H49  1  0.54695295  0.64732382  0.85324134  1  0.1346  0.000933  0.107343  0.123718  0.000482  1.031975  0.0
H  H50  1  0.79695368  0.35324196  0.85267634  1  0.134581  0.000933  0.107333  0.123709  0.000482  1.031941  0.0
H  H51  1  0.29695345  0.64675876  0.14732404  1  0.134592  0.000933  0.107342  0.123711  0.000482  1.031973  0.0
H  H52  1  0.70304795  0.14732360  0.64676099  1  0.134633  0.000933  0.107358  0.123732  0.000482  1.031981  0.0
H  H53  1  0.20304653  0.85267590  0.35324117  1  0.134598  0.000933  0.107343  0.123715  0.000482  1.031971  0.0
H  H54  1  0.95304681  0.14675865  0.35267615  1  0.134602  0.000933  0.107346  0.123729  0.000482  1.031967  0.0
H  H55  1  0.45304667  0.85324095  0.64732364  1  0.134602  0.000933  0.107348  0.123723  0.000482  1.03196  0.0
H  H56  1  0.76698204  0.62430042  0.29196376  1  0.061728  0.000153  0.107751  0.107059  7.9e-05  1.014544  0.0
H  H57  1  0.26698234  0.37569911  0.70803603  1  0.061722  0.000153  0.107748  0.107068  7.8e-05  1.01453  0.0
H  H58  1  0.51698245  0.20803597  0.12430060  1  0.061987  0.000153  0.107749  0.107066  7.9e-05  1.014534  0.0
H  H59  1  0.01698228  0.79196406  0.87569919  1  0.06172  0.000153  0.107749  0.107073  7.8e-05  1.014529  0.0
H  H60  1  0.98301738  0.87569949  0.79196395  1  0.061979  0.000153  0.107743  0.107068  7.8e-05  1.014528  0.0
H  H61  1  0.48301756  0.12430071  0.20803584  1  0.061723  0.000153  0.107752  0.107072  7.8e-05  1.014523  0.0
H  H62  1  0.23301810  0.29196385  0.62430079  1  0.061983  0.000153  0.107752  0.107065  7.9e-05  1.014528  0.0
H  H63  1  0.73301784  0.70803626  0.37569960  1  0.061991  0.000153  0.107753  0.107062  7.9e-05  1.014541  0.0
H  H64  1  0.94513051  0.78927223  0.51153880  1  0.091339  0.000457  0.106646  0.109789  0.000319  1.016225  0.0
H  H65  1  0.44513008  0.21072736  0.48846099  1  0.091332  0.000457  0.10665  0.109837  0.000319  1.016149  0.0
H  H66  1  0.69513105  0.98846143  0.28927297  1  0.091347  0.000457  0.106654  0.10981  0.000319  1.016204  0.0
H  H67  1  0.19513119  0.01153866  0.71072682  1  0.091348  0.000457  0.106656  0.10981  0.000319  1.016202  0.0
H  H68  1  0.80486891  0.71072707  0.01153862  1  0.091349  0.000457  0.106656  0.109815  0.000319  1.016196  0.0
H  H69  1  0.30486916  0.28927307  0.98846117  1  0.091352  0.000457  0.10666  0.109818  0.000319  1.016192  0.0
H  H70  1  0.05486971  0.51153888  0.78927255  1  0.091337  0.000457  0.106646  0.109818  0.000319  1.016195  0.0
H  H71  1  0.55486936  0.48846116  0.21072725  1  0.091342  0.000457  0.106651  0.109797  0.000319  1.016206  0.0
H  H72  1  0.36901030  0.68773135  0.49156905  1  0.128779  0.001083  0.111979  0.130568  0.000577  0.998488  0.0
H  H73  1  0.86900986  0.31226822  0.50843074  1  0.128758  0.001083  0.111983  0.130576  0.000577  0.998506  0.0
H  H74  1  0.11901065  0.00843058  0.18773100  1  0.128735  0.001083  0.111992  0.130596  0.000577  0.998451  0.0
H  H75  1  0.61901051  0.99156889  0.81226880  1  0.128732  0.001083  0.111992  0.130599  0.000577  0.998446  0.0
H  H76  1  0.38098917  0.81226897  0.99156924  1  0.128731  0.001083  0.111991  0.130596  0.000577  0.998449  0.0
H  H77  1  0.88098933  0.18773119  0.00843056  1  0.128738  0.001083  0.111981  0.13057  0.000577  0.998447  0.0
H  H78  1  0.63098990  0.49156923  0.68773119  1  0.128741  0.001083  0.11197  0.130568  0.000577  0.99849  0.0
H  H79  1  0.13098961  0.50843083  0.31226860  1  0.128741  0.001083  0.111979  0.130563  0.000577  0.998489  0.0
H  H80  1  0.96335826  0.81388308  0.65576364  1  0.141381  0.0005  0.099987  0.109936  0.000494  1.052688  0.0
H  H81  1  0.46335783  0.18611711  0.34423674  1  0.141388  0.0005  0.09999  0.109938  0.000494  1.05268  0.0
H  H82  1  0.71335877  0.84423716  0.31388439  1  0.141396  0.0005  0.099998  0.109972  0.000494  1.052652  0.0
H  H83  1  0.21335897  0.15576294  0.68611599  1  0.141396  0.0005  0.099981  0.109927  0.000494  1.052667  0.0
H  H84  1  0.78664116  0.68611563  0.15576287  1  0.141401  0.0005  0.099988  0.109936  0.000494  1.052652  0.0
H  H85  1  0.28664142  0.31388449  0.84423692  1  0.141391  0.0005  0.099977  0.109922  0.000494  1.052668  0.0
H  H86  1  0.03664200  0.65576315  0.81388280  1  0.141393  0.0005  0.099993  0.109954  0.000494  1.052672  0.0
H  H87  1  0.53664158  0.34423629  0.18611700  1  0.141386  0.0005  0.09999  0.109942  0.000494  1.052681  0.0
H  H88  1  0.93346926  0.25219644  0.17284382  1  0.13252  0.002257  0.121161  0.093355  0.000762  1.009332  0.002
H  H89  1  0.43346908  0.74780374  0.82715656  1  0.132381  0.002256  0.121155  0.093335  0.000762  1.009353  0.002
H  H90  1  0.68346978  0.32715715  0.75219642  1  0.132529  0.002257  0.121149  0.093317  0.000762  1.009364  0.002
H  H91  1  0.18346956  0.67284412  0.24780397  1  0.132511  0.002257  0.121151  0.093319  0.000762  1.009376  0.002
H  H92  1  0.81653122  0.24780356  0.67284459  1  0.132392  0.002256  0.121169  0.093353  0.000762  1.009361  0.002
H  H93  1  0.31653040  0.75219598  0.32715580  1  0.132374  0.002256  0.12115  0.093315  0.000762  1.009379  0.002
H  H94  1  0.06653077  0.17284386  0.25219623  1  0.13238  0.002256  0.121157  0.093338  0.000762  1.009345  0.002
H  H95  1  0.56653121  0.82715619  0.74780356  1  0.132521  0.002257  0.121163  0.093349  0.000762  1.00933  0.002
H  H96  1  0.37661227  0.71667715  0.63623478  1  0.097928  0.002481  0.115598  0.078543  0.000901  1.015654  0.001
H  H97  1  0.87661247  0.28332301  0.36376501  1  0.097924  0.002481  0.115597  0.078539  0.000901  1.015656  0.001
H  H98  1  0.12661280  0.86376533  0.21667682  1  0.097916  0.002481  0.115603  0.078547  0.000901  1.015633  0.001
H  H99  1  0.62661293  0.13623474  0.78332357  1  0.097913  0.002481  0.115606  0.078558  0.000901  1.015625  0.001
H  H100  1  0.37338721  0.78332374  0.13623519  1  0.097913  0.002481  0.1156  0.078542  0.000901  1.01563  0.001
H  H101  1  0.87338737  0.21667642  0.86376519  1  0.097917  0.002481  0.115602  0.078548  0.000901  1.015634  0.001
H  H102  1  0.62338732  0.63623498  0.71667699  1  0.09792  0.002481  0.115605  0.078549  0.000901  1.015632  0.001
H  H103  1  0.12338762  0.36376509  0.28332340  1  0.097923  0.002481  0.115596  0.078536  0.000901  1.015658  0.001
C  C104  1  0.15975649  0.74389660  0.52675576  1  0.010094  0.006211  0.002979  0.025459  0.00356  3.938581  0.005
C  C105  1  0.65975667  0.25610347  0.47324403  1  0.010107  0.006211  0.002964  0.025444  0.00356  3.938478  0.005
C  C106  1  0.90975698  0.97324392  0.24389690  1  0.010101  0.006211  0.002974  0.025461  0.00356  3.938567  0.005
C  C107  1  0.40975712  0.02675626  0.75610348  1  0.010102  0.006211  0.00301  0.025503  0.00356  3.938543  0.005
C  C108  1  0.59024234  0.75610369  0.02675617  1  0.010103  0.006211  0.00303  0.025506  0.00356  3.938563  0.005
C  C109  1  0.09024258  0.24389636  0.97324362  1  0.010098  0.006211  0.003012  0.025495  0.003559  3.938557  0.005
C  C110  1  0.84024308  0.52675599  0.74389648  1  0.010105  0.006211  0.003017  0.025501  0.00356  3.938538  0.005
C  C111  1  0.34024343  0.47324416  0.25610391  1  0.010092  0.006211  0.002996  0.025472  0.00356  3.938472  0.005
C  C112  1  0.05655413  0.74536875  0.40621626  1  1.512029  -0.002853  0.198592  0.553835  -0.004197  4.168991  -0.005
C  C113  1  0.55655496  0.25463129  0.59378413  1  1.512036  -0.002853  0.198607  0.553858  -0.004197  4.168961  -0.005
C  C114  1  0.80655508  0.09378352  0.24536904  1  1.512028  -0.002853  0.198603  0.553832  -0.004197  4.169003  -0.005
C  C115  1  0.30655496  0.90621602  0.75463134  1  1.51203  -0.002853  0.19859  0.553781  -0.004197  4.169062  -0.005
C  C116  1  0.69344469  0.75463157  0.90621644  1  1.512026  -0.002853  0.198599  0.553883  -0.004197  4.168945  -0.005
C  C117  1  0.19344494  0.24536853  0.09378395  1  1.512027  -0.002853  0.198583  0.553791  -0.004197  4.169069  -0.005
C  C118  1  0.94344541  0.40621590  0.74536864  1  1.512045  -0.002853  0.198628  0.553902  -0.004197  4.168944  -0.005
C  C119  1  0.44344516  0.59378429  0.25463174  1  1.512039  -0.002853  0.198597  0.553856  -0.004197  4.168955  -0.005
C  C120  1  0.09876676  0.78566641  0.65523116  1  -0.080636  0.001934  -0.078732  -0.142665  0.000847  3.929463  0.002
C  C121  1  0.59876692  0.21433305  0.34476804  1  -0.08065  0.001935  -0.078723  -0.142674  0.000847  3.929444  0.002
C  C122  1  0.84876721  0.84476849  0.28566671  1  -0.080667  0.001935  -0.078727  -0.142703  0.000847  3.929482  0.002
C  C123  1  0.34876676  0.15523106  0.71433308  1  -0.080642  0.001935  -0.078725  -0.14269  0.000847  3.929421  0.002
C  C124  1  0.65123272  0.71433330  0.15523157  1  -0.080648  0.001935  -0.078716  -0.142676  0.000847  3.929412  0.002
C  C125  1  0.15123297  0.28566678  0.84476882  1  -0.080646  0.001935  -0.078722  -0.142671  0.000847  3.929454  0.002
C  C126  1  0.90123350  0.65523141  0.78566688  1  -0.080648  0.001935  -0.078748  -0.142702  0.000847  3.929482  0.002
C  C127  1  0.40123314  0.34476876  0.21433350  1  -0.080641  0.001935  -0.078745  -0.142684  0.000847  3.929478  0.002
C  C128  1  0.82614695  0.40739962  0.23842426  1  0.397904  -0.001885  0.111998  0.196853  -0.002319  3.967131  -0.002
C  C129  1  0.32614669  0.59259993  0.76157612  1  0.397904  -0.001885  0.11199  0.196795  -0.002319  3.967106  -0.002
C  C130  1  0.57614741  0.26157668  0.90739959  1  0.397912  -0.001885  0.111997  0.196799  -0.002319  3.967062  -0.002
C  C131  1  0.07614723  0.73842395  0.09260020  1  0.397908  -0.001885  0.112015  0.196853  -0.002319  3.96713  -0.002
C  C132  1  0.92385354  0.09260038  0.73842443  1  0.397872  -0.001885  0.112008  0.196823  -0.002319  3.96712  -0.002
C  C133  1  0.42385278  0.90739979  0.26157595  1  0.397906  -0.001885  0.112003  0.196821  -0.002319  3.96713  -0.002
C  C134  1  0.17385313  0.23842374  0.40740001  1  0.397904  -0.001885  0.112005  0.196862  -0.002319  3.967134  -0.002
C  C135  1  0.67385354  0.76157634  0.59260038  1  0.397907  -0.001885  0.112005  0.196844  -0.002319  3.967098  -0.002
C  C136  1  0.23305249  0.71620669  0.48471114  1  -0.166827  -0.008059  -0.067234  -0.074082  -0.008683  3.937192  -0.005
C  C137  1  0.73305269  0.28379283  0.51528925  1  -0.166845  -0.00806  -0.067229  -0.074033  -0.008683  3.937111  -0.005
C  C138  1  0.98305278  0.01528866  0.21620635  1  -0.166835  -0.00806  -0.067215  -0.074045  -0.008683  3.937079  -0.005
C  C139  1  0.48305334  0.98471154  0.78379344  1  -0.166832  -0.008059  -0.06722  -0.074044  -0.008683  3.93712  -0.005
C  C140  1  0.51694698  0.78379364  0.98471132  1  -0.16685  -0.008059  -0.06723  -0.074066  -0.008683  3.937109  -0.005
C  C141  1  0.01694721  0.21620639  0.01528848  1  -0.16684  -0.008059  -0.067237  -0.074056  -0.008683  3.937135  -0.005
C  C142  1  0.76694706  0.48471135  0.71620655  1  -0.166836  -0.00806  -0.067228  -0.074043  -0.008683  3.937123  -0.005
C  C143  1  0.26694743  0.51528877  0.28379324  1  -0.166808  -0.008059  -0.067225  -0.074062  -0.008683  3.937133  -0.005
C  C144  1  0.88952316  0.46869064  0.22917282  1  0.015008  0.007243  0.002152  0.022478  0.004233  3.955655  0.006
C  C145  1  0.38952352  0.53130894  0.77082697  1  0.014871  0.007243  0.002141  0.022521  0.004233  3.955616  0.006
C  C146  1  0.63952361  0.27082756  0.96869059  1  0.014865  0.007243  0.002166  0.022588  0.004233  3.95558  0.006
C  C147  1  0.13952342  0.72917311  0.03130921  1  0.014691  0.007243  0.002127  0.022453  0.004233  3.955714  0.006
C  C148  1  0.86047798  0.03130878  0.72917298  1  0.014513  0.007243  0.002122  0.022445  0.004233  3.955742  0.006
C  C149  1  0.36047660  0.96869078  0.27082681  1  0.014688  0.007243  0.00215  0.022496  0.004233  3.955707  0.006
C  C150  1  0.11047694  0.22917287  0.46869100  1  0.014858  0.007243  0.00212  0.022414  0.004233  3.955697  0.006
C  C151  1  0.61047670  0.77082778  0.53130879  1  0.014875  0.007243  0.002131  0.022446  0.004233  3.955649  0.006
C  C152  1  0.72185816  0.50305879  0.28618500  1  0.025873  -0.003075  -0.07963  -0.057156  -0.003263  3.993545  -0.002
C  C153  1  0.22185786  0.49694131  0.71381538  1  0.025879  -0.003075  -0.079606  -0.05712  -0.003263  3.993653  -0.002
C  C154  1  0.47185860  0.21381530  0.00305841  1  0.025884  -0.003075  -0.079561  -0.057036  -0.003263  3.993621  -0.002
C  C155  1  0.97185837  0.78618489  0.99694138  1  0.02589  -0.003075  -0.07962  -0.057144  -0.003263  3.993592  -0.002
C  C156  1  0.02814131  0.99694093  0.78618461  1  0.025888  -0.003075  -0.079619  -0.05713  -0.003263  3.993593  -0.002
C  C157  1  0.52814139  0.00305851  0.21381519  1  0.025891  -0.003075  -0.079608  -0.057095  -0.003263  3.993565  -0.002
C  C158  1  0.27814195  0.28618509  0.50305859  1  0.025878  -0.003075  -0.079614  -0.057137  -0.003263  3.993621  -0.002
C  C159  1  0.77814169  0.71381503  0.49694120  1  0.025888  -0.003075  -0.079617  -0.057148  -0.003263  3.993538  -0.002
C  C160  1  0.93090818  0.61331916  0.24932341  1  1.534881  -0.003633  0.199537  0.554888  -0.004976  4.187412  -0.006
C  C161  1  0.43090848  0.38668043  0.75067520  1  1.534887  -0.003633  0.199533  0.554914  -0.004976  4.187446  -0.006
C  C162  1  0.68090989  0.25067458  0.11331872  1  1.534909  -0.003632  0.199511  0.554857  -0.004976  4.187398  -0.006
C  C163  1  0.18090971  0.74932551  0.88668166  1  1.534884  -0.003633  0.199512  0.554895  -0.004976  4.187393  -0.006
C  C164  1  0.81908994  0.88668193  0.74932537  1  1.534676  -0.003634  0.199502  0.554834  -0.004976  4.187411  -0.006
C  C165  1  0.31909013  0.11331821  0.25067442  1  1.534686  -0.003634  0.199504  0.554878  -0.004976  4.187342  -0.006
C  C166  1  0.06909195  0.24932346  0.61331890  1  1.534871  -0.003633  0.19952  0.554834  -0.004976  4.187502  -0.006
C  C167  1  0.56909171  0.75067658  0.38668089  1  1.534874  -0.003633  0.199522  0.554844  -0.004976  4.187498  -0.006
C  C168  1  0.74266841  0.42596043  0.26768624  1  -0.03707  0.005278  -0.082903  -0.159903  0.0027  3.947647  0.004
C  C169  1  0.24266879  0.57403909  0.73231414  1  -0.037074  0.005278  -0.082892  -0.159854  0.0027  3.947639  0.004
C  C170  1  0.49266886  0.23231410  0.92596041  1  -0.037075  0.005278  -0.08292  -0.159923  0.0027  3.947706  0.004
C  C171  1  0.99266863  0.76768610  0.07403938  1  -0.037071  0.005278  -0.082888  -0.159835  0.0027  3.947615  0.004
C  C172  1  0.00733149  0.07403940  0.76768582  1  -0.037055  0.005278  -0.082877  -0.159796  0.0027  3.947602  0.004
C  C173  1  0.50733133  0.92596062  0.23231398  1  -0.037077  0.005278  -0.082891  -0.159849  0.0027  3.947634  0.004
C  C174  1  0.25733168  0.26768573  0.42596023  1  -0.037075  0.005278  -0.082907  -0.159921  0.0027  3.947661  0.004
C  C175  1  0.75733143  0.73231438  0.57403956  1  -0.037073  0.005278  -0.082911  -0.159881  0.0027  3.947621  0.004
C  C176  1  0.97034153  0.44856783  0.19523547  1  -0.01533  -0.009402  -0.064378  -0.071215  -0.010042  3.935459  -0.006
C  C177  1  0.47034190  0.55143177  0.80476432  1  -0.015179  -0.009401  -0.064366  -0.07118  -0.010041  3.935448  -0.006
C  C178  1  0.72034199  0.30476492  0.94856836  1  -0.015186  -0.009402  -0.064398  -0.071269  -0.010042  3.935441  -0.006
C  C179  1  0.22034179  0.69523577  0.05143261  1  -0.014997  -0.009401  -0.064376  -0.071212  -0.010041  3.935489  -0.006
C  C180  1  0.77965961  0.05143040  0.69523446  1  -0.015155  -0.009402  -0.06436  -0.071212  -0.010042  3.935431  -0.006
C  C181  1  0.27965822  0.94856736  0.30476415  1  -0.014996  -0.009402  -0.064374  -0.071214  -0.010042  3.935481  -0.006
C  C182  1  0.02965855  0.19523551  0.44856818  1  -0.01518  -0.009402  -0.064364  -0.071114  -0.010042  3.935406  -0.006
C  C183  1  0.52965833  0.80476452  0.55143220  1  -0.015188  -0.009401  -0.064381  -0.071209  -0.010041  3.935469  -0.006
C  C184  1  0.86679624  0.54739414  0.25118032  1  -0.011347  0.001379  -0.008182  -0.059869  0.000584  3.948546  0.001
C  C185  1  0.36679657  0.45260542  0.74881888  1  -0.011349  0.001379  -0.008155  -0.059922  0.000584  3.948661  0.001
C  C186  1  0.61679732  0.24881884  0.04739432  1  -0.01134  0.001379  -0.008185  -0.059959  0.000584  3.948621  0.001
C  C187  1  0.11679713  0.75118123  0.95260547  1  -0.011353  0.001379  -0.00815  -0.05988  0.000584  3.948666  0.001
C  C188  1  0.88320318  0.95260458  0.75118110  1  -0.010995  0.001379  -0.008146  -0.059819  0.000583  3.948614  0.001
C  C189  1  0.38320268  0.04739440  0.24881869  1  -0.011356  0.001379  -0.008169  -0.059895  0.000584  3.948634  0.001
C  C190  1  0.13320387  0.25117979  0.54739450  1  -0.01135  0.00138  -0.008162  -0.059869  0.000584  3.948611  0.001
C  C191  1  0.63320363  0.74882028  0.45260529  1  -0.01135  0.001379  -0.008164  -0.059872  0.000584  3.948598  0.001
C  C192  1  0.98606374  0.37152738  0.17310859  1  -0.076189  0.007061  -0.091259  -0.13954  0.003887  3.997244  0.006
C  C193  1  0.48606415  0.62847282  0.82689120  1  -0.076186  0.007061  -0.091265  -0.139571  0.003887  3.997203  0.006
C  C194  1  0.73606423  0.32689180  0.87152733  1  -0.076189  0.007061  -0.091236  -0.139487  0.003887  3.997085  0.006
C  C195  1  0.23606402  0.67310889  0.12847305  1  -0.076191  0.007061  -0.091254  -0.139523  0.003887  3.997227  0.006
C  C196  1  0.76393610  0.12847203  0.67310994  1  -0.076204  0.007062  -0.091219  -0.139469  0.003887  3.997246  0.006
C  C197  1  0.26393597  0.87152691  0.32689103  1  -0.07619  0.007061  -0.091262  -0.139543  0.003887  3.997247  0.006
C  C198  1  0.01393631  0.17310862  0.37152715  1  -0.076185  0.007061  -0.091269  -0.139605  0.003887  3.997212  0.006
C  C199  1  0.51393611  0.82689141  0.62847264  1  -0.076193  0.007061  -0.091255  -0.139538  0.003887  3.997212  0.006
C  C200  1  0.07612912  0.75589971  0.49202412  1  -0.072477  0.002694  -0.014335  -0.076512  0.001735  3.945416  0.002
C  C201  1  0.57612929  0.24410033  0.50797567  1  -0.072458  0.002695  -0.014356  -0.076542  0.001736  3.945383  0.002
C  C202  1  0.82613004  0.00797565  0.25590000  1  -0.072481  0.002694  -0.014356  -0.076544  0.001736  3.945489  0.002
C  C203  1  0.32612996  0.99202390  0.74410039  1  -0.07247  0.002694  -0.014342  -0.076527  0.001735  3.945449  0.002
C  C204  1  0.67387036  0.74410002  0.99202430  1  -0.072468  0.002694  -0.014354  -0.076565  0.001736  3.945481  0.002
C  C205  1  0.17386996  0.25590007  0.00797609  1  -0.072468  0.002694  -0.014343  -0.076514  0.001735  3.945452  0.002
C  C206  1  0.92387045  0.49202436  0.75589960  1  -0.072457  0.002694  -0.014345  -0.076533  0.001736  3.945441  0.002
C  C207  1  0.42387081  0.50797582  0.24410019  1  -0.072469  0.002694  -0.01434  -0.076524  0.001736  3.945429  0.002
C  C208  1  0.78382372  0.56354723  0.27740044  1  -0.06082  0.004316  -0.074951  -0.086075  0.00245  3.962006  0.003
C  C209  1  0.28382404  0.43645290  0.72259876  1  -0.060815  0.004317  -0.074972  -0.086104  0.00245  3.962135  0.003
C  C210  1  0.53382414  0.22259929  0.06354742  1  -0.060805  0.004317  -0.074972  -0.086104  0.00245  3.962104  0.003
C  C211  1  0.03382397  0.77740015  0.93645238  1  -0.060806  0.004317  -0.074937  -0.086078  0.00245  3.962066  0.003
C  C212  1  0.96617634  0.93645209  0.77740063  1  -0.060833  0.004317  -0.074921  -0.086101  0.00245  3.962054  0.003
C  C213  1  0.46617586  0.06354752  0.22259975  1  -0.060805  0.004317  -0.074922  -0.086058  0.00245  3.962018  0.003
C  C214  1  0.21617640  0.27740052  0.56354701  1  -0.060813  0.004316  -0.074956  -0.086078  0.002449  3.962055  0.003
C  C215  1  0.71617615  0.72259958  0.43645278  1  -0.060826  0.004316  -0.074951  -0.086071  0.00245  3.962021  0.003
C  C216  1  0.00797356  0.78058856  0.53929965  1  -0.008357  0.001999  -0.076139  -0.080791  0.001243  3.959222  0.002
C  C217  1  0.50797308  0.21941147  0.46070014  1  -0.008363  0.001999  -0.076132  -0.080832  0.001242  3.959122  0.002
C  C218  1  0.75797404  0.96070059  0.28058888  1  -0.008347  0.001999  -0.076163  -0.080841  0.001243  3.959232  0.002
C  C219  1  0.25797418  0.03929952  0.71941092  1  -0.008352  0.001999  -0.076148  -0.080825  0.001243  3.959188  0.002
C  C220  1  0.74202592  0.71941115  0.03929947  1  -0.008365  0.001999  -0.076168  -0.080856  0.001243  3.959228  0.002
C  C221  1  0.24202552  0.28058896  0.96070033  1  -0.008349  0.001999  -0.076143  -0.080828  0.001243  3.959188  0.002
C  C222  1  0.99202667  0.53929991  0.78058845  1  -0.008358  0.001999  -0.076149  -0.080847  0.001243  3.959163  0.002
C  C223  1  0.49202636  0.46070030  0.21941193  1  -0.008354  0.001999  -0.076144  -0.080796  0.001243  3.959244  0.002
C  C224  1  0.17015127  0.75949063  0.60986691  1  0.463032  -0.00043  0.113174  0.196945  -0.000631  3.947632  0.0
C  C225  1  0.67015145  0.24050946  0.39013229  1  0.463051  -0.000431  0.113135  0.196907  -0.000632  3.947502  0.0
C  C226  1  0.92015174  0.89013217  0.25949091  1  0.463031  -0.000431  0.113102  0.196861  -0.000632  3.947574  0.0
C  C227  1  0.42015192  0.10986742  0.74050888  1  0.463016  -0.00043  0.113149  0.196949  -0.000631  3.947518  0.0
C  C228  1  0.57984756  0.74050908  0.10986732  1  0.463034  -0.000431  0.113096  0.196858  -0.000632  3.947539  0.0
C  C229  1  0.07984780  0.25949097  0.89013247  1  0.46303  -0.00043  0.113124  0.196866  -0.000631  3.947611  0.0
C  C230  1  0.82984832  0.60986774  0.75949049  1  0.463054  -0.000431  0.11314  0.196907  -0.000631  3.947577  0.0
C  C231  1  0.32984863  0.39013300  0.24050989  1  0.463036  -0.00043  0.113142  0.196901  -0.000631  3.947543  0.0
C  C232  1  0.31117705  0.70717451  0.52302480  1  0.051977  0.005834  -0.087464  -0.134498  0.003256  3.982559  0.005
C  C233  1  0.81117725  0.29282562  0.47697499  1  0.051989  0.005833  -0.08744  -0.134522  0.003255  3.98257  0.005
C  C234  1  0.06117761  0.97697471  0.20717420  1  0.052003  0.005833  -0.087447  -0.134525  0.003256  3.982519  0.005
C  C235  1  0.56117769  0.02302533  0.79282559  1  0.051997  0.005833  -0.087456  -0.134532  0.003255  3.982543  0.005
C  C236  1  0.43882243  0.79282578  0.02302522  1  0.052002  0.005833  -0.08745  -0.13453  0.003255  3.98253  0.005
C  C237  1  0.93882259  0.20717440  0.97697457  1  0.052006  0.005834  -0.087427  -0.134472  0.003256  3.982476  0.005
C  C238  1  0.68882251  0.52302500  0.70717436  1  0.051991  0.005833  -0.08744  -0.134516  0.003256  3.982547  0.005
C  C239  1  0.18882286  0.47697509  0.29282543  1  0.052015  0.005833  -0.087451  -0.134474  0.003256  3.982534  0.005
C  C240  1  0.01883295  0.79532209  0.62049302  1  -0.008594  -0.000845  -0.086254  -0.06218  -0.001207  3.987879  0.0
C  C241  1  0.51883311  0.20467794  0.37950737  1  -0.008527  -0.000845  -0.086256  -0.062148  -0.001207  3.987809  0.0
C  C242  1  0.76883406  0.87950722  0.29532299  1  -0.008582  -0.000845  -0.086247  -0.062165  -0.001207  3.987833  0.0
C  C243  1  0.26883359  0.12049231  0.70467680  1  -0.008538  -0.000845  -0.086259  -0.062155  -0.001207  3.987827  0.0
C  C244  1  0.73116588  0.70467703  0.12049224  1  -0.008515  -0.000845  -0.086244  -0.062121  -0.001207  3.987779  0.0
C  C245  1  0.23116614  0.29532308  0.87950755  1  -0.008589  -0.000845  -0.086251  -0.062139  -0.001207  3.987821  0.0
C  C246  1  0.98116665  0.62049269  0.79532198  1  -0.00854  -0.000845  -0.086271  -0.062176  -0.001207  3.987843  0.0
C  C247  1  0.48116696  0.37950692  0.20467781  1  -0.008593  -0.000845  -0.08625  -0.062167  -0.001207  3.98789  0.0
C  C248  1  0.92220287  0.31411803  0.18719379  1  0.505134  -0.0081  0.05467  0.106464  -0.008696  3.937411  -0.005
C  C249  1  0.42220266  0.68588214  0.81280600  1  0.505148  -0.0081  0.054714  0.106527  -0.008695  3.937408  -0.005
C  C250  1  0.67220337  0.31280718  0.81411800  1  0.505103  -0.0081  0.054694  0.106495  -0.008696  3.93738  -0.005
C  C251  1  0.17220252  0.68719409  0.18588238  1  0.505145  -0.0081  0.05471  0.106524  -0.008695  3.93742  -0.005
C  C252  1  0.82779632  0.18588197  0.68719574  1  0.505143  -0.008099  0.054634  0.106391  -0.008695  3.937477  -0.005
C  C253  1  0.32779682  0.81411758  0.31280583  1  0.505128  -0.0081  0.054712  0.106521  -0.008696  3.937416  -0.005
C  C254  1  0.07779718  0.18719383  0.31411782  1  0.505136  -0.0081  0.054697  0.106506  -0.008695  3.937423  -0.005
C  C255  1  0.57779761  0.81280622  0.68588197  1  0.505148  -0.0081  0.054693  0.106496  -0.008696  3.937446  -0.005
C  C256  1  0.31591889  0.72405986  0.60426604  1  0.495576  -0.008199  0.052001  0.102182  -0.009228  3.96377  -0.006
C  C257  1  0.81591909  0.27594028  0.39573434  1  0.495569  -0.008199  0.051992  0.102201  -0.009227  3.963763  -0.006
C  C258  1  0.06591943  0.89573406  0.22405954  1  0.495559  -0.008199  0.051968  0.102145  -0.009228  3.963788  -0.006
C  C259  1  0.56591955  0.10426599  0.77594026  1  0.495565  -0.008199  0.051969  0.102145  -0.009228  3.963776  -0.006
C  C260  1  0.43408058  0.77594044  0.10426587  1  0.495564  -0.008199  0.051973  0.102159  -0.009227  3.96378  -0.006
C  C261  1  0.93408075  0.22405974  0.89573393  1  0.495555  -0.008199  0.051957  0.102117  -0.009227  3.963772  -0.006
C  C262  1  0.68408069  0.60426566  0.72405970  1  0.495567  -0.008199  0.051977  0.102156  -0.009228  3.963742  -0.006
C  C263  1  0.18408100  0.39573384  0.27594009  1  0.495575  -0.008199  0.052002  0.102191  -0.009228  3.963754  -0.006
N  N264  1  0.24872749  0.74859563  0.64688393  1  -1.219956  0.073108  -0.323501  -0.277052  0.042849  3.573164  0.065
N  N265  1  0.74872768  0.25140389  0.35311586  1  -1.21996  0.073107  -0.323482  -0.277047  0.042849  3.573081  0.065
N  N266  1  0.99872796  0.85311575  0.24859590  1  -1.219955  0.073107  -0.323469  -0.277011  0.042849  3.573133  0.065
N  N267  1  0.49872815  0.14688387  0.75140448  1  -1.219942  0.073107  -0.32349  -0.277071  0.042849  3.5731  0.065
N  N268  1  0.50127198  0.75140408  0.14688434  1  -1.21996  0.073107  -0.32349  -0.277038  0.042849  3.573099  0.065
N  N269  1  0.00127157  0.24859594  0.85311604  1  -1.219968  0.073106  -0.32347  -0.276999  0.042849  3.573131  0.065
N  N270  1  0.75127210  0.64688416  0.74859608  1  -1.219959  0.073108  -0.323458  -0.276981  0.042849  3.573099  0.065
N  N271  1  0.25127239  0.35311595  0.25140431  1  -1.219962  0.073108  -0.323484  -0.277044  0.042849  3.573086  0.065
N  N272  1  0.84542037  0.33048092  0.21877424  1  -1.215  0.069732  -0.331201  -0.279923  0.04111  3.604031  0.062
N  N273  1  0.34542080  0.66951923  0.78122555  1  -1.214993  0.069732  -0.331233  -0.279915  0.041111  3.604036  0.062
N  N274  1  0.59542086  0.28122612  0.83048031  1  -1.214984  0.069732  -0.331219  -0.279894  0.041111  3.603988  0.062
N  N275  1  0.09542067  0.71877453  0.16951949  1  -1.215006  0.069733  -0.331252  -0.279951  0.041111  3.604055  0.062
N  N276  1  0.90457882  0.16951968  0.71877441  1  -1.214996  0.069733  -0.331216  -0.279879  0.04111  3.603991  0.062
N  N277  1  0.40457932  0.83048049  0.28122538  1  -1.214988  0.069733  -0.331238  -0.279911  0.041111  3.604014  0.062
N  N278  1  0.15457904  0.21877430  0.33048072  1  -1.214991  0.069732  -0.331231  -0.279917  0.041111  3.604031  0.062
N  N279  1  0.65457946  0.78122577  0.66951907  1  -1.215014  0.069732  -0.331227  -0.279921  0.041111  3.604092  0.062
O  O280  1  0.11635388  0.74678893  0.35325831  1  -1.140309  0.078681  -0.310362  -0.538905  0.044406  2.251425  0.071
O  O281  1  0.61635406  0.25321114  0.64674208  1  -1.140329  0.07868  -0.310378  -0.538925  0.044406  2.251442  0.071
O  O282  1  0.86635419  0.14674208  0.24678921  1  -1.140331  0.07868  -0.310376  -0.538916  0.044406  2.251445  0.071
O  O283  1  0.36635470  0.85325807  0.75321117  1  -1.140341  0.078678  -0.310391  -0.538899  0.044404  2.251453  0.071
O  O284  1  0.63364559  0.75321080  0.85325789  1  -1.140339  0.078679  -0.310374  -0.538931  0.044405  2.251439  0.071
O  O285  1  0.13364584  0.24678868  0.14674190  1  -1.140338  0.078678  -0.31038  -0.538906  0.044404  2.251468  0.071
O  O286  1  0.88364565  0.35325793  0.74678880  1  -1.140321  0.07868  -0.310385  -0.538945  0.044406  2.251411  0.071
O  O287  1  0.38364607  0.64674223  0.25321099  1  -1.140328  0.07868  -0.310373  -0.538929  0.044405  2.251462  0.071
O  O288  1  0.97785102  0.73776163  0.38466323  1  -1.123701  0.081239  -0.307325  -0.513207  0.045956  2.220644  0.073
O  O289  1  0.47785126  0.26223798  0.61533656  1  -1.12368  0.08124  -0.307322  -0.513208  0.045957  2.22063  0.073
O  O290  1  0.72785138  0.11533653  0.23776175  1  -1.123669  0.081241  -0.307313  -0.513184  0.045958  2.22062  0.073
O  O291  1  0.22785125  0.88466357  0.76223804  1  -1.123677  0.08124  -0.307303  -0.513169  0.045957  2.22066  0.073
O  O292  1  0.77214840  0.76223829  0.88466341  1  -1.123662  0.081242  -0.307312  -0.513202  0.045958  2.220614  0.073
O  O293  1  0.27214864  0.23776183  0.11533638  1  -1.123675  0.081241  -0.307299  -0.513165  0.045957  2.220648  0.073
O  O294  1  0.02214917  0.38466329  0.73776135  1  -1.123692  0.081239  -0.307355  -0.513265  0.045957  2.220633  0.073
O  O295  1  0.52214887  0.61533674  0.26223845  1  -1.123683  0.08124  -0.307323  -0.513202  0.045957  2.220601  0.073
O  O296  1  0.00775739  0.60383350  0.27444960  1  -1.131988  0.078952  -0.305855  -0.520817  0.044362  2.168285  0.07
O  O297  1  0.50775699  0.39616652  0.72554783  1  -1.132068  0.078952  -0.305827  -0.520773  0.044362  2.168222  0.07
O  O298  1  0.75775840  0.22554722  0.10383265  1  -1.132089  0.078952  -0.305846  -0.520778  0.044361  2.168128  0.07
O  O299  1  0.25775822  0.77445289  0.89616833  1  -1.132074  0.078952  -0.305821  -0.520776  0.044361  2.168131  0.07
O  O300  1  0.74224144  0.89616799  0.77445333  1  -1.131891  0.078952  -0.305846  -0.520783  0.044361  2.168116  0.07
O  O301  1  0.24224161  0.10383153  0.22554646  1  -1.131887  0.078953  -0.305841  -0.5208  0.044361  2.168124  0.07
O  O302  1  0.99224274  0.27444983  0.60383342  1  -1.131988  0.078953  -0.305831  -0.520761  0.044362  2.168252  0.07
O  O303  1  0.49224255  0.72555038  0.39616696  1  -1.131999  0.078952  -0.305844  -0.520783  0.044362  2.168262  0.07
O  O304  1  0.90514773  0.68145625  0.22542827  1  -1.137013  0.081581  -0.305539  -0.524977  0.04617  2.291288  0.074
O  O305  1  0.40514864  0.31854392  0.77457211  1  -1.137077  0.08158  -0.30554  -0.524989  0.04617  2.291287  0.074
O  O306  1  0.65514943  0.27457090  0.18145522  1  -1.137021  0.08158  -0.305507  -0.524932  0.04617  2.291357  0.074
O  O307  1  0.15515053  0.72542917  0.81854457  1  -1.137002  0.081581  -0.305541  -0.524984  0.04617  2.291253  0.074
O  O308  1  0.84484910  0.81854484  0.72542964  1  -1.136987  0.081581  -0.305522  -0.524941  0.04617  2.291264  0.074
O  O309  1  0.34484932  0.18145531  0.27457074  1  -1.136992  0.08158  -0.305531  -0.524968  0.04617  2.291243  0.074
O  O310  1  0.09485241  0.22542832  0.68145599  1  -1.137008  0.081581  -0.305534  -0.524954  0.04617  2.291303  0.074
O  O311  1  0.59485218  0.77457173  0.31854380  1  -1.137011  0.081581  -0.305537  -0.524962  0.04617  2.291303  0.074
