# generated using pymatgen
data_CdH4C8(SN2)2
_symmetry_space_group_name_H-M   'P 1'
_cell_length_a   8.12367098
_cell_length_b   10.06973712
_cell_length_c   15.22557783
_cell_angle_alpha   106.80957539
_cell_angle_beta   90.00387182
_cell_angle_gamma   113.77811265
_symmetry_Int_Tables_number   1
_chemical_formula_structural   CdH4C8(SN2)2
_chemical_formula_sum   'Cd4 H16 C32 S8 N16'
_cell_volume   1081.35462662
_cell_formula_units_Z   4
loop_
 _symmetry_equiv_pos_site_id
 _symmetry_equiv_pos_as_xyz
  1  'x, y, z'
loop_
 _atom_site_type_symbol
 _atom_site_label
 _atom_site_symmetry_multiplicity
 _atom_site_fract_x
 _atom_site_fract_y
 _atom_site_fract_z
 _atom_site_occupancy
 _atom_site_hle17_bader_spin_density
 _atom_site_hle17_ddec_charge
 _atom_site_hle17_ddec_spin_density
 _atom_site_hle17_ddec_sum_bond_order
 _atom_site_hle17_magmom
 _atom_site_hse06_10hf_bader_spin_density
 _atom_site_hse06_10hf_ddec_charge
 _atom_site_hse06_10hf_ddec_spin_density
 _atom_site_hse06_10hf_ddec_sum_bond_order
 _atom_site_hse06_10hf_magmom
 _atom_site_hse06_bader_spin_density
 _atom_site_hse06_ddec_charge
 _atom_site_hse06_ddec_spin_density
 _atom_site_hse06_ddec_sum_bond_order
 _atom_site_hse06_magmom
 _atom_site_pbe_bader_spin_density
 _atom_site_pbe_cm5_charge
 _atom_site_pbe_ddec_charge
 _atom_site_pbe_ddec_spin_density
 _atom_site_pbe_ddec_sum_bond_order
 _atom_site_pbe_magmom
Cd  Cd0  1  0.77991449  0.75259399  0.82422460  1  0  0.967361  0  1.982443  0  0  0.797973  0  2.448315  0  0  0.842048  0  2.411695  0  0  0.720336  0.767256  0  2.472999  0
Cd  Cd1  1  0.97254189  0.75219294  0.32416075  1  0  0.967703  0  1.981442  0  0  0.79794  0  2.447846  0  0  0.842027  0  2.411237  0  0  0.720296  0.767229  0  2.472481  0
Cd  Cd2  1  0.22008197  0.24740255  0.17577392  1  0  0.967452  0  1.982393  0  0  0.798059  0  2.448283  0  0  0.842134  0  2.411661  0  0  0.720371  0.767339  0  2.472966  0
Cd  Cd3  1  0.02745268  0.24780474  0.67584193  1  0  0.96768  0  1.98143  0  0  0.797896  0  2.447874  0  0  0.841999  0  2.411238  0  0  0.720274  0.767183  0  2.47251  0
H  H4  1  0.23957795  0.00392502  0.50661263  1  0  0.084542  0  0.982133  0  0  0.086171  0  1.058285  0  0  0.088713  0  1.056378  0  0  0.106606  0.08428  0  1.05975  0
H  H5  1  0.76431269  0.00420377  0.00671542  1  0  0.083691  0  0.983512  0  0  0.085862  0  1.059252  0  0  0.088336  0  1.057414  0  0  0.106407  0.084074  0  1.060558  0
H  H6  1  0.76041455  0.99607838  0.49338851  1  0  0.084473  0  0.982262  0  0  0.086118  0  1.058381  0  0  0.088666  0  1.05647  0  0  0.106597  0.084239  0  1.059817  0
H  H7  1  0.23568074  0.99579161  0.99328288  1  0  0.083744  0  0.983459  0  0  0.085862  0  1.05924  0  0  0.088345  0  1.057384  0  0  0.106396  0.084069  0  1.060559  0
H  H8  1  0.43327839  0.03001883  0.64398947  1  0  0.121323  0  0.945892  0  0  0.12937  0  1.006839  0  0  0.132289  0  1.006529  0  0  0.113675  0.127272  0  1.007209  0
H  H9  1  0.59652932  0.03003767  0.14403331  1  0  0.121001  0  0.946495  0  0  0.129269  0  1.007148  0  0  0.132136  0  1.006911  0  0  0.113648  0.127205  0  1.007483  0
H  H10  1  0.56671402  0.96998686  0.35601342  1  0  0.121353  0  0.945852  0  0  0.129412  0  1.006792  0  0  0.132321  0  1.006493  0  0  0.1137  0.127312  0  1.007164  0
H  H11  1  0.40346287  0.96995771  0.85596302  1  0  0.12101  0  0.946554  0  0  0.129277  0  1.007196  0  0  0.132144  0  1.006961  0  0  0.113656  0.127216  0  1.007528  0
H  H12  1  0.27852953  0.54116340  0.53415629  1  0  0.113531  0  0.969574  0  0  0.114867  0  1.045144  0  0  0.118344  0  1.044086  0  0  0.103267  0.112371  0  1.046034  0
H  H13  1  0.26275432  0.54116026  0.03397549  1  0  0.113101  0  0.969628  0  0  0.114712  0  1.044875  0  0  0.118133  0  1.043903  0  0  0.10315  0.112254  0  1.045703  0
H  H14  1  0.72149765  0.45885028  0.46584221  1  0  0.113527  0  0.969513  0  0  0.114825  0  1.045164  0  0  0.118307  0  1.044105  0  0  0.103248  0.112333  0  1.046043  0
H  H15  1  0.73724271  0.45883742  0.96602456  1  0  0.113091  0  0.969673  0  0  0.114702  0  1.04491  0  0  0.118123  0  1.043939  0  0  0.103151  0.112241  0  1.045746  0
H  H16  1  0.08896300  0.53754721  0.40231990  1  0  0.085568  0  0.978425  0  0  0.091933  0  1.046794  0  0  0.094129  0  1.045426  0  0  0.10659  0.090316  0  1.047833  0
H  H17  1  0.44882600  0.53781289  0.90216972  1  0  0.085464  0  0.979272  0  0  0.091967  0  1.04728  0  0  0.094136  0  1.045935  0  0  0.106822  0.090379  0  1.048311  0
H  H18  1  0.91105289  0.46245618  0.59767665  1  0  0.085642  0  0.978496  0  0  0.091978  0  1.046871  0  0  0.094161  0  1.045542  0  0  0.106595  0.090383  0  1.047895  0
H  H19  1  0.55117605  0.46218251  0.09783187  1  0  0.085461  0  0.979223  0  0  0.091988  0  1.047232  0  0  0.094159  0  1.045886  0  0  0.106812  0.090401  0  1.048263  0
C  C20  1  0.47355976  0.42113306  0.68884673  1  0  0.311641  0  3.982413  0  0  0.292062  0  4.283221  0  0  0.314486  0  4.29621  0  0  0.14528  0.276807  0  4.274029  0
C  C21  1  0.94754473  0.42070893  0.18883386  1  0  0.310076  0  3.983606  0  0  0.290477  0  4.284603  0  0  0.312908  0  4.29762  0  0  0.144359  0.275214  0  4.275403  0
C  C22  1  0.52644808  0.57887148  0.31115332  1  0  0.31175  0  3.982064  0  0  0.292177  0  4.282878  0  0  0.314606  0  4.295868  0  0  0.145298  0.276916  0  4.273687  0
C  C23  1  0.05245361  0.57928645  0.81116379  1  0  0.310242  0  3.983624  0  0  0.290652  0  4.284588  0  0  0.313077  0  4.297593  0  0  0.144456  0.275397  0  4.27539  0
C  C24  1  0.03604954  0.11825480  0.85801924  1  0  0.308961  0  4.005119  0  0  0.287896  0  4.30523  0  0  0.310505  0  4.320128  0  0  0.145561  0.272514  0  4.294722  0
C  C25  1  0.08151747  0.11770477  0.35777738  1  0  0.309433  0  4.003415  0  0  0.288329  0  4.303511  0  0  0.31094  0  4.318358  0  0  0.145363  0.272942  0  4.293026  0
C  C26  1  0.96394200  0.88174175  0.14198585  1  0  0.308894  0  4.004897  0  0  0.287832  0  4.30501  0  0  0.310445  0  4.319912  0  0  0.14556  0.272447  0  4.294498  0
C  C27  1  0.91847832  0.88229290  0.64221807  1  0  0.309457  0  4.003595  0  0  0.288344  0  4.30369  0  0  0.310952  0  4.318536  0  0  0.145354  0.272959  0  4.293206  0
C  C28  1  0.46802775  0.79324088  0.67878556  1  0  0.330222  0  3.656397  0  0  0.31058  0  3.918227  0  0  0.32406  0  3.933379  0  0  0.225115  0.301364  0  3.908076  0
C  C29  1  0.32500130  0.79303404  0.17864984  1  0  0.33011  0  3.65579  0  0  0.310779  0  3.917808  0  0  0.324278  0  3.93298  0  0  0.225449  0.301545  0  3.907658  0
C  C30  1  0.53198010  0.20676366  0.32121711  1  0  0.330372  0  3.655964  0  0  0.310712  0  3.917777  0  0  0.324194  0  3.93293  0  0  0.225104  0.301496  0  3.907625  0
C  C31  1  0.67499031  0.20696020  0.82134628  1  0  0.330279  0  3.655756  0  0  0.310918  0  3.917746  0  0  0.324417  0  3.932914  0  0  0.22546  0.301687  0  3.907599  0
C  C32  1  0.25233819  0.90497379  0.51582347  1  0  0.135345  0  3.688429  0  0  0.104878  0  3.94263  0  0  0.110428  0  3.961278  0  0  0.05095  0.101245  0  3.930044  0
C  C33  1  0.65256043  0.90518889  0.01583057  1  0  0.136206  0  3.689749  0  0  0.105194  0  3.944072  0  0  0.110798  0  3.962723  0  0  0.051104  0.101515  0  3.931463  0
C  C34  1  0.74766464  0.09503304  0.48417898  1  0  0.135441  0  3.688362  0  0  0.104992  0  3.942544  0  0  0.110537  0  3.961188  0  0  0.051015  0.101362  0  3.92996  0
C  C35  1  0.34743242  0.09480536  0.98416883  1  0  0.136221  0  3.689605  0  0  0.105248  0  3.943926  0  0  0.110852  0  3.962579  0  0  0.05111  0.101565  0  3.931317  0
C  C36  1  0.35991544  0.91904235  0.59188992  1  0  -0.119575  0  3.663919  0  0  -0.140524  0  3.908441  0  0  -0.146128  0  3.928263  0  0  -0.063444  -0.136893  0  3.895201  0
C  C37  1  0.55907111  0.91909034  0.09191497  1  0  -0.120349  0  3.663233  0  0  -0.141247  0  3.908638  0  0  -0.14678  0  3.928451  0  0  -0.063894  -0.137684  0  3.895415  0
C  C38  1  0.64008256  0.08096220  0.40811341  1  0  -0.119536  0  3.663948  0  0  -0.140512  0  3.908423  0  0  -0.146104  0  3.928249  0  0  -0.063458  -0.136882  0  3.895183  0
C  C39  1  0.44092477  0.08090505  0.90808399  1  0  -0.120293  0  3.663181  0  0  -0.141214  0  3.90853  0  0  -0.146748  0  3.928342  0  0  -0.06385  -0.137652  0  3.895305  0
C  C40  1  0.36842431  0.78638211  0.59951884  1  0  0.069427  0  3.853816  0  0  0.086617  0  4.083465  0  0  0.088  0  4.102345  0  0  0.025877  0.085797  0  4.070807  0
C  C41  1  0.41783265  0.78635919  0.09941420  1  0  0.070389  0  3.853099  0  0  0.086696  0  4.084098  0  0  0.088018  0  4.10312  0  0  0.025817  0.085923  0  4.071338  0
C  C42  1  0.63158345  0.21362472  0.40048361  1  0  0.069318  0  3.853942  0  0  0.086574  0  4.083511  0  0  0.087954  0  4.102394  0  0  0.025924  0.085755  0  4.07085  0
C  C43  1  0.58215963  0.21363391  0.90058433  1  0  0.070163  0  3.853098  0  0  0.08657  0  4.083989  0  0  0.087895  0  4.103007  0  0  0.025722  0.085794  0  4.071229  0
C  C44  1  0.27279285  0.64570632  0.53046190  1  0  -0.118855  0  3.674715  0  0  -0.140364  0  3.924042  0  0  -0.145763  0  3.943288  0  0  -0.064816  -0.136922  0  3.911296  0
C  C45  1  0.37292882  0.64577072  0.03029331  1  0  -0.117891  0  3.672411  0  0  -0.139381  0  3.921933  0  0  -0.144705  0  3.941173  0  0  -0.064648  -0.136008  0  3.909227  0
C  C46  1  0.72722836  0.35430278  0.46953704  1  0  -0.118759  0  3.67477  0  0  -0.140277  0  3.924061  0  0  -0.145667  0  3.943273  0  0  -0.064778  -0.136839  0  3.911337  0
C  C47  1  0.62707133  0.35422581  0.96970455  1  0  -0.117872  0  3.672483  0  0  -0.139378  0  3.922005  0  0  -0.144702  0  3.941247  0  0  -0.064629  -0.136001  0  3.909297  0
C  C48  1  0.16799011  0.64356798  0.45751637  1  0  0.134695  0  3.683064  0  0  0.103081  0  3.936782  0  0  0.108832  0  3.955005  0  0  0.050825  0.099308  0  3.92453  0
C  C49  1  0.47569327  0.64377718  0.95737294  1  0  0.133478  0  3.681995  0  0  0.102143  0  3.935634  0  0  0.107917  0  3.95383  0  0  0.050234  0.098329  0  3.923368  0
C  C50  1  0.83202077  0.35643770  0.54248323  1  0  0.134587  0  3.683215  0  0  0.103037  0  3.936894  0  0  0.108785  0  3.955117  0  0  0.050793  0.09924  0  3.924627  0
C  C51  1  0.52430754  0.35621821  0.04262536  1  0  0.133511  0  3.681835  0  0  0.1021  0  3.935543  0  0  0.107875  0  3.953735  0  0  0.050232  0.098287  0  3.923272  0
S  S52  1  0.33331009  0.31307817  0.59362788  1  0  -0.326168  0  2.151706  0  0  -0.28973  0  2.47355  0  0  -0.308102  0  2.467402  0  0  -0.133357  -0.276718  0  2.477414  0
S  S53  1  0.97977119  0.31289522  0.09351741  1  0  -0.325571  0  2.152918  0  0  -0.289428  0  2.475358  0  0  -0.307799  0  2.469215  0  0  -0.133258  -0.276423  0  2.479227  0
S  S54  1  0.66668597  0.68691265  0.40637481  1  0  -0.326115  0  2.151763  0  0  -0.289689  0  2.473625  0  0  -0.308058  0  2.467482  0  0  -0.133328  -0.276679  0  2.477486  0
S  S55  1  0.02022541  0.68711391  0.90648745  1  0  -0.325666  0  2.15245  0  0  -0.289531  0  2.474885  0  0  -0.307906  0  2.46874  0  0  -0.133239  -0.276523  0  2.478755  0
S  S56  1  0.19115464  0.26112832  0.83349059  1  0  -0.3378  0  2.24878  0  0  -0.300823  0  2.577789  0  0  -0.322284  0  2.577313  0  0  -0.135931  -0.285611  0  2.577604  0
S  S57  1  0.06920279  0.26054794  0.33323550  1  0  -0.33791  0  2.249398  0  0  -0.300946  0  2.578477  0  0  -0.322396  0  2.577974  0  0  -0.135679  -0.285804  0  2.578445  0
S  S58  1  0.80883746  0.73886936  0.16651078  1  0  -0.337767  0  2.24897  0  0  -0.300807  0  2.577994  0  0  -0.322261  0  2.57751  0  0  -0.13595  -0.285593  0  2.577807  0
S  S59  1  0.93080334  0.73945317  0.66676587  1  0  -0.337981  0  2.24922  0  0  -0.301008  0  2.578284  0  0  -0.322453  0  2.577782  0  0  -0.135688  -0.28587  0  2.578259  0
N  N60  1  0.57633801  0.49838663  0.75761687  1  0  -0.534537  0  2.855836  0  0  -0.481053  0  3.124803  0  0  -0.501875  0  3.131944  0  0  -0.393677  -0.466768  0  3.119744  0
N  N61  1  0.92212952  0.49798184  0.25765475  1  0  -0.53342  0  2.855516  0  0  -0.479787  0  3.124346  0  0  -0.50063  0  3.131534  0  0  -0.39289  -0.465499  0  3.119268  0
N  N62  1  0.42366098  0.50160760  0.24237465  1  0  -0.534703  0  2.855423  0  0  -0.481215  0  3.124384  0  0  -0.502041  0  3.131525  0  0  -0.393713  -0.466929  0  3.119334  0
N  N63  1  0.07786339  0.50202730  0.74235602  1  0  -0.533519  0  2.856043  0  0  -0.47989  0  3.12487  0  0  -0.500721  0  3.132041  0  0  -0.393005  -0.465608  0  3.119803  0
N  N64  1  0.92581665  0.01542662  0.87813281  1  0  -0.536079  0  2.872995  0  0  -0.480097  0  3.147622  0  0  -0.501439  0  3.154265  0  0  -0.393214  -0.465432  0  3.142884  0
N  N65  1  0.08891670  0.01495874  0.37802682  1  0  -0.536472  0  2.872127  0  0  -0.480396  0  3.146792  0  0  -0.501755  0  3.153399  0  0  -0.393044  -0.465708  0  3.142065  0
N  N66  1  0.07418636  0.98457563  0.12186614  1  0  -0.536105  0  2.872606  0  0  -0.480118  0  3.147233  0  0  -0.501465  0  3.153879  0  0  -0.393231  -0.465449  0  3.142493  0
N  N67  1  0.91107756  0.98503093  0.62197040  1  0  -0.536424  0  2.872429  0  0  -0.480341  0  3.147098  0  0  -0.501701  0  3.153707  0  0  -0.393035  -0.465657  0  3.142369  0
N  N68  1  0.54535281  0.79894837  0.74512445  1  0  -0.390723  0  2.721643  0  0  -0.349659  0  2.971348  0  0  -0.36545  0  2.982933  0  0  -0.291404  -0.339057  0  2.963589  0
N  N69  1  0.25348924  0.79867901  0.24503536  1  0  -0.391013  0  2.719584  0  0  -0.349849  0  2.969157  0  0  -0.365636  0  2.98073  0  0  -0.291564  -0.339258  0  2.961412  0
N  N70  1  0.45465208  0.20105273  0.25487363  1  0  -0.390865  0  2.72121  0  0  -0.349805  0  2.970931  0  0  -0.3656  0  2.98252  0  0  -0.291414  -0.339202  0  2.963169  0
N  N71  1  0.74650295  0.20131638  0.75496360  1  0  -0.391093  0  2.719631  0  0  -0.349919  0  2.969219  0  0  -0.365709  0  2.980789  0  0  -0.291549  -0.339331  0  2.961477  0
N  N72  1  0.15706698  0.76983480  0.45064960  1  0  -0.298913  0  3.230342  0  0  -0.223076  0  3.489878  0  0  -0.240693  0  3.508764  0  0  -0.318155  -0.210987  0  3.476764  0
N  N73  1  0.61287144  0.77012186  0.95062139  1  0  -0.29797  0  3.230087  0  0  -0.222404  0  3.489971  0  0  -0.240008  0  3.508831  0  0  -0.317754  -0.210331  0  3.476911  0
N  N74  1  0.84293907  0.23016860  0.54935285  1  0  -0.298972  0  3.230229  0  0  -0.22319  0  3.4898  0  0  -0.240807  0  3.508681  0  0  -0.318232  -0.211102  0  3.476696  0
N  N75  1  0.38712814  0.22987353  0.04937823  1  0  -0.298022  0  3.229922  0  0  -0.222415  0  3.489788  0  0  -0.240019  0  3.50865  0  0  -0.317731  -0.210341  0  3.476726  0
