# generated using pymatgen
data_AlC21(NO2)15
_symmetry_space_group_name_H-M   'P 1'
_cell_length_a   4.48812914
_cell_length_b   28.31412681
_cell_length_c   28.34334178
_cell_angle_alpha   119.93005573
_cell_angle_beta   89.95915201
_cell_angle_gamma   89.95259704
_symmetry_Int_Tables_number   1
_chemical_formula_structural   AlC21(NO2)15
_chemical_formula_sum   'Al2 C42 N30 O60'
_cell_volume   3121.44257586
_cell_formula_units_Z   2
loop_
 _symmetry_equiv_pos_site_id
 _symmetry_equiv_pos_as_xyz
  1  'x, y, z'
loop_
 _atom_site_type_symbol
 _atom_site_label
 _atom_site_symmetry_multiplicity
 _atom_site_fract_x
 _atom_site_fract_y
 _atom_site_fract_z
 _atom_site_occupancy
 _atom_site_pbe_bader_charge
 _atom_site_pbe_bader_spin_density
 _atom_site_pbe_cm5_charge
 _atom_site_pbe_ddec_charge
 _atom_site_pbe_ddec_spin_density
 _atom_site_pbe_ddec_sum_bond_order
 _atom_site_pbe_magmom
Al  Al0  1  0.98882985  0.49985036  0.49957055  1  2.540742  0  0.517144  1.731015  0  2.3644  0
Al  Al1  1  0.98829719  0.16678841  0.83375096  1  2.540694  0  0.517237  1.731276  0  2.363634  0
C  C2  1  0.48974232  0.46273132  0.41637287  1  1.690385  0  0.286455  0.700567  0  4.056169  0
C  C3  1  0.48953452  0.45373516  0.53679501  1  1.670443  0  0.286603  0.701419  0  4.055914  0
C  C4  1  0.48803756  0.58314107  0.54556346  1  1.721873  0  0.286147  0.699681  0  4.056092  0
C  C5  1  0.48867675  0.21296546  0.79660290  1  1.66974  0  0.286665  0.701117  0  4.05528  0
C  C6  1  0.48871539  0.08351401  0.78764642  1  1.670682  0  0.285943  0.699344  0  4.057663  0
C  C7  1  0.48838101  0.20382118  0.91693343  1  1.688834  0  0.286894  0.701052  0  4.056416  0
C  C8  1  0.49100761  0.24637765  0.76770705  1  0.257101  0  0.022126  -0.073772  0  3.838794  0
C  C9  1  0.50282280  0.22136574  0.71068663  1  0.259884  0  0.094738  0.021236  0  3.891277  0
C  C10  1  0.50971176  0.25115986  0.68364281  1  0.243994  0  0.102893  -0.007341  0  3.863929  0
C  C11  1  0.47872693  0.30849360  0.71288294  1  0.514671  0  0.112451  0.097603  0  3.987136  0
C  C12  1  0.46694452  0.33349246  0.77006183  1  0.250492  0  0.10666  -0.002942  0  3.864876  0
C  C13  1  0.48362923  0.30351449  0.79673926  1  0.208954  0  0.09431  0.022312  0  3.89951  0
C  C14  1  0.46625024  0.33319910  0.56334373  1  0.25025  0  0.106967  -0.003166  0  3.865  0
C  C15  1  0.47835972  0.35820554  0.62051715  1  0.555487  0  0.112295  0.097728  0  3.986526  0
C  C16  1  0.51025442  0.41551212  0.64971674  1  0.200274  0  0.103196  -0.006684  0  3.864108  0
C  C17  1  0.50336263  0.44529762  0.62267165  1  0.260133  0  0.09465  0.020906  0  3.891666  0
C  C18  1  0.49138396  0.42028257  0.56565298  1  0.253691  0  0.022566  -0.073074  0  3.837919  0
C  C19  1  0.48343957  0.36315375  0.53663814  1  0.2124  0  0.09389  0.021888  0  3.898862  0
C  C20  1  0.49143037  0.02124664  0.75416589  1  0.07362  0  0.022607  -0.071626  0  3.836884  0
C  C21  1  0.50386927  0.98901092  0.77902933  1  0.300308  0  0.094431  0.019332  0  3.891433  0
C  C22  1  0.51061704  0.93221864  0.74911406  1  0.258218  0  0.102804  -0.006462  0  3.862516  0
C  C23  1  0.47819768  0.90441994  0.69187904  1  0.469244  0  0.112437  0.097573  0  3.986178  0
C  C24  1  0.46584358  0.93681647  0.66703168  1  0.299761  0  0.107218  -0.002114  0  3.866191  0
C  C25  1  0.48329107  0.99341769  0.69709600  1  0.27824  0  0.093934  0.021367  0  3.899019  0
C  C26  1  0.46668892  0.72976428  0.66635148  1  0.226761  0  0.107099  -0.002422  0  3.866086  0
C  C27  1  0.47880081  0.76223441  0.64159062  1  0.469879  0  0.112981  0.098083  0  3.986096  0
C  C28  1  0.50977957  0.73451185  0.58431956  1  0.261825  0  0.102321  -0.007624  0  3.863216  0
C  C29  1  0.50269782  0.67772382  0.55433440  1  0.346304  0  0.094337  0.019806  0  3.892519  0
C  C30  1  0.49053827  0.64540658  0.57911221  1  0.023969  0  0.022497  -0.071059  0  3.835488  0
C  C31  1  0.48327388  0.67315511  0.63619490  1  0.354439  0  0.094038  0.020954  0  3.89783  0
C  C32  1  0.49014570  0.23256340  0.97911803  1  0.095942  0  0.022462  -0.073207  0  3.838938  0
C  C33  1  0.50431726  0.28961730  0.01111720  1  0.247156  0  0.09416  0.020736  0  3.890443  0
C  C34  1  0.51181353  0.31649716  0.06783480  1  0.297392  0  0.10351  -0.00596  0  3.863689  0
C  C35  1  0.47652082  0.28718222  0.09579272  1  0.479374  0  0.112537  0.097832  0  3.98667  0
C  C36  1  0.46259071  0.22998389  0.06362731  1  0.343442  0  0.107056  -0.002546  0  3.864489  0
C  C37  1  0.48073775  0.20337144  0.00707028  1  0.202932  0  0.094222  0.022238  0  3.898717  0
C  C38  1  0.46392746  0.43681805  0.26976122  1  0.341252  0  0.106756  -0.002808  0  3.86629  0
C  C39  1  0.47711371  0.37961693  0.23751318  1  0.48151  0  0.113014  0.097481  0  3.988766  0
C  C40  1  0.51044755  0.35017657  0.26537933  1  0.322595  0  0.103292  -0.00618  0  3.865402  0
C  C41  1  0.50371764  0.37700385  0.32210515  1  0.22326  0  0.094316  0.020471  0  3.892179  0
C  C42  1  0.49103418  0.43406765  0.35418722  1  0.095524  0  0.022413  -0.073002  0  3.838729  0
C  C43  1  0.48182718  0.46333738  0.32630353  1  0.202681  0  0.09373  0.021263  0  3.900159  0
N  N44  1  0.47146348  0.34449816  0.69239052  1  -0.387216  0  -0.125829  -0.072686  0  3.271564  0
N  N45  1  0.46946242  0.32223652  0.64104667  1  -0.468098  0  -0.125869  -0.072707  0  3.271028  0
N  N46  1  0.46885097  0.84801588  0.65577821  1  -0.454366  0  -0.125796  -0.072611  0  3.272143  0
N  N47  1  0.47201345  0.81863183  0.67778705  1  -0.403156  0  -0.12599  -0.072731  0  3.272002  0
N  N48  1  0.46657876  0.30774618  0.15218593  1  -0.404488  0  -0.125754  -0.073118  0  3.270943  0
N  N49  1  0.46981642  0.35915200  0.18112594  1  -0.476975  0  -0.125759  -0.071681  0  3.269559  0
N  N50  1  0.49353008  0.33430076  0.85724114  1  0.408467  0  0.060277  0.496992  0  4.246226  0
N  N51  1  0.45143703  0.39399972  0.80283220  1  0.435555  0  0.062731  0.49548  0  4.272161  0
N  N52  1  0.51767496  0.16089592  0.67694136  1  0.405778  0  0.061153  0.497943  0  4.234727  0
N  N53  1  0.56304342  0.22077501  0.62388090  1  0.451973  0  0.059205  0.486974  0  4.31137  0
N  N54  1  0.45072029  0.27269342  0.53057250  1  0.445195  0  0.063269  0.496321  0  4.271896  0
N  N55  1  0.49293208  0.33238004  0.47612721  1  0.409278  0  0.060663  0.497611  0  4.245114  0
N  N56  1  0.56446014  0.44586541  0.70943331  1  0.456773  0  0.058876  0.486025  0  4.313581  0
N  N57  1  0.51797054  0.50575831  0.65639925  1  0.407595  0  0.060884  0.497467  0  4.234306  0
N  N58  1  0.49295237  0.02340926  0.66649367  1  0.41701  0  0.059962  0.496817  0  4.246466  0
N  N59  1  0.44947654  0.90942523  0.60660804  1  0.422253  0  0.062706  0.49514  0  4.273112  0
N  N60  1  0.51914178  0.01547193  0.83942909  1  0.465354  0  0.061751  0.498768  0  4.233131  0
N  N61  1  0.56556786  0.90254449  0.77924028  1  0.464099  0  0.059648  0.487274  0  4.312593  0
N  N62  1  0.45068398  0.75714455  0.72676988  1  0.443619  0  0.062469  0.495125  0  4.273831  0
N  N63  1  0.49300769  0.64310566  0.66674579  1  0.422678  0  0.060206  0.497081  0  4.244562  0
N  N64  1  0.56344579  0.76426479  0.55423654  1  0.463714  0  0.059625  0.487892  0  4.310003  0
N  N65  1  0.51781068  0.65134328  0.49393449  1  0.414949  0  0.06138  0.497058  0  4.235081  0
N  N66  1  0.49051102  0.14279608  0.97729859  1  0.484922  0  0.060503  0.497164  0  4.246103  0
N  N67  1  0.44373258  0.19709866  0.09124492  1  0.428463  0  0.062782  0.495281  0  4.27327  0
N  N68  1  0.52126433  0.32341560  0.98442971  1  0.417963  0  0.061493  0.497857  0  4.233335  0
N  N69  1  0.57277859  0.37604598  0.09732793  1  0.462175  0  0.059125  0.486206  0  4.31522  0
N  N70  1  0.44526185  0.46973382  0.24217654  1  0.4344  0  0.062762  0.495672  0  4.271339  0
N  N71  1  0.49108443  0.52391577  0.35615371  1  0.467432  0  0.060403  0.497069  0  4.246023  0
N  N72  1  0.56811655  0.29049041  0.23579721  1  0.452399  0  0.059189  0.486544  0  4.31307  0
N  N73  1  0.52009385  0.34306406  0.34865520  1  0.417882  0  0.061405  0.497767  0  4.235183  0
O  O74  1  0.72760135  0.55956764  0.54501787  1  -1.238987  0  -0.222615  -0.592227  0  2.398813  0
O  O75  1  0.72967828  0.48558115  0.43968860  1  -1.24372  0  -0.222922  -0.592175  0  2.396652  0
O  O76  1  0.72953285  0.45418068  0.51383614  1  -1.241248  0  -0.222883  -0.592679  0  2.396838  0
O  O77  1  0.24525020  0.56196193  0.52216230  1  -1.236916  0  -0.221685  -0.592057  0  2.395012  0
O  O78  1  0.24688446  0.47726523  0.53895321  1  -1.234577  0  -0.222035  -0.592626  0  2.396717  0
O  O79  1  0.24727583  0.46055136  0.43775020  1  -1.238637  0  -0.221894  -0.59246  0  2.397011  0
O  O80  1  0.72838329  0.18085383  0.89351588  1  -1.244016  0  -0.223153  -0.592872  0  2.39658  0
O  O81  1  0.72814284  0.21252287  0.81964494  1  -1.24072  0  -0.22293  -0.592585  0  2.396706  0
O  O82  1  0.72808865  0.10705184  0.78816627  1  -1.235658  0  -0.22237  -0.591561  0  2.398548  0
O  O83  1  0.24576287  0.20602000  0.89565720  1  -1.238804  0  -0.222139  -0.592492  0  2.3965  0
O  O84  1  0.24555395  0.10472094  0.81106350  1  -1.23594  0  -0.221858  -0.592277  0  2.395822  0
O  O85  1  0.24602842  0.18950639  0.79445404  1  -1.236101  0  -0.221913  -0.592451  0  2.39636  0
O  O86  1  0.71068277  0.32500098  0.87795448  1  -0.398718  0  -0.092564  -0.273025  0  2.004692  0
O  O87  1  0.28833466  0.36651966  0.88044151  1  -0.374886  0  -0.080258  -0.251574  0  1.945768  0
O  O88  1  0.23125949  0.41571752  0.79622619  1  -0.373566  0  -0.078696  -0.255396  0  2.01025  0
O  O89  1  0.66510331  0.41586154  0.83331907  1  -0.383328  0  -0.082497  -0.249894  0  1.931179  0
O  O90  1  0.31052116  0.13581560  0.68290646  1  -0.393733  0  -0.089096  -0.266774  0  2.002013  0
O  O91  1  0.73295920  0.14205684  0.64615180  1  -0.379065  0  -0.080566  -0.253391  0  1.95377  0
O  O92  1  0.80438923  0.22960253  0.60913521  1  -0.390021  0  -0.092799  -0.278086  0  2.021374  0
O  O93  1  0.36801094  0.18885137  0.59561161  1  -0.356003  0  -0.068785  -0.227357  0  1.954614  0
O  O94  1  0.23034414  0.25106016  0.53717287  1  -0.380226  0  -0.079082  -0.255889  0  2.010192  0
O  O95  1  0.66479168  0.25074965  0.50008654  1  -0.383892  0  -0.082495  -0.249917  0  1.931511  0
O  O96  1  0.70932818  0.34169934  0.45524678  1  -0.397089  0  -0.092412  -0.272845  0  2.003172  0
O  O97  1  0.28803835  0.30016864  0.45307038  1  -0.377919  0  -0.080828  -0.252304  0  1.945332  0
O  O98  1  0.80657340  0.43699791  0.72389224  1  -0.3936  0  -0.092492  -0.277926  0  2.022789  0
O  O99  1  0.36945601  0.47779312  0.73792865  1  -0.357327  0  -0.068566  -0.226587  0  1.955702  0
O  O100  1  0.31073738  0.53089324  0.65047968  1  -0.395169  0  -0.08886  -0.266307  0  2.001705  0
O  O101  1  0.73300863  0.52454305  0.68714232  1  -0.379378  0  -0.08061  -0.253464  0  1.954261  0
O  O102  1  0.70957590  0.05353403  0.67589270  1  -0.399504  0  -0.092043  -0.272416  0  2.00575  0
O  O103  1  0.28816283  0.01452113  0.63433030  1  -0.371741  0  -0.080607  -0.25195  0  1.947681  0
O  O104  1  0.22869689  0.88138367  0.58505489  1  -0.360247  0  -0.078862  -0.255576  0  2.011945  0
O  O105  1  0.66321421  0.91802595  0.58464748  1  -0.373304  0  -0.082269  -0.249571  0  1.931857  0
O  O106  1  0.31226755  0.04655833  0.86466961  1  -0.416856  0  -0.088831  -0.266068  0  1.998767  0
O  O107  1  0.73444936  0.00330855  0.85807067  1  -0.376503  0  -0.081194  -0.254536  0  1.953944  0
O  O108  1  0.80803566  0.87926052  0.77026382  1  -0.402767  0  -0.092516  -0.278403  0  2.022192  0
O  O109  1  0.37093053  0.90569523  0.81109408  1  -0.363637  0  -0.069091  -0.227037  0  1.955534  0
O  O110  1  0.23017571  0.78538841  0.74844225  1  -0.382553  0  -0.078321  -0.255115  0  2.011252  0
O  O111  1  0.66423265  0.74837257  0.74861613  1  -0.375365  0  -0.082729  -0.250008  0  1.931129  0
O  O112  1  0.70988591  0.61294139  0.65730163  1  -0.39939  0  -0.092552  -0.272818  0  2.004706  0
O  O113  1  0.28800251  0.65202785  0.69894845  1  -0.378372  0  -0.080385  -0.251791  0  1.946529  0
O  O114  1  0.80479269  0.78781315  0.56325731  1  -0.398528  0  -0.093132  -0.279217  0  2.021874  0
O  O115  1  0.36870350  0.76094787  0.52237698  1  -0.367889  0  -0.068832  -0.227006  0  1.953974  0
O  O116  1  0.31107977  0.62033976  0.46875918  1  -0.415616  0  -0.088955  -0.265758  0  1.999731  0
O  O117  1  0.73303486  0.66346733  0.47523208  1  -0.374252  0  -0.080681  -0.253462  0  1.953825  0
O  O118  1  0.70772022  0.12204081  0.94727167  1  -0.411427  0  -0.092621  -0.27268  0  2.003486  0
O  O119  1  0.28541727  0.11957357  0.98626820  1  -0.378115  0  -0.080526  -0.252204  0  1.94728  0
O  O120  1  0.22175527  0.20385156  0.11918877  1  -0.373386  0  -0.078718  -0.255506  0  2.012446  0
O  O121  1  0.65655571  0.16639209  0.08291296  1  -0.37146  0  -0.082104  -0.249032  0  1.931344  0
O  O122  1  0.31488928  0.31767733  0.95336592  1  -0.396112  0  -0.088852  -0.265885  0  1.999253  0
O  O123  1  0.73716089  0.35401296  0.99638563  1  -0.387486  0  -0.080648  -0.253915  0  1.954429  0
O  O124  1  0.81717317  0.38922330  0.11993926  1  -0.391824  0  -0.09373  -0.280204  0  2.022555  0
O  O125  1  0.38165200  0.40563524  0.09473903  1  -0.363154  0  -0.068343  -0.225496  0  1.954338  0
O  O126  1  0.22380113  0.46292179  0.21416063  1  -0.374055  0  -0.078938  -0.256095  0  2.010044  0
O  O127  1  0.65748401  0.50048799  0.25054622  1  -0.377943  0  -0.082336  -0.249311  0  1.930326  0
O  O128  1  0.70780904  0.54461645  0.38619580  1  -0.400053  0  -0.092528  -0.272777  0  2.002273  0
O  O129  1  0.28596439  0.54719944  0.34723577  1  -0.373881  0  -0.080346  -0.251699  0  1.947608  0
O  O130  1  0.81103150  0.27661530  0.21260515  1  -0.384884  0  -0.093189  -0.278925  0  2.022053  0
O  O131  1  0.37553899  0.26145944  0.23891600  1  -0.362323  0  -0.06909  -0.227087  0  1.954161  0
O  O132  1  0.31332819  0.34877478  0.37969435  1  -0.393771  0  -0.088929  -0.265695  0  1.999372  0
O  O133  1  0.73608871  0.31237570  0.33658361  1  -0.386335  0  -0.080573  -0.253849  0  1.954228  0
