# generated using pymatgen
data_Zn3H20C28(N3O5)2
_symmetry_space_group_name_H-M   'P 1'
_cell_length_a   10.10210747
_cell_length_b   12.18125634
_cell_length_c   12.21705188
_cell_angle_alpha   90.00011861
_cell_angle_beta   105.17020451
_cell_angle_gamma   89.99962123
_symmetry_Int_Tables_number   1
_chemical_formula_structural   Zn3H20C28(N3O5)2
_chemical_formula_sum   'Zn6 H40 C56 N12 O20'
_cell_volume   1450.99701709
_cell_formula_units_Z   2
loop_
 _symmetry_equiv_pos_site_id
 _symmetry_equiv_pos_as_xyz
  1  'x, y, z'
loop_
 _atom_site_type_symbol
 _atom_site_label
 _atom_site_symmetry_multiplicity
 _atom_site_fract_x
 _atom_site_fract_y
 _atom_site_fract_z
 _atom_site_occupancy
 _atom_site_hle17_bader_spin_density
 _atom_site_hle17_ddec_charge
 _atom_site_hle17_ddec_spin_density
 _atom_site_hle17_ddec_sum_bond_order
 _atom_site_hle17_magmom
 _atom_site_hse06_10hf_bader_spin_density
 _atom_site_hse06_10hf_ddec_charge
 _atom_site_hse06_10hf_ddec_spin_density
 _atom_site_hse06_10hf_ddec_sum_bond_order
 _atom_site_hse06_10hf_magmom
 _atom_site_hse06_bader_spin_density
 _atom_site_hse06_ddec_charge
 _atom_site_hse06_ddec_spin_density
 _atom_site_hse06_ddec_sum_bond_order
 _atom_site_hse06_magmom
 _atom_site_pbe_bader_spin_density
 _atom_site_pbe_cm5_charge
 _atom_site_pbe_ddec_charge
 _atom_site_pbe_ddec_spin_density
 _atom_site_pbe_ddec_sum_bond_order
 _atom_site_pbe_magmom
Zn  Zn0  1  0.50000054  0.50000012  0.50000037  1  0  1.071757  0  1.80196  0  0  0.902079  0  2.245073  0  0  0.944507  0  2.195321  0  0  0.699358  0.872992  0  2.278533  0
Zn  Zn1  1  0.00000042  0.00000052  0.50000018  1  0  1.071763  0  1.801943  0  0  0.90209  0  2.245054  0  0  0.944515  0  2.195304  0  0  0.699376  0.873003  0  2.278524  0
Zn  Zn2  1  0.48690707  0.86793572  0.30122344  1  0  1.019908  0  1.870097  0  0  0.830343  0  2.351636  0  0  0.874613  0  2.298548  0  0  0.711248  0.799079  0  2.388272  0
Zn  Zn3  1  0.01309304  0.36793811  0.69877521  1  0  1.019855  0  1.870051  0  0  0.830297  0  2.351617  0  0  0.874564  0  2.298531  0  0  0.711223  0.799025  0  2.388216  0
Zn  Zn4  1  0.51309402  0.13206451  0.69877729  1  0  1.019888  0  1.870098  0  0  0.830338  0  2.351634  0  0  0.874606  0  2.298547  0  0  0.711255  0.79907  0  2.38828  0
Zn  Zn5  1  0.98690803  0.63206294  0.30122388  1  0  1.019892  0  1.87007  0  0  0.830342  0  2.351612  0  0  0.874609  0  2.298528  0  0  0.711246  0.799065  0  2.388251  0
H  H6  1  0.86782512  0.92704827  0.92506574  1  0  0.08494  0  0.979835  0  0  0.09633  0  1.041841  0  0  0.098791  0  1.04161  0  0  0.094375  0.094628  0  1.041988  0
H  H7  1  0.63217464  0.42704953  0.07493717  1  0  0.084931  0  0.979842  0  0  0.096318  0  1.04185  0  0  0.098779  0  1.04162  0  0  0.094357  0.094619  0  1.042006  0
H  H8  1  0.13217185  0.07295032  0.07493249  1  0  0.085011  0  0.979727  0  0  0.096353  0  1.041788  0  0  0.098815  0  1.041556  0  0  0.094371  0.094652  0  1.041943  0
H  H9  1  0.36782750  0.57294824  0.92506624  1  0  0.084988  0  0.979757  0  0  0.09633  0  1.041815  0  0  0.098792  0  1.041583  0  0  0.094357  0.09463  0  1.041967  0
H  H10  1  0.46176798  0.52073755  0.23867562  1  0  0.090324  0  0.933571  0  0  0.097458  0  0.998456  0  0  0.099528  0  0.997463  0  0  0.122949  0.095898  0  0.999335  0
H  H11  1  0.03822978  0.02073829  0.76132757  1  0  0.090328  0  0.933583  0  0  0.097459  0  0.998456  0  0  0.09953  0  0.997463  0  0  0.122949  0.095897  0  0.999331  0
H  H12  1  0.53823003  0.47926268  0.76132447  1  0  0.090283  0  0.933604  0  0  0.097427  0  0.998473  0  0  0.099496  0  0.99748  0  0  0.122938  0.095869  0  0.999346  0
H  H13  1  0.96176721  0.97926030  0.23867230  1  0  0.090292  0  0.933568  0  0  0.097439  0  0.998431  0  0  0.09951  0  0.997438  0  0  0.122942  0.095882  0  0.999305  0
H  H14  1  0.42296176  0.38632278  0.07713208  1  0  0.104522  0  0.960476  0  0  0.115509  0  1.018063  0  0  0.117977  0  1.017974  0  0  0.110983  0.113693  0  1.018271  0
H  H15  1  0.07703620  0.88632148  0.92287025  1  0  0.104509  0  0.960477  0  0  0.115481  0  1.018088  0  0  0.117961  0  1.017983  0  0  0.110969  0.113666  0  1.018293  0
H  H16  1  0.57703626  0.61367827  0.92286883  1  0  0.104488  0  0.960524  0  0  0.115481  0  1.018116  0  0  0.117949  0  1.018027  0  0  0.110977  0.113667  0  1.018318  0
H  H17  1  0.92296181  0.11367711  0.07712983  1  0  0.104469  0  0.960524  0  0  0.115458  0  1.018118  0  0  0.117925  0  1.018029  0  0  0.11097  0.113646  0  1.01832  0
H  H18  1  0.68311500  0.04468662  0.95453321  1  0  0.08659  0  0.965545  0  0  0.096443  0  1.029951  0  0  0.099226  0  1.028921  0  0  0.095084  0.09442  0  1.030802  0
H  H19  1  0.81688366  0.54468628  0.04546953  1  0  0.086605  0  0.965523  0  0  0.0965  0  1.029893  0  0  0.099285  0  1.028859  0  0  0.095102  0.094475  0  1.030747  0
H  H20  1  0.31688198  0.95531279  0.04546584  1  0  0.086549  0  0.965572  0  0  0.09642  0  1.029962  0  0  0.099204  0  1.02893  0  0  0.095083  0.094399  0  1.030813  0
H  H21  1  0.18311745  0.45531149  0.95453366  1  0  0.08658  0  0.965541  0  0  0.096448  0  1.029938  0  0  0.099232  0  1.028907  0  0  0.095087  0.094424  0  1.030788  0
H  H22  1  0.94740547  0.76184168  0.04634269  1  0  0.102441  0  0.96366  0  0  0.11319  0  1.023824  0  0  0.115676  0  1.023722  0  0  0.099036  0.111365  0  1.024076  0
H  H23  1  0.55259348  0.26184439  0.95365481  1  0  0.102456  0  0.963644  0  0  0.113202  0  1.023806  0  0  0.115668  0  1.023729  0  0  0.099027  0.111377  0  1.02406  0
H  H24  1  0.05259356  0.23815855  0.95365679  1  0  0.102438  0  0.96366  0  0  0.113187  0  1.023824  0  0  0.115657  0  1.023741  0  0  0.099031  0.111363  0  1.024071  0
H  H25  1  0.44740657  0.73815421  0.04634488  1  0  0.10246  0  0.963631  0  0  0.113207  0  1.0238  0  0  0.115687  0  1.023704  0  0  0.099022  0.111377  0  1.024054  0
H  H26  1  0.56394230  0.00078009  0.10538110  1  0  0.101915  0  0.977183  0  0  0.111056  0  1.04278  0  0  0.113962  0  1.041551  0  0  0.099324  0.108947  0  1.043805  0
H  H27  1  0.93605464  0.50078250  0.89462037  1  0  0.101924  0  0.97718  0  0  0.111054  0  1.042796  0  0  0.11396  0  1.041568  0  0  0.09932  0.108945  0  1.043815  0
H  H28  1  0.43605570  0.99921932  0.89461816  1  0  0.101913  0  0.977211  0  0  0.111051  0  1.042812  0  0  0.113957  0  1.041584  0  0  0.099328  0.108944  0  1.043831  0
H  H29  1  0.06394544  0.49921856  0.10538179  1  0  0.101925  0  0.977203  0  0  0.111063  0  1.042805  0  0  0.113969  0  1.041576  0  0  0.099326  0.108954  0  1.043822  0
H  H30  1  0.41219110  0.18597652  0.11850038  1  0  0.098517  0  0.969346  0  0  0.108135  0  1.03212  0  0  0.110206  0  1.032264  0  0  0.10604  0.106603  0  1.032077  0
H  H31  1  0.08780635  0.68597590  0.88149899  1  0  0.098524  0  0.969367  0  0  0.108128  0  1.03215  0  0  0.110206  0  1.032283  0  0  0.106041  0.106597  0  1.032102  0
H  H32  1  0.58780896  0.81402371  0.88150013  1  0  0.098521  0  0.969356  0  0  0.108135  0  1.032128  0  0  0.110209  0  1.032268  0  0  0.106042  0.106603  0  1.032073  0
H  H33  1  0.91219267  0.31402269  0.11849967  1  0  0.09853  0  0.969366  0  0  0.108144  0  1.032141  0  0  0.110212  0  1.032287  0  0  0.106037  0.106616  0  1.032089  0
H  H34  1  0.70127309  0.66482805  0.34327038  1  0  0.089036  0  0.942418  0  0  0.098564  0  1.006605  0  0  0.101186  0  1.002697  0  0  0.131287  0.096575  0  1.009474  0
H  H35  1  0.79872557  0.16483452  0.65672523  1  0  0.089003  0  0.942473  0  0  0.098582  0  1.006582  0  0  0.101205  0  1.002674  0  0  0.131273  0.096593  0  1.009453  0
H  H36  1  0.29872902  0.33517137  0.65673057  1  0  0.089029  0  0.942423  0  0  0.098555  0  1.006609  0  0  0.101177  0  1.002702  0  0  0.131288  0.096563  0  1.009475  0
H  H37  1  0.20127447  0.83516817  0.34327364  1  0  0.08899  0  0.94249  0  0  0.098568  0  1.006604  0  0  0.101189  0  1.002697  0  0  0.131285  0.096577  0  1.009469  0
H  H38  1  0.76109725  0.47480983  0.45273315  1  0  0.439948  0  0.853708  0  0  0.410025  0  0.915814  0  0  0.419888  0  0.901425  0  0  0.293977  0.40315  0  0.925837  0
H  H39  1  0.73890209  0.97481014  0.54726568  1  0  0.43997  0  0.853675  0  0  0.410048  0  0.915781  0  0  0.41991  0  0.901392  0  0  0.293993  0.403171  0  0.925805  0
H  H40  1  0.23890177  0.52518958  0.54726551  1  0  0.439942  0  0.853716  0  0  0.410016  0  0.915829  0  0  0.419878  0  0.90144  0  0  0.293974  0.403137  0  0.925854  0
H  H41  1  0.26109796  0.02518927  0.45273401  1  0  0.439939  0  0.853724  0  0  0.410013  0  0.915837  0  0  0.419877  0  0.901446  0  0  0.293974  0.403137  0  0.925858  0
H  H42  1  0.80235055  0.51948094  0.57903097  1  0  0.431733  0  0.855912  0  0  0.40312  0  0.914762  0  0  0.412976  0  0.900336  0  0  0.295603  0.396165  0  0.925002  0
H  H43  1  0.69764826  0.01948009  0.42096683  1  0  0.431701  0  0.855954  0  0  0.403088  0  0.914804  0  0  0.412944  0  0.900379  0  0  0.295594  0.396137  0  0.925042  0
H  H44  1  0.19765053  0.48051765  0.42096812  1  0  0.431727  0  0.855917  0  0  0.403118  0  0.914759  0  0  0.412974  0  0.900333  0  0  0.295605  0.396161  0  0.925003  0
H  H45  1  0.30235076  0.98051850  0.57903183  1  0  0.431718  0  0.855929  0  0  0.403112  0  0.914765  0  0  0.412968  0  0.900339  0  0  0.29561  0.396154  0  0.925012  0
C  C46  1  0.46618175  0.29157824  0.38325346  1  0  0.084415  0  3.701481  0  0  0.078834  0  3.934463  0  0  0.079882  0  3.953481  0  0  0.119136  0.077846  0  3.922369  0
C  C47  1  0.03382001  0.79157818  0.61674784  1  0  0.084508  0  3.701417  0  0  0.078917  0  3.934404  0  0  0.079966  0  3.953419  0  0  0.11914  0.07792  0  3.92232  0
C  C48  1  0.53382036  0.70842200  0.61674749  1  0  0.084347  0  3.701563  0  0  0.078772  0  3.934502  0  0  0.07982  0  3.953519  0  0  0.119117  0.077773  0  3.922419  0
C  C49  1  0.96618107  0.20842123  0.38325125  1  0  0.084448  0  3.701444  0  0  0.078851  0  3.93444  0  0  0.0799  0  3.953456  0  0  0.119139  0.077863  0  3.922358  0
C  C50  1  0.82028678  0.90581503  0.99257135  1  0  -0.098952  0  3.823582  0  0  -0.115176  0  4.07964  0  0  -0.117867  0  4.102605  0  0  -0.10877  -0.113085  0  4.063606  0
C  C51  1  0.67971313  0.40581670  0.00742992  1  0  -0.098977  0  3.823675  0  0  -0.115195  0  4.079741  0  0  -0.117885  0  4.102699  0  0  -0.108742  -0.113109  0  4.063722  0
C  C52  1  0.17971121  0.09418438  0.00742709  1  0  -0.099025  0  3.823642  0  0  -0.115211  0  4.079697  0  0  -0.117902  0  4.102658  0  0  -0.108759  -0.113132  0  4.063684  0
C  C53  1  0.32028797  0.59418189  0.99257164  1  0  -0.098984  0  3.823594  0  0  -0.115165  0  4.079639  0  0  -0.117855  0  4.102601  0  0  -0.108718  -0.113079  0  4.063619  0
C  C54  1  0.45700327  0.43255619  0.25222561  1  0  0.159111  0  3.657398  0  0  0.122925  0  3.912043  0  0  0.131183  0  3.927152  0  0  0.063944  0.117183  0  3.902537  0
C  C55  1  0.04299535  0.93255554  0.74777695  1  0  0.159037  0  3.657532  0  0  0.122881  0  3.912154  0  0  0.131134  0  3.927271  0  0  0.063884  0.11714  0  3.90264  0
C  C56  1  0.54299578  0.56744486  0.74777551  1  0  0.159116  0  3.657395  0  0  0.122949  0  3.912037  0  0  0.131207  0  3.927146  0  0  0.063946  0.117204  0  3.902529  0
C  C57  1  0.95700163  0.06744387  0.25222292  1  0  0.159092  0  3.657315  0  0  0.122924  0  3.911956  0  0  0.13118  0  3.927067  0  0  0.063949  0.117187  0  3.902451  0
C  C58  1  0.43614573  0.35733896  0.16336688  1  0  -0.095485  0  3.722418  0  0  -0.109707  0  3.97674  0  0  -0.114562  0  3.995722  0  0  -0.072789  -0.106671  0  3.964324  0
C  C59  1  0.06385347  0.85734001  0.83663483  1  0  -0.095368  0  3.72232  0  0  -0.109596  0  3.976643  0  0  -0.114459  0  3.995619  0  0  -0.072751  -0.106565  0  3.96423  0
C  C60  1  0.56385331  0.64266127  0.83663342  1  0  -0.095391  0  3.722399  0  0  -0.109639  0  3.976727  0  0  -0.114493  0  3.995706  0  0  -0.07278  -0.106611  0  3.964313  0
C  C61  1  0.93614555  0.14266104  0.16336465  1  0  -0.095317  0  3.72235  0  0  -0.109548  0  3.976658  0  0  -0.114399  0  3.995637  0  0  -0.072743  -0.106518  0  3.96425  0
C  C62  1  0.71267781  0.97251678  0.00823694  1  0  -0.099581  0  3.832965  0  0  -0.112979  0  4.087133  0  0  -0.11576  0  4.109755  0  0  -0.108983  -0.11081  0  4.071352  0
C  C63  1  0.78732262  0.47251745  0.99176539  1  0  -0.099582  0  3.833178  0  0  -0.113019  0  4.087344  0  0  -0.115798  0  4.109965  0  0  -0.109006  -0.110849  0  4.071565  0
C  C64  1  0.28732020  0.02748263  0.99176233  1  0  -0.099538  0  3.83309  0  0  -0.112942  0  4.087242  0  0  -0.115721  0  4.109866  0  0  -0.108989  -0.110775  0  4.071475  0
C  C65  1  0.21267951  0.52748196  0.00823638  1  0  -0.09955  0  3.833075  0  0  -0.112958  0  4.087241  0  0  -0.115739  0  4.109863  0  0  -0.108994  -0.110794  0  4.071464  0
C  C66  1  0.86402872  0.81288674  0.05898927  1  0  -0.15872  0  3.758292  0  0  -0.173766  0  4.006358  0  0  -0.176994  0  4.027725  0  0  -0.10076  -0.171535  0  3.991905  0
C  C67  1  0.63596984  0.31289060  0.94100825  1  0  -0.158743  0  3.75834  0  0  -0.173756  0  4.006413  0  0  -0.176968  0  4.027789  0  0  -0.100776  -0.171531  0  3.991973  0
C  C68  1  0.13597031  0.18711185  0.94100939  1  0  -0.158764  0  3.75838  0  0  -0.173801  0  4.006423  0  0  -0.177019  0  4.027799  0  0  -0.100808  -0.171574  0  3.991971  0
C  C69  1  0.36403023  0.68710963  0.05899227  1  0  -0.158765  0  3.758319  0  0  -0.173788  0  4.006382  0  0  -0.177012  0  4.027751  0  0  -0.100778  -0.171554  0  3.991931  0
C  C70  1  0.64511318  0.94839967  0.09110660  1  0  -0.159973  0  3.778474  0  0  -0.17622  0  4.024941  0  0  -0.178932  0  4.045186  0  0  -0.101117  -0.174367  0  4.011318  0
C  C71  1  0.85488435  0.44840144  0.90889425  1  0  -0.160038  0  3.778715  0  0  -0.176261  0  4.025234  0  0  -0.178972  0  4.045479  0  0  -0.101159  -0.174408  0  4.011603  0
C  C72  1  0.35488482  0.05159974  0.90889266  1  0  -0.159986  0  3.778527  0  0  -0.176236  0  4.025015  0  0  -0.17895  0  4.045263  0  0  -0.101159  -0.174386  0  4.011397  0
C  C73  1  0.14511470  0.55159879  0.09110687  1  0  -0.160047  0  3.778562  0  0  -0.176303  0  4.025042  0  0  -0.179016  0  4.045294  0  0  -0.101185  -0.174449  0  4.011412  0
C  C74  1  0.68696232  0.85457187  0.15699445  1  0  0.142379  0  3.835183  0  0  0.142332  0  4.070899  0  0  0.145654  0  4.095291  0  0  0.078685  0.139889  0  4.054652  0
C  C75  1  0.81303693  0.35457701  0.84300248  1  0  0.142538  0  3.835157  0  0  0.142441  0  4.070981  0  0  0.145764  0  4.095373  0  0  0.078821  0.14  0  4.054727  0
C  C76  1  0.31303670  0.14542672  0.84300421  1  0  0.142406  0  3.835211  0  0  0.142349  0  4.070942  0  0  0.145669  0  4.095335  0  0  0.078708  0.139898  0  4.054705  0
C  C77  1  0.18696312  0.64542569  0.15699640  1  0  0.142448  0  3.835198  0  0  0.142415  0  4.070919  0  0  0.145735  0  4.09531  0  0  0.07874  0.139966  0  4.054673  0
C  C78  1  0.44238095  0.21144855  0.29835747  1  0  -0.068153  0  3.667887  0  0  -0.053093  0  3.905018  0  0  -0.059141  0  3.923363  0  0  0.00882  -0.049666  0  3.893396  0
C  C79  1  0.05762041  0.71145018  0.70164358  1  0  -0.068143  0  3.667964  0  0  -0.05309  0  3.905086  0  0  -0.059139  0  3.923431  0  0  0.008831  -0.049661  0  3.893468  0
C  C80  1  0.55762015  0.78855168  0.70164408  1  0  -0.068142  0  3.667875  0  0  -0.053039  0  3.904923  0  0  -0.059085  0  3.923268  0  0  0.008819  -0.049613  0  3.893306  0
C  C81  1  0.94238066  0.28855006  0.29835551  1  0  -0.068119  0  3.667876  0  0  -0.053061  0  3.904996  0  0  -0.059107  0  3.923338  0  0  0.008815  -0.049632  0  3.893376  0
C  C82  1  0.79547493  0.78700135  0.14170230  1  0  0.146192  0  3.822303  0  0  0.144848  0  4.06262  0  0  0.148367  0  4.087066  0  0  0.079686  0.142288  0  4.046218  0
C  C83  1  0.70452381  0.28700465  0.85829439  1  0  0.146173  0  3.822381  0  0  0.144743  0  4.06281  0  0  0.148261  0  4.087253  0  0  0.079657  0.142182  0  4.046413  0
C  C84  1  0.20452409  0.21299807  0.85829636  1  0  0.14619  0  3.822373  0  0  0.144853  0  4.062679  0  0  0.148375  0  4.087122  0  0  0.079722  0.142298  0  4.046273  0
C  C85  1  0.29547624  0.71299640  0.14170530  1  0  0.146212  0  3.822402  0  0  0.144781  0  4.062777  0  0  0.1483  0  4.087221  0  0  0.079686  0.142224  0  4.046375  0
C  C86  1  0.42271584  0.09071641  0.31697314  1  0  0.687949  0  3.89552  0  0  0.627175  0  4.206655  0  0  0.662791  0  4.19576  0  0  0.218275  0.603021  0  4.213177  0
C  C87  1  0.07728131  0.59071789  0.68302434  1  0  0.688009  0  3.895535  0  0  0.627262  0  4.206624  0  0  0.662877  0  4.19573  0  0  0.218302  0.603107  0  4.213149  0
C  C88  1  0.57728627  0.90928382  0.68302699  1  0  0.687933  0  3.895552  0  0  0.627155  0  4.206669  0  0  0.66277  0  4.195779  0  0  0.218281  0.603003  0  4.21319  0
C  C89  1  0.92271873  0.40928234  0.31697371  1  0  0.687968  0  3.8955  0  0  0.627233  0  4.206579  0  0  0.662845  0  4.195686  0  0  0.218322  0.603087  0  4.213091  0
C  C90  1  0.42976125  0.24633896  0.18663242  1  0  -0.018431  0  3.674349  0  0  -0.044657  0  3.918006  0  0  -0.041725  0  3.935452  0  0  -0.058122  -0.046404  0  3.906424  0
C  C91  1  0.07023676  0.74633829  0.81336801  1  0  -0.018514  0  3.674319  0  0  -0.04473  0  3.91799  0  0  -0.041804  0  3.935435  0  0  -0.058147  -0.046479  0  3.90641  0
C  C92  1  0.57023881  0.75366128  0.81336810  1  0  -0.018504  0  3.67436  0  0  -0.044734  0  3.918013  0  0  -0.041804  0  3.935455  0  0  -0.05816  -0.046482  0  3.906423  0
C  C93  1  0.92976227  0.25366030  0.18663147  1  0  -0.018584  0  3.674378  0  0  -0.044813  0  3.918059  0  0  -0.041879  0  3.935499  0  0  -0.058169  -0.046567  0  3.906482  0
C  C94  1  0.71470970  0.71858676  0.27594370  1  0  0.273252  0  3.705578  0  0  0.21591  0  3.976877  0  0  0.234286  0  3.986824  0  0  0.146062  0.203973  0  3.969455  0
C  C95  1  0.78528753  0.21859099  0.72405254  1  0  0.273227  0  3.705844  0  0  0.21584  0  3.977119  0  0  0.234216  0  3.987069  0  0  0.146089  0.203901  0  3.9697  0
C  C96  1  0.28529139  0.28141347  0.72405703  1  0  0.273291  0  3.705622  0  0  0.21596  0  3.976916  0  0  0.234337  0  3.986863  0  0  0.146091  0.204015  0  3.969494  0
C  C97  1  0.21471149  0.78141089  0.27594612  1  0  0.273308  0  3.705843  0  0  0.215906  0  3.97712  0  0  0.234284  0  3.987067  0  0  0.146105  0.203966  0  3.969696  0
C  C98  1  0.48874327  0.26555964  0.50732678  1  0  0.620351  0  3.903806  0  0  0.569353  0  4.192409  0  0  0.603294  0  4.185571  0  0  0.217487  0.546372  0  4.196376  0
C  C99  1  0.01125973  0.76556273  0.49267555  1  0  0.620243  0  3.90411  0  0  0.569255  0  4.192705  0  0  0.603197  0  4.185869  0  0  0.217464  0.54628  0  4.196663  0
C  C100  1  0.51125886  0.73444059  0.49267499  1  0  0.620371  0  3.903844  0  0  0.569382  0  4.192427  0  0  0.603324  0  4.185589  0  0  0.217501  0.546415  0  4.196382  0
C  C101  1  0.98874135  0.23443996  0.50732436  1  0  0.620281  0  3.903975  0  0  0.569309  0  4.192556  0  0  0.60325  0  4.185722  0  0  0.217498  0.546325  0  4.196526  0
N  N102  1  0.47214626  0.39931503  0.35897818  1  0  -0.318788  0  3.294727  0  0  -0.240412  0  3.551468  0  0  -0.257088  0  3.567234  0  0  -0.316571  -0.229505  0  3.541501  0
N  N103  1  0.02785568  0.89931670  0.64102338  1  0  -0.318825  0  3.294697  0  0  -0.240452  0  3.551416  0  0  -0.257129  0  3.567182  0  0  -0.316535  -0.229536  0  3.541442  0
N  N104  1  0.52785483  0.60068520  0.64102256  1  0  -0.318755  0  3.294715  0  0  -0.2404  0  3.551465  0  0  -0.25708  0  3.567232  0  0  -0.316551  -0.229481  0  3.541489  0
N  N105  1  0.97214437  0.10068436  0.35897550  1  0  -0.318784  0  3.294666  0  0  -0.240419  0  3.551428  0  0  -0.257099  0  3.567197  0  0  -0.316578  -0.229521  0  3.541474  0
N  N106  1  0.63831958  0.80887483  0.24291441  1  0  -0.468259  0  3.259172  0  0  -0.387029  0  3.558448  0  0  -0.410078  0  3.567922  0  0  -0.375679  -0.371047  0  3.551571  0
N  N107  1  0.86167798  0.30887953  0.75708290  1  0  -0.468217  0  3.259201  0  0  -0.386969  0  3.558503  0  0  -0.410015  0  3.567967  0  0  -0.375704  -0.370983  0  3.551612  0
N  N108  1  0.36168048  0.19112458  0.75708529  1  0  -0.468274  0  3.259185  0  0  -0.387058  0  3.558488  0  0  -0.410104  0  3.567955  0  0  -0.375695  -0.37108  0  3.551621  0
N  N109  1  0.13832105  0.69112317  0.24291658  1  0  -0.468194  0  3.259204  0  0  -0.386956  0  3.558476  0  0  -0.410005  0  3.567954  0  0  -0.375666  -0.370968  0  3.551589  0
N  N110  1  0.81068471  0.70094540  0.21894837  1  0  -0.49216  0  3.24951  0  0  -0.414054  0  3.552878  0  0  -0.437166  0  3.561482  0  0  -0.382132  -0.397933  0  3.546467  0
N  N111  1  0.68931367  0.20095027  0.78104726  1  0  -0.492227  0  3.24977  0  0  -0.414016  0  3.553074  0  0  -0.437129  0  3.561681  0  0  -0.382198  -0.397904  0  3.546676  0
N  N112  1  0.18931534  0.29905483  0.78105133  1  0  -0.492128  0  3.249569  0  0  -0.414018  0  3.552923  0  0  -0.437131  0  3.561527  0  0  -0.382135  -0.397891  0  3.5465  0
N  N113  1  0.31068636  0.79905160  0.21895079  1  0  -0.492306  0  3.249806  0  0  -0.414093  0  3.553108  0  0  -0.437207  0  3.561711  0  0  -0.382218  -0.397981  0  3.546707  0
O  O114  1  0.52435067  0.02918306  0.30838284  1  0  -0.657696  0  2.050255  0  0  -0.575409  0  2.313893  0  0  -0.604346  0  2.296843  0  0  -0.319915  -0.555099  0  2.325279  0
O  O115  1  0.97564806  0.52918565  0.69161415  1  0  -0.657748  0  2.050285  0  0  -0.57546  0  2.313892  0  0  -0.604395  0  2.296851  0  0  -0.319941  -0.555145  0  2.32527  0
O  O116  1  0.47565042  0.97081635  0.69161707  1  0  -0.657659  0  2.05019  0  0  -0.575399  0  2.313862  0  0  -0.604329  0  2.296797  0  0  -0.319911  -0.555083  0  2.325243  0
O  O117  1  0.02435097  0.47081458  0.30838451  1  0  -0.65774  0  2.050285  0  0  -0.575458  0  2.313889  0  0  -0.604395  0  2.296851  0  0  -0.319956  -0.555141  0  2.325263  0
O  O118  1  0.30992750  0.05727355  0.32705905  1  0  -0.608982  0  1.936427  0  0  -0.561604  0  2.159885  0  0  -0.586728  0  2.151105  0  0  -0.306907  -0.543605  0  2.165228  0
O  O119  1  0.19007196  0.55727439  0.67293884  1  0  -0.609023  0  1.936397  0  0  -0.561642  0  2.159819  0  0  -0.586766  0  2.151041  0  0  -0.306935  -0.54365  0  2.165168  0
O  O120  1  0.69007254  0.94272586  0.67293982  1  0  -0.608972  0  1.936516  0  0  -0.561593  0  2.159978  0  0  -0.586711  0  2.151188  0  0  -0.306902  -0.5436  0  2.165326  0
O  O121  1  0.80992809  0.44272584  0.32706003  1  0  -0.608984  0  1.936367  0  0  -0.561621  0  2.159809  0  0  -0.586739  0  2.151018  0  0  -0.306924  -0.543629  0  2.165157  0
O  O122  1  0.50470657  0.34393993  0.57758089  1  0  -0.604957  0  2.050698  0  0  -0.546201  0  2.308344  0  0  -0.572201  0  2.297108  0  0  -0.300519  -0.528243  0  2.315486  0
O  O123  1  0.99529793  0.84393856  0.42242122  1  0  -0.604857  0  2.050894  0  0  -0.546132  0  2.308567  0  0  -0.572128  0  2.297331  0  0  -0.300506  -0.528181  0  2.315712  0
O  O124  1  0.49529554  0.65605948  0.42242006  1  0  -0.604944  0  2.050667  0  0  -0.5462  0  2.308312  0  0  -0.572198  0  2.297075  0  0  -0.300529  -0.528254  0  2.315456  0
O  O125  1  0.00470316  0.15606003  0.57757952  1  0  -0.6049  0  2.050774  0  0  -0.546168  0  2.308438  0  0  -0.572167  0  2.297203  0  0  -0.300521  -0.528217  0  2.315586  0
O  O126  1  0.49070351  0.16399789  0.53345754  1  0  -0.596816  0  2.069427  0  0  -0.522477  0  2.329379  0  0  -0.549887  0  2.315866  0  0  -0.303103  -0.503257  0  2.337726  0
O  O127  1  0.00929617  0.66399847  0.46654307  1  0  -0.596823  0  2.069448  0  0  -0.522471  0  2.329377  0  0  -0.549883  0  2.315865  0  0  -0.303095  -0.503256  0  2.337733  0
O  O128  1  0.50929655  0.83600234  0.46654298  1  0  -0.596798  0  2.069435  0  0  -0.522469  0  2.329388  0  0  -0.549881  0  2.315879  0  0  -0.303089  -0.503251  0  2.337728  0
O  O129  1  0.99070490  0.33600258  0.53345520  1  0  -0.596746  0  2.069425  0  0  -0.522423  0  2.329373  0  0  -0.549833  0  2.315863  0  0  -0.303069  -0.503206  0  2.337725  0
O  O130  1  0.72395001  0.49823123  0.51629455  1  0  -0.852418  0  1.85888  0  0  -0.799802  0  2.048895  0  0  -0.819265  0  2.017086  0  0  -0.586273  -0.786332  0  2.070866  0
O  O131  1  0.77605018  0.99823120  0.48370450  1  0  -0.852408  0  1.858862  0  0  -0.799793  0  2.048875  0  0  -0.819256  0  2.017067  0  0  -0.586277  -0.786321  0  2.070844  0
O  O132  1  0.27605004  0.50176736  0.48370514  1  0  -0.852401  0  1.858863  0  0  -0.79979  0  2.048878  0  0  -0.81925  0  2.017066  0  0  -0.586277  -0.786316  0  2.070849  0
O  O133  1  0.22395091  0.00176903  0.51629623  1  0  -0.852399  0  1.858894  0  0  -0.799785  0  2.048905  0  0  -0.819248  0  2.017097  0  0  -0.586279  -0.786314  0  2.070879  0
