# generated using pymatgen
data_CdH12(C9N5)2
_symmetry_space_group_name_H-M   'P 1'
_cell_length_a   7.79913003
_cell_length_b   8.67964144
_cell_length_c   13.63919083
_cell_angle_alpha   89.99992769
_cell_angle_beta   90.75011233
_cell_angle_gamma   89.99986169
_symmetry_Int_Tables_number   1
_chemical_formula_structural   CdH12(C9N5)2
_chemical_formula_sum   'Cd2 H24 C36 N20'
_cell_volume   923.20751586
_cell_formula_units_Z   2
loop_
 _symmetry_equiv_pos_site_id
 _symmetry_equiv_pos_as_xyz
  1  'x, y, z'
loop_
 _atom_site_type_symbol
 _atom_site_label
 _atom_site_symmetry_multiplicity
 _atom_site_fract_x
 _atom_site_fract_y
 _atom_site_fract_z
 _atom_site_occupancy
 _atom_site_hle17_bader_spin_density
 _atom_site_hle17_ddec_charge
 _atom_site_hle17_ddec_spin_density
 _atom_site_hle17_ddec_sum_bond_order
 _atom_site_hle17_magmom
 _atom_site_hse06_10hf_bader_spin_density
 _atom_site_hse06_10hf_ddec_charge
 _atom_site_hse06_10hf_ddec_spin_density
 _atom_site_hse06_10hf_ddec_sum_bond_order
 _atom_site_hse06_10hf_magmom
 _atom_site_hse06_bader_spin_density
 _atom_site_hse06_ddec_charge
 _atom_site_hse06_ddec_spin_density
 _atom_site_hse06_ddec_sum_bond_order
 _atom_site_hse06_magmom
 _atom_site_pbe_bader_spin_density
 _atom_site_pbe_cm5_charge
 _atom_site_pbe_ddec_charge
 _atom_site_pbe_ddec_spin_density
 _atom_site_pbe_ddec_sum_bond_order
 _atom_site_pbe_magmom
Cd  Cd0  1  0.50000376  0.49999823  0.00000143  1  0  1.18722  0  1.812791  0  0  1.016132  0  2.290611  0  0  1.061095  0  2.244146  0  0  0.834135  0.98484  0  2.321865  0
Cd  Cd1  1  0.00000458  0.00000296  0.50000359  1  0  1.187242  0  1.812734  0  0  1.016148  0  2.290574  0  0  1.061111  0  2.24411  0  0  0.834132  0.984855  0  2.321825  0
H  H2  1  0.52466374  0.64953185  0.18221069  1  0  0.314344  0  0.874557  0  0  0.305863  0  0.927921  0  0  0.311272  0  0.924536  0  0  0.307381  0.302035  0  0.930327  0
H  H3  1  0.97533509  0.14952670  0.31779298  1  0  0.314369  0  0.874558  0  0  0.305881  0  0.927928  0  0  0.31129  0  0.924544  0  0  0.307388  0.302051  0  0.930338  0
H  H4  1  0.47533748  0.35046823  0.81778974  1  0  0.314357  0  0.874564  0  0  0.305865  0  0.927939  0  0  0.311275  0  0.924553  0  0  0.30738  0.302036  0  0.930347  0
H  H5  1  0.02466104  0.85046300  0.68221255  1  0  0.314376  0  0.874564  0  0  0.305877  0  0.927958  0  0  0.311286  0  0.924572  0  0  0.30739  0.302048  0  0.930366  0
H  H6  1  0.52491237  0.79016331  0.09898622  1  0  0.320104  0  0.906977  0  0  0.306227  0  0.968643  0  0  0.31226  0  0.964099  0  0  0.299165  0.301941  0  0.971874  0
H  H7  1  0.97508349  0.29016261  0.40101440  1  0  0.320138  0  0.906924  0  0  0.306257  0  0.968593  0  0  0.312291  0  0.964049  0  0  0.29919  0.301969  0  0.97182  0
H  H8  1  0.47508629  0.20983561  0.90101493  1  0  0.320136  0  0.906923  0  0  0.306254  0  0.968596  0  0  0.312286  0  0.964051  0  0  0.299191  0.301966  0  0.971823  0
H  H9  1  0.02491260  0.70983631  0.59898674  1  0  0.320047  0  0.907074  0  0  0.306178  0  0.968717  0  0  0.31221  0  0.964177  0  0  0.29915  0.301893  0  0.971951  0
H  H10  1  0.26217461  0.90984948  0.03814943  1  0  0.11662  0  0.953689  0  0  0.124251  0  1.018382  0  0  0.127588  0  1.016543  0  0  0.106221  0.12188  0  1.019731  0
H  H11  1  0.23782103  0.40985147  0.46184859  1  0  0.116638  0  0.953681  0  0  0.124222  0  1.018418  0  0  0.127559  0  1.016582  0  0  0.106204  0.121852  0  1.019761  0
H  H12  1  0.73782147  0.09014714  0.96184950  1  0  0.116591  0  0.953742  0  0  0.124257  0  1.018388  0  0  0.127594  0  1.016553  0  0  0.106218  0.121886  0  1.019735  0
H  H13  1  0.76217505  0.59014975  0.53815035  1  0  0.11662  0  0.953698  0  0  0.12424  0  1.018401  0  0  0.127577  0  1.016563  0  0  0.106214  0.121869  0  1.019745  0
H  H14  1  0.95404093  0.96042451  0.07602791  1  0  0.095691  0  0.964269  0  0  0.103938  0  1.030362  0  0  0.106501  0  1.029274  0  0  0.102312  0.102107  0  1.031235  0
H  H15  1  0.54595444  0.46042930  0.42396963  1  0  0.095695  0  0.964327  0  0  0.103953  0  1.030404  0  0  0.106515  0  1.029319  0  0  0.102305  0.102122  0  1.031276  0
H  H16  1  0.04595643  0.03956749  0.92397176  1  0  0.095772  0  0.9642  0  0  0.104011  0  1.030312  0  0  0.106572  0  1.029226  0  0  0.102358  0.10218  0  1.031185  0
H  H17  1  0.45404162  0.53957307  0.57602784  1  0  0.095727  0  0.964293  0  0  0.103983  0  1.030371  0  0  0.106544  0  1.029286  0  0  0.102338  0.102151  0  1.031243  0
H  H18  1  0.80750054  0.81036996  0.20315626  1  0  0.100884  0  0.974026  0  0  0.109396  0  1.038741  0  0  0.112245  0  1.03775  0  0  0.101376  0.107349  0  1.039508  0
H  H19  1  0.69249522  0.31037353  0.29683920  1  0  0.100833  0  0.97402  0  0  0.109361  0  1.038727  0  0  0.112208  0  1.037733  0  0  0.101386  0.107318  0  1.039494  0
H  H20  1  0.19249682  0.18962435  0.79684268  1  0  0.100856  0  0.974077  0  0  0.109368  0  1.038792  0  0  0.112218  0  1.037801  0  0  0.101382  0.107322  0  1.039562  0
H  H21  1  0.30749955  0.68962539  0.70315679  1  0  0.100838  0  0.974108  0  0  0.10935  0  1.038833  0  0  0.112199  0  1.037841  0  0  0.101377  0.107303  0  1.039604  0
H  H22  1  0.27343252  0.55285178  0.25798646  1  0  0.111874  0  0.962576  0  0  0.122197  0  1.02479  0  0  0.124627  0  1.025136  0  0  0.106812  0.120452  0  1.024636  0
H  H23  1  0.22656794  0.05285078  0.24201335  1  0  0.111857  0  0.962599  0  0  0.122182  0  1.024809  0  0  0.124618  0  1.025137  0  0  0.106795  0.120436  0  1.024654  0
H  H24  1  0.72656870  0.44714829  0.74201397  1  0  0.111889  0  0.962573  0  0  0.122202  0  1.024802  0  0  0.124634  0  1.025138  0  0  0.106814  0.120456  0  1.024645  0
H  H25  1  0.77342557  0.94714699  0.75798631  1  0  0.111901  0  0.962566  0  0  0.122221  0  1.02478  0  0  0.124656  0  1.025107  0  0  0.106825  0.120475  0  1.024624  0
C  C26  1  0.28731431  0.72854692  0.14605481  1  0  0.283554  0  3.817342  0  0  0.282893  0  4.065979  0  0  0.28899  0  4.089234  0  0  0.088325  0.278529  0  4.050208  0
C  C27  1  0.21268438  0.22854803  0.35394338  1  0  0.283676  0  3.817279  0  0  0.282971  0  4.065969  0  0  0.289068  0  4.089228  0  0  0.088359  0.278606  0  4.050197  0
C  C28  1  0.71268432  0.27144969  0.85394341  1  0  0.283582  0  3.817388  0  0  0.282819  0  4.066154  0  0  0.288915  0  4.089412  0  0  0.088321  0.278456  0  4.050383  0
C  C29  1  0.78731298  0.77144974  0.64605630  1  0  0.283583  0  3.817289  0  0  0.282879  0  4.065973  0  0  0.288977  0  4.089228  0  0  0.088316  0.278514  0  4.050203  0
C  C30  1  0.19693618  0.84327646  0.09441315  1  0  -0.15763  0  3.684192  0  0  -0.177416  0  3.932701  0  0  -0.181177  0  3.952713  0  0  -0.088479  -0.174721  0  3.919164  0
C  C31  1  0.30306220  0.34327728  0.40558421  1  0  -0.15772  0  3.684233  0  0  -0.177462  0  3.93278  0  0  -0.181228  0  3.952794  0  0  -0.088512  -0.174767  0  3.91924  0
C  C32  1  0.80306246  0.15672015  0.90558506  1  0  -0.157617  0  3.684214  0  0  -0.177396  0  3.932747  0  0  -0.18116  0  3.95276  0  0  -0.088486  -0.174701  0  3.919208  0
C  C33  1  0.69693258  0.65672279  0.59441252  1  0  -0.15765  0  3.684207  0  0  -0.177415  0  3.932725  0  0  -0.18117  0  3.952727  0  0  -0.088463  -0.174717  0  3.919183  0
C  C34  1  0.02472789  0.87074090  0.11500088  1  0  -0.050203  0  3.777731  0  0  -0.065521  0  4.035762  0  0  -0.066429  0  4.056014  0  0  -0.088613  -0.06493  0  4.02201  0
C  C35  1  0.47526785  0.37074714  0.38499644  1  0  -0.050177  0  3.777726  0  0  -0.065484  0  4.03574  0  0  -0.06639  0  4.055989  0  0  -0.088551  -0.064892  0  4.021986  0
C  C36  1  0.97526948  0.12925111  0.88499880  1  0  -0.050327  0  3.777562  0  0  -0.065646  0  4.035618  0  0  -0.066555  0  4.055875  0  0  -0.088651  -0.065052  0  4.021865  0
C  C37  1  0.52472693  0.62925524  0.61500102  1  0  -0.050273  0  3.777755  0  0  -0.065598  0  4.035792  0  0  -0.066511  0  4.056053  0  0  -0.088651  -0.065005  0  4.022035  0
C  C38  1  0.94059083  0.78627667  0.18654960  1  0  -0.095552  0  3.716024  0  0  -0.123473  0  3.96587  0  0  -0.12534  0  3.98588  0  0  -0.087074  -0.122074  0  3.952273  0
C  C39  1  0.55940502  0.28628165  0.31344808  1  0  -0.095511  0  3.715943  0  0  -0.123463  0  3.965851  0  0  -0.125324  0  3.985853  0  0  -0.087143  -0.122067  0  3.952256  0
C  C40  1  0.05940782  0.21371649  0.81345008  1  0  -0.095485  0  3.715905  0  0  -0.123399  0  3.965783  0  0  -0.125266  0  3.985791  0  0  -0.087098  -0.121998  0  3.952182  0
C  C41  1  0.44058848  0.71372188  0.68654937  1  0  -0.095515  0  3.716044  0  0  -0.123439  0  3.965914  0  0  -0.125307  0  3.985919  0  0  -0.087087  -0.122042  0  3.952316  0
C  C42  1  0.03177161  0.67185007  0.23800216  1  0  0.034649  0  3.907959  0  0  0.057544  0  4.137278  0  0  0.055842  0  4.15893  0  0  -9.9e-05  0.058661  0  4.122668  0
C  C43  1  0.46822724  0.17185311  0.26199680  1  0  0.034622  0  3.907868  0  0  0.057511  0  4.137218  0  0  0.055808  0  4.158873  0  0  -6e-05  0.058627  0  4.122609  0
C  C44  1  0.96822831  0.32814194  0.76199679  1  0  0.034603  0  3.907826  0  0  0.057464  0  4.137187  0  0  0.05576  0  4.15884  0  0  -0.000142  0.058582  0  4.122577  0
C  C45  1  0.53176627  0.82814581  0.73800138  1  0  0.034627  0  3.907967  0  0  0.057515  0  4.137288  0  0  0.055821  0  4.158936  0  0  -0.000138  0.058632  0  4.12268  0
C  C46  1  0.95108314  0.58630399  0.31352517  1  0  0.30644  0  3.715382  0  0  0.288974  0  3.984873  0  0  0.301331  0  4.000997  0  0  0.204857  0.280561  0  3.974087  0
C  C47  1  0.54891582  0.08630694  0.18647269  1  0  0.306595  0  3.715552  0  0  0.289128  0  3.98506  0  0  0.301484  0  4.001186  0  0  0.204948  0.280716  0  3.974272  0
C  C48  1  0.04891551  0.41369032  0.68647524  1  0  0.306558  0  3.715499  0  0  0.289106  0  3.984996  0  0  0.301464  0  4.001122  0  0  0.204935  0.280693  0  3.974205  0
C  C49  1  0.45108025  0.91369429  0.81352478  1  0  0.306534  0  3.715399  0  0  0.289071  0  3.984891  0  0  0.301424  0  4.001015  0  0  0.204893  0.280659  0  3.974106  0
C  C50  1  0.20433070  0.64197424  0.21751297  1  0  -0.184695  0  3.680188  0  0  -0.210995  0  3.920975  0  0  -0.214844  0  3.940883  0  0  -0.084418  -0.2083  0  3.907615  0
C  C51  1  0.29566693  0.14197531  0.28248455  1  0  -0.184747  0  3.68014  0  0  -0.211038  0  3.920972  0  0  -0.214879  0  3.940865  0  0  -0.084432  -0.208342  0  3.90761  0
C  C52  1  0.79566923  0.35802122  0.78248745  1  0  -0.184734  0  3.680173  0  0  -0.210963  0  3.920963  0  0  -0.214809  0  3.940871  0  0  -0.084403  -0.208264  0  3.9076  0
C  C53  1  0.70432785  0.85802245  0.71751291  1  0  -0.184747  0  3.680154  0  0  -0.211004  0  3.920903  0  0  -0.214856  0  3.940812  0  0  -0.084412  -0.208305  0  3.907541  0
C  C54  1  0.85939387  0.35501248  0.10998396  1  0  0.514944  0  3.998546  0  0  0.475559  0  4.28443  0  0  0.501209  0  4.297056  0  0  0.304803  0.458083  0  4.275515  0
C  C55  1  0.64061977  0.85502388  0.39001743  1  0  0.515535  0  3.997901  0  0  0.476207  0  4.283745  0  0  0.501862  0  4.296358  0  0  0.305092  0.458731  0  4.274835  0
C  C56  1  0.14061376  0.64498644  0.89001723  1  0  0.51513  0  3.998411  0  0  0.475773  0  4.284285  0  0  0.501424  0  4.296907  0  0  0.304913  0.458298  0  4.275369  0
C  C57  1  0.35938660  0.14499463  0.60998596  1  0  0.515114  0  3.998384  0  0  0.475737  0  4.284248  0  0  0.501388  0  4.29687  0  0  0.304851  0.45826  0  4.275332  0
C  C58  1  0.15066565  0.32168930  0.09438693  1  0  0.518703  0  3.985811  0  0  0.480971  0  4.268077  0  0  0.506368  0  4.28116  0  0  0.306531  0.46366  0  4.258862  0
C  C59  1  0.34934692  0.82169215  0.40561491  1  0  0.518856  0  3.985693  0  0  0.481167  0  4.267938  0  0  0.506567  0  4.281019  0  0  0.306531  0.463856  0  4.258721  0
C  C60  1  0.84934069  0.67830962  0.90561279  1  0  0.51892  0  3.9858  0  0  0.481209  0  4.268056  0  0  0.506609  0  4.281132  0  0  0.306589  0.463897  0  4.258844  0
C  C61  1  0.65065944  0.17831598  0.59438847  1  0  0.51898  0  3.985711  0  0  0.481251  0  4.267966  0  0  0.506651  0  4.281044  0  0  0.306618  0.463938  0  4.258753  0
N  N62  1  0.45966158  0.69512487  0.12350210  1  0  -0.670815  0  3.141216  0  0  -0.621592  0  3.375763  0  0  -0.641448  0  3.374861  0  0  -0.596976  -0.607519  0  3.375976  0
N  N63  1  0.04033850  0.19512516  0.37649832  1  0  -0.67085  0  3.141152  0  0  -0.621599  0  3.375692  0  0  -0.641458  0  3.374791  0  0  -0.596979  -0.60752  0  3.375905  0
N  N64  1  0.54033835  0.30487405  0.87649832  1  0  -0.670836  0  3.141182  0  0  -0.62157  0  3.375746  0  0  -0.641426  0  3.374842  0  0  -0.596976  -0.607493  0  3.375958  0
N  N65  1  0.95966017  0.80487261  0.62350356  1  0  -0.670763  0  3.14129  0  0  -0.621519  0  3.375835  0  0  -0.641376  0  3.374933  0  0  -0.596934  -0.60745  0  3.37605  0
N  N66  1  0.88646401  0.51440587  0.37536789  1  0  -0.42473  0  2.619154  0  0  -0.391465  0  2.844673  0  0  -0.402791  0  2.854526  0  0  -0.302062  -0.383882  0  2.838211  0
N  N67  1  0.61353644  0.01440995  0.12463150  1  0  -0.424859  0  2.619399  0  0  -0.391596  0  2.844932  0  0  -0.402924  0  2.854788  0  0  -0.30216  -0.384014  0  2.838471  0
N  N68  1  0.11353465  0.48559305  0.62463326  1  0  -0.424796  0  2.619302  0  0  -0.391543  0  2.844829  0  0  -0.40287  0  2.854685  0  0  -0.302106  -0.383958  0  2.838365  0
N  N69  1  0.38646092  0.98559243  0.87536743  1  0  -0.424799  0  2.619186  0  0  -0.391544  0  2.844724  0  0  -0.402869  0  2.854577  0  0  -0.30209  -0.38396  0  2.838264  0
N  N70  1  0.72121649  0.40868075  0.10031626  1  0  -0.63099  0  2.806283  0  0  -0.583129  0  3.088263  0  0  -0.606346  0  3.094436  0  0  -0.394698  -0.567214  0  3.083881  0
N  N71  1  0.77879571  0.90868838  0.39968361  1  0  -0.631376  0  2.806126  0  0  -0.583534  0  3.088088  0  0  -0.606756  0  3.094259  0  0  -0.394868  -0.567618  0  3.083709  0
N  N72  1  0.27878987  0.59132163  0.89968566  1  0  -0.631069  0  2.806266  0  0  -0.583209  0  3.08822  0  0  -0.606429  0  3.094397  0  0  -0.394726  -0.567294  0  3.083838  0
N  N73  1  0.22121065  0.09132783  0.60031904  1  0  -0.631084  0  2.806225  0  0  -0.583218  0  3.088192  0  0  -0.606439  0  3.094368  0  0  -0.394739  -0.567303  0  3.08381  0
N  N74  1  0.00276804  0.28662576  0.13010260  1  0  -0.476018  0  3.29224  0  0  -0.420954  0  3.557937  0  0  -0.445981  0  3.564526  0  0  -0.310699  -0.403522  0  3.552816  0
N  N75  1  0.49724588  0.78663643  0.36989562  1  0  -0.476425  0  3.291888  0  0  -0.421434  0  3.557689  0  0  -0.446467  0  3.564266  0  0  -0.310894  -0.404012  0  3.552583  0
N  N76  1  0.99723828  0.71337200  0.86989492  1  0  -0.476281  0  3.292165  0  0  -0.421254  0  3.557919  0  0  -0.446283  0  3.5645  0  0  -0.310845  -0.403826  0  3.552809  0
N  N77  1  0.50276174  0.21338207  0.63010484  1  0  -0.476267  0  3.292165  0  0  -0.421203  0  3.557879  0  0  -0.446233  0  3.564463  0  0  -0.31078  -0.403778  0  3.55277  0
N  N78  1  0.29235174  0.34065770  0.06776103  1  0  -0.620793  0  2.791295  0  0  -0.57132  0  3.065877  0  0  -0.59441  0  3.072257  0  0  -0.39174  -0.555501  0  3.061356  0
N  N79  1  0.20766335  0.84066196  0.43224228  1  0  -0.620754  0  2.791198  0  0  -0.571314  0  3.065791  0  0  -0.594402  0  3.072169  0  0  -0.391669  -0.555492  0  3.061264  0
N  N80  1  0.70765458  0.65934122  0.93223649  1  0  -0.620844  0  2.791275  0  0  -0.571406  0  3.065906  0  0  -0.594497  0  3.072282  0  0  -0.391723  -0.555583  0  3.061383  0
N  N81  1  0.79234431  0.15934157  0.56776331  1  0  -0.620895  0  2.791218  0  0  -0.571451  0  3.065848  0  0  -0.594542  0  3.072225  0  0  -0.391746  -0.555632  0  3.06133  0
