# generated using pymatgen
data_Co5H38C48(N2O5)4
_symmetry_space_group_name_H-M   'P 1'
_cell_length_a   10.96384926
_cell_length_b   11.94338253
_cell_length_c   13.57370089
_cell_angle_alpha   68.36273237
_cell_angle_beta   80.75614719
_cell_angle_gamma   69.54489849
_symmetry_Int_Tables_number   1
_chemical_formula_structural   Co5H38C48(N2O5)4
_chemical_formula_sum   'Co5 H38 C48 N8 O20'
_cell_volume   1546.96593547
_cell_formula_units_Z   1
loop_
 _symmetry_equiv_pos_site_id
 _symmetry_equiv_pos_as_xyz
  1  'x, y, z'
loop_
 _atom_site_type_symbol
 _atom_site_label
 _atom_site_symmetry_multiplicity
 _atom_site_fract_x
 _atom_site_fract_y
 _atom_site_fract_z
 _atom_site_occupancy
 _atom_site_pbe_bader_charge
 _atom_site_pbe_bader_spin_density
 _atom_site_pbe_cm5_charge
 _atom_site_pbe_ddec_charge
 _atom_site_pbe_ddec_spin_density
 _atom_site_pbe_ddec_sum_bond_order
 _atom_site_pbe_magmom
Co  Co0  1  0.99999801  0.50000289  0.99998765  1  1.337564  2.667936  0.648768  1.069693  2.8845  2.434387  2.653
Co  Co1  1  0.96079188  0.59157772  0.18860020  1  1.322862  2.62248  0.662653  0.984574  2.826781  2.418863  2.605
Co  Co2  1  0.03921225  0.40842477  0.81139713  1  1.32284  2.622497  0.662657  0.984502  2.826806  2.419155  2.605
Co  Co3  1  0.87033629  0.32752334  0.18783787  1  1.278835  2.601546  0.653661  0.900152  2.806762  2.448092  2.584
Co  Co4  1  0.12966576  0.67248859  0.81215289  1  1.278795  2.60154  0.653705  0.900193  2.806752  2.448519  2.584
H  H5  1  0.78254819  0.57117959  0.11326630  1  0.608744  0.002362  0.31312  0.403868  0.001556  0.879872  0.003
H  H6  1  0.21744197  0.42882601  0.88674357  1  0.608828  0.002362  0.313074  0.403865  0.001556  0.879827  0.003
H  H7  1  0.13303102  0.30472682  0.48746581  1  0.103337  0.00133  0.106942  0.132375  0.000597  1.017176  0.001
H  H8  1  0.86698218  0.69526448  0.51254809  1  0.103583  0.00133  0.106926  0.132412  0.000598  1.017154  0.001
H  H9  1  0.05042305  0.08869002  0.47541529  1  0.052756  0.000173  0.09885  0.088967  -7.6e-05  1.039019  0.0
H  H10  1  0.94959366  0.91130200  0.52458539  1  0.052511  0.000173  0.098848  0.088959  -7.6e-05  1.038976  0.0
H  H11  1  0.21051060  0.18743300  0.65035224  1  0.120408  -2.1e-05  0.112391  0.114187  -0.000284  1.020797  0.0
H  H12  1  0.78948766  0.81255900  0.34964270  1  0.120406  -2.1e-05  0.112442  0.114337  -0.000283  1.020768  0.0
H  H13  1  0.26947937  0.04429818  0.83491112  1  0.10096  0.000879  0.115664  0.129516  0.000413  0.980053  0.0
H  H14  1  0.73052042  0.95569478  0.16508478  1  0.101116  0.000879  0.115661  0.1295  0.000413  0.979917  0.0
H  H15  1  0.22963962  0.83249633  0.90298165  1  0.129044  0.001188  0.11496  0.091215  0.000189  1.019001  0.001
H  H16  1  0.77035954  0.16750433  0.09701913  1  0.129067  0.001187  0.114967  0.091226  0.000188  1.018949  0.001
H  H17  1  0.07525356  0.90234500  0.62079989  1  0.101954  0.001049  0.110678  0.079556  0.000144  1.068705  0.001
H  H18  1  0.92474374  0.09764707  0.37919884  1  0.102135  0.001049  0.11065  0.079512  0.000144  1.068684  0.001
H  H19  1  0.40767939  0.57633282  0.06758627  1  0.08303  0.001352  0.103831  0.121435  0.000508  1.002251  0.001
H  H20  1  0.59230627  0.42368119  0.93241179  1  0.082989  0.001352  0.103839  0.121479  0.000508  1.002161  0.001
H  H21  1  0.25683670  0.43148739  0.25349066  1  0.147309  0.000328  0.112089  0.122147  -5.3e-05  1.008033  0.0
H  H22  1  0.74315475  0.56851138  0.74650953  1  0.147463  0.000328  0.112111  0.122207  -5.3e-05  1.008007  0.0
H  H23  1  0.35612680  0.40790571  0.42953533  1  0.136464  -0.000111  0.106585  0.108203  -0.000247  1.028826  0.0
H  H24  1  0.64386616  0.59209985  0.57047199  1  0.136425  -0.000111  0.106617  0.108291  -0.000247  1.028669  0.0
H  H25  1  0.55996857  0.34664175  0.51947129  1  0.152436  0.001051  0.10876  0.124656  0.000522  1.020808  0.001
H  H26  1  0.44002970  0.65337611  0.48053198  1  0.152207  0.00105  0.108745  0.124613  0.000522  1.020963  0.001
H  H27  1  0.77336743  0.32463794  0.41259686  1  0.094724  0.001684  0.112802  0.079146  0.000309  1.033846  0.001
H  H28  1  0.22662960  0.67536938  0.58740272  1  0.094631  0.001685  0.112761  0.079048  0.000309  1.034004  0.001
H  H29  1  0.58885910  0.41903860  0.13817296  1  0.130611  0.001766  0.112812  0.085451  0.000351  1.050845  0.001
H  H30  1  0.41113812  0.58095075  0.86183479  1  0.131004  0.001764  0.112837  0.085502  0.000351  1.050991  0.001
H  H31  1  0.86052197  0.91472752  0.79236291  1  0.079646  0.000692  0.10889  0.128424  0.000115  0.997095  0.001
H  H32  1  0.13948241  0.08526550  0.20763755  1  0.079505  0.000693  0.108905  0.12848  0.000115  0.997076  0.001
H  H33  1  0.87571810  0.99679083  0.97909181  1  0.083519  0.0001  0.104559  0.099348  -5.2e-05  1.021358  0.0
H  H34  1  0.12428876  0.00320599  0.02090853  1  0.083385  0.0001  0.104542  0.099344  -5.2e-05  1.021296  0.0
H  H35  1  0.75168262  0.13382499  0.69675066  1  0.087412  -0.000149  0.114748  0.11797  -0.000255  0.971208  0.0
H  H36  1  0.24831618  0.86616813  0.30325490  1  0.08761  -0.000149  0.114736  0.117966  -0.000255  0.97124  0.0
H  H37  1  0.78361575  0.33734612  0.56676443  1  0.085761  0.000833  0.109223  0.112264  0.000399  1.02274  0.0
H  H38  1  0.21638522  0.66264599  0.43323823  1  0.085835  0.000833  0.109218  0.112301  0.000399  1.022647  0.0
H  H39  1  0.91237075  0.44029950  0.61831723  1  0.155212  0.001321  0.123619  0.105266  0.000419  1.010512  0.001
H  H40  1  0.08762718  0.55970213  0.38168413  1  0.155199  0.001321  0.123615  0.105228  0.000419  1.010531  0.001
H  H41  1  0.96143313  0.17258237  0.91952139  1  0.128634  0.001416  0.114657  0.085958  0.00032  1.047001  0.001
H  H42  1  0.03857039  0.82741915  0.08047413  1  0.128393  0.001417  0.114718  0.086026  0.00032  1.046911  0.001
C  C43  1  0.03210461  0.32491109  0.35255554  1  1.537392  -0.010427  0.21722  0.638378  -0.012161  4.144737  -0.006
C  C44  1  0.96790896  0.67507914  0.64745130  1  1.537905  -0.010442  0.217287  0.638444  -0.012178  4.144683  -0.006
C  C45  1  0.09315557  0.25261301  0.45670699  1  -0.020424  0.016297  -0.094977  -0.232079  0.008275  3.891805  0.012
C  C46  1  0.90685494  0.74738102  0.54329898  1  -0.019812  0.0163  -0.094965  -0.232088  0.008276  3.891819  0.012
C  C47  1  0.09295411  0.13303000  0.51240342  1  -0.04549  -0.014429  -0.080561  -0.076761  -0.015713  4.005916  -0.009
C  C48  1  0.90705361  0.86696120  0.48760311  1  -0.046235  -0.014441  -0.080596  -0.076787  -0.015727  4.005738  -0.009
C  C49  1  0.13778891  0.05678351  0.61913170  1  0.011598  0.005851  -0.008213  0.060388  0.002535  4.036854  0.006
C  C50  1  0.86220927  0.94320864  0.38087279  1  0.011692  0.00585  -0.008145  0.0605  0.002534  4.036818  0.006
C  C51  1  0.19442446  0.09553077  0.68151852  1  -0.107037  -0.016129  -0.060579  -0.058931  -0.017121  3.879496  -0.01
C  C52  1  0.80557036  0.90446039  0.31848231  1  -0.10713  -0.016127  -0.060629  -0.059136  -0.017118  3.879363  -0.01
C  C53  1  0.22728655  0.01551016  0.78445853  1  0.011346  0.006404  -0.07886  -0.121369  0.002804  3.975059  0.005
C  C54  1  0.77270917  0.98448678  0.21554688  1  0.011227  0.006401  -0.078808  -0.121258  0.002803  3.974939  0.005
C  C55  1  0.20397473  0.89877591  0.82332766  1  0.443068  -0.012492  0.043012  0.084085  -0.013651  3.932115  -0.007
C  C56  1  0.79601859  0.10121995  0.17666958  1  0.442823  -0.012491  0.042939  0.084046  -0.013651  3.931956  -0.007
C  C57  1  0.11856917  0.93763733  0.66523647  1  0.468908  -0.009866  0.045098  0.032028  -0.010915  3.910282  -0.006
C  C58  1  0.88142532  0.06234907  0.33476451  1  0.468742  -0.009862  0.045023  0.031937  -0.01091  3.910555  -0.006
C  C59  1  0.22018763  0.56786014  0.04446213  1  1.524233  0.010433  0.2119  0.633033  0.007577  4.156019  0.009
C  C60  1  0.77981285  0.43213651  0.95552583  1  1.524356  0.010435  0.211805  0.632957  0.007579  4.156205  0.009
C  C61  1  0.33034995  0.53682265  0.10960693  1  -0.057253  0.009074  -0.105065  -0.258863  0.00475  3.935304  0.007
C  C62  1  0.66963938  0.46318565  0.89039257  1  -0.057537  0.009072  -0.105077  -0.258929  0.004748  3.935312  0.007
C  C63  1  0.33930641  0.46378041  0.21297150  1  -0.074704  0.003783  -0.063702  -0.04243  0.001742  3.926943  0.002
C  C64  1  0.66067772  0.53623263  0.78702487  1  -0.074742  0.003787  -0.063702  -0.042526  0.001744  3.926975  0.002
C  C65  1  0.45423420  0.42521480  0.27376976  1  -0.025483  0.005288  -0.005913  0.057521  0.002595  4.019693  0.004
C  C66  1  0.54575449  0.57479259  0.72623233  1  -0.025428  0.005287  -0.00594  0.057606  0.002595  4.019815  0.004
C  C67  1  0.44845931  0.39924159  0.38381673  1  -0.061937  -0.008838  -0.061762  -0.067525  -0.009436  3.88951  -0.005
C  C68  1  0.55152160  0.60076404  0.61619284  1  -0.061844  -0.008837  -0.061854  -0.067714  -0.009435  3.889906  -0.005
C  C69  1  0.56345152  0.36436720  0.43464828  1  -0.025914  0.005667  -0.08223  -0.119318  0.002849  3.977966  0.004
C  C70  1  0.43654395  0.63563633  0.56535202  1  -0.025447  0.005668  -0.082182  -0.119148  0.002849  3.978152  0.004
C  C71  1  0.68088491  0.35259653  0.37620439  1  0.471655  -0.005485  0.041982  0.087161  -0.00612  3.943444  -0.003
C  C72  1  0.31910775  0.64740133  0.62379890  1  0.471723  -0.005487  0.041936  0.087066  -0.006122  3.943405  -0.003
C  C73  1  0.57750270  0.40864934  0.22196927  1  0.47162  -0.006873  0.047082  0.048215  -0.007602  3.891606  -0.005
C  C74  1  0.42248585  0.59134395  0.77804490  1  0.470545  -0.006877  0.04716  0.048173  -0.007607  3.891624  -0.005
C  C75  1  0.89803025  0.77961122  0.95316489  1  1.528294  0.004664  0.210112  0.622058  0.002878  4.166625  0.003
C  C76  1  0.10198126  0.22039702  0.04683547  1  1.528499  0.00466  0.210225  0.622246  0.002875  4.16645  0.003
C  C77  1  0.86567962  0.90909717  0.87375609  1  -0.017122  0.009298  -0.096728  -0.232545  0.004639  3.924222  0.007
C  C78  1  0.13432603  0.09090345  0.12624314  1  -0.017042  0.009302  -0.096798  -0.232765  0.004641  3.924088  0.007
C  C79  1  0.86210205  0.01055560  0.89682994  1  -0.079303  -0.001109  -0.076535  -0.077165  -0.001716  3.983962  -0.001
C  C80  1  0.13790233  0.98944029  0.10317176  1  -0.079107  -0.001116  -0.076498  -0.077063  -0.001723  3.983766  -0.001
C  C81  1  0.85838055  0.13404625  0.81842799  1  -0.022247  0.005778  -0.006105  0.065383  0.00269  4.030887  0.005
C  C82  1  0.14161706  0.86595635  0.18157456  1  -0.022388  0.005779  -0.006116  0.065446  0.002691  4.030767  0.005
C  C83  1  0.80581837  0.18276771  0.71746697  1  -0.01268  -0.014488  -0.062674  -0.07616  -0.015534  3.904118  -0.009
C  C84  1  0.19417397  0.81723113  0.28253750  1  -0.012712  -0.014486  -0.062674  -0.076165  -0.01553  3.904305  -0.009
C  C85  1  0.82324781  0.29455233  0.64549837  1  -0.031777  0.005859  -0.079493  -0.11561  0.002599  3.98621  0.005
C  C86  1  0.17674642  0.70544931  0.35450271  1  -0.031883  0.00586  -0.079468  -0.115692  0.0026  3.986262  0.005
C  C87  1  0.89366531  0.35463734  0.67366997  1  0.455238  -0.009787  0.050578  0.088989  -0.010486  3.911871  -0.006
C  C88  1  0.10632862  0.64536237  0.32632959  1  0.455523  -0.00979  0.050598  0.089135  -0.010488  3.911715  -0.006
C  C89  1  0.92086066  0.20499964  0.84193080  1  0.478837  -0.007537  0.046106  0.033502  -0.008335  3.919508  -0.004
C  C90  1  0.07913512  0.79500005  0.15806779  1  0.47907  -0.007538  0.046082  0.033329  -0.008336  3.919435  -0.005
N  N91  1  0.72862895  0.63440124  0.34338081  1  0.812594  -0.00072  0.095163  0.718338  -0.001888  4.425568  -0.002
N  N92  1  0.27137519  0.36560697  0.65661608  1  0.813114  -0.00072  0.095331  0.718628  -0.001891  4.425606  -0.002
N  N93  1  0.14988587  0.85978603  0.76459143  1  -1.224614  0.055845  -0.320914  -0.251378  0.03011  3.584278  0.048
N  N94  1  0.85011052  0.14021178  0.23540846  1  -1.224298  0.055833  -0.320869  -0.251392  0.030104  3.583906  0.048
N  N95  1  0.68848162  0.37265285  0.27116875  1  -1.241755  0.064848  -0.32481  -0.246924  0.033589  3.602291  0.059
N  N96  1  0.31151040  0.62733835  0.72883462  1  -1.241262  0.064853  -0.324806  -0.246814  0.033591  3.602181  0.059
N  N97  1  0.94086453  0.31109827  0.77144290  1  -1.250177  0.054728  -0.328822  -0.260398  0.029848  3.620162  0.044
N  N98  1  0.05913311  0.68890427  0.22855598  1  -1.250485  0.054733  -0.328862  -0.26041  0.029847  3.620286  0.044
O  O99  1  0.97241378  0.27404643  0.31642916  1  -1.163537  0.082527  -0.313752  -0.562584  0.04314  2.417867  0.07
O  O100  1  0.02759117  0.72595050  0.68357802  1  -1.163952  0.082553  -0.313847  -0.562734  0.043156  2.418017  0.07
O  O101  1  0.04047277  0.43657424  0.30804672  1  -1.145515  0.085009  -0.302431  -0.55352  0.044028  2.441199  0.074
O  O102  1  0.95954887  0.56341392  0.69195167  1  -1.145578  0.085011  -0.302392  -0.55347  0.044029  2.44149  0.074
O  O103  1  0.22879801  0.63502415  0.94706984  1  -1.171646  0.068233  -0.305138  -0.561777  0.035503  2.379447  0.056
O  O104  1  0.77121143  0.36497628  0.05291792  1  -1.171815  0.068229  -0.305112  -0.561742  0.035499  2.379333  0.056
O  O105  1  0.12514742  0.52409476  0.08676464  1  -1.171199  0.092724  -0.309868  -0.596576  0.048943  2.500467  0.079
O  O106  1  0.87485372  0.47589414  0.91321550  1  -1.170993  0.092703  -0.309843  -0.59651  0.048936  2.500625  0.079
O  O107  1  0.88610077  0.76322802  0.05122759  1  -1.144841  0.062271  -0.297523  -0.540596  0.032145  2.304234  0.053
O  O108  1  0.11390368  0.23677062  0.94876656  1  -1.144873  0.062276  -0.297613  -0.540722  0.032148  2.303971  0.053
O  O109  1  0.94260618  0.68956487  0.91239660  1  -1.147539  0.091565  -0.313571  -0.583682  0.048465  2.44836  0.077
O  O110  1  0.05742358  0.31043839  0.08759425  1  -1.147715  0.091541  -0.313594  -0.583739  0.048446  2.448535  0.077
O  O111  1  0.87029997  0.51120153  0.12566666  1  -1.175692  0.21846  -0.560676  -0.873222  0.119851  2.412009  0.188
O  O112  1  0.12969814  0.48881988  0.87431998  1  -1.175825  0.2185  -0.560628  -0.87322  0.119882  2.412042  0.188
O  O113  1  0.80660046  0.57673835  0.41858537  1  -0.560233  -0.001731  -0.199358  -0.468512  -0.002287  1.92591  -0.001
O  O114  1  0.19341940  0.42325257  0.58140644  1  -0.560327  -0.001736  -0.199335  -0.468464  -0.00229  1.926048  -0.001
O  O115  1  0.77399220  0.66702797  0.24591989  1  -0.583759  0.067537  -0.216358  -0.499627  0.035193  2.150957  0.061
O  O116  1  0.22600862  0.33300215  0.75407676  1  -0.583958  0.067529  -0.216352  -0.499626  0.035194  2.151127  0.061
O  O117  1  0.60775404  0.66436240  0.35841597  1  -0.505354  0.012535  -0.197466  -0.44099  0.005553  1.917196  0.011
O  O118  1  0.39226141  0.33563639  0.64159073  1  -0.505535  0.012536  -0.197685  -0.441304  0.005553  1.917033  0.011
