# generated using pymatgen
data_ZnH12C15(NO2)2
_symmetry_space_group_name_H-M   'P 1'
_cell_length_a   12.27047766
_cell_length_b   20.01469974
_cell_length_c   20.01474706
_cell_angle_alpha   103.08318817
_cell_angle_beta   93.82773263
_cell_angle_gamma   93.82740274
_symmetry_Int_Tables_number   1
_chemical_formula_structural   ZnH12C15(NO2)2
_chemical_formula_sum   'Zn8 H96 C120 N16 O32'
_cell_volume   4760.17036415
_cell_formula_units_Z   8
loop_
 _symmetry_equiv_pos_site_id
 _symmetry_equiv_pos_as_xyz
  1  'x, y, z'
loop_
 _atom_site_type_symbol
 _atom_site_label
 _atom_site_symmetry_multiplicity
 _atom_site_fract_x
 _atom_site_fract_y
 _atom_site_fract_z
 _atom_site_occupancy
 _atom_site_pbe_bader_charge
 _atom_site_pbe_bader_spin_density
 _atom_site_pbe_cm5_charge
 _atom_site_pbe_ddec_charge
 _atom_site_pbe_ddec_spin_density
 _atom_site_pbe_ddec_sum_bond_order
 _atom_site_pbe_magmom
Zn  Zn0  1  0.80770231  0.60845179  0.11548508  1  1.277391  0  0.667319  0.813488  0  2.406342  0
Zn  Zn1  1  0.61656509  0.66531374  0.15461600  1  1.271704  0  0.664893  0.811145  0  2.367207  0
Zn  Zn2  1  0.92162434  0.19933415  0.92939498  1  1.27453  0  0.695284  0.856047  0  2.309235  0
Zn  Zn3  1  0.01483715  0.35203093  0.08715998  1  1.285107  0  0.704791  0.872991  0  2.321521  0
Zn  Zn4  1  0.30770421  0.11548463  0.60845263  1  1.277349  0  0.667269  0.813416  0  2.406436  0
Zn  Zn5  1  0.11656248  0.15461444  0.66531227  1  1.271786  0  0.664944  0.811234  0  2.367084  0
Zn  Zn6  1  0.42162771  0.92939644  0.19933402  1  1.274566  0  0.695245  0.855906  0  2.309285  0
Zn  Zn7  1  0.51483860  0.08715974  0.35202975  1  1.285097  0  0.704784  0.873004  0  2.321521  0
H  H8  1  0.51252706  0.72866733  0.28607987  1  0.078326  0  0.127424  0.100852  0  0.948951  0
H  H9  1  0.42944054  0.65141962  0.24637632  1  0.072159  0  0.127691  0.103573  0  0.95913  0
H  H10  1  0.29163228  0.84116141  0.28187183  1  0.100397  0  0.120345  0.08838  0  0.996332  0
H  H11  1  0.43322391  0.83722270  0.30683231  1  0.057593  0  0.122319  0.090508  0  0.948791  0
H  H12  1  0.32348656  0.79989265  0.09719943  1  0.104232  0  0.126512  0.103765  0  0.97808  0
H  H13  1  0.22750215  0.81891259  0.16142222  1  0.033338  0  0.124085  0.091184  0  0.958965  0
H  H14  1  0.18074779  0.73772012  0.22757730  1  0.062311  0  0.118406  0.080781  0  0.994016  0
H  H15  1  0.23954911  0.65629060  0.21215849  1  0.076511  0  0.120021  0.083137  0  0.980929  0
H  H16  1  0.36399444  0.62956492  0.12631221  1  0.096939  0  0.122563  0.088865  0  0.984783  0
H  H17  1  0.40134030  0.69002324  0.07645270  1  0.08016  0  0.130328  0.10572  0  0.937476  0
H  H18  1  0.51352980  0.79525605  0.13018394  1  0.117785  0  0.131389  0.114795  0  0.97711  0
H  H19  1  0.56204264  0.81079662  0.21881481  1  0.073445  0  0.125126  0.097402  0  0.973037  0
H  H20  1  0.04732013  0.60049729  0.17671571  1  0.086884  0  0.124711  0.092253  0  0.958682  0
H  H21  1  0.05952757  0.64960872  0.11282642  1  0.090182  0  0.125731  0.094978  0  0.968503  0
H  H22  1  0.86317597  0.46241642  0.06807666  1  0.127845  0  0.127974  0.103946  0  0.980793  0
H  H23  1  0.93538436  0.49300465  0.15082315  1  0.08928  0  0.128915  0.100728  0  0.966097  0
H  H24  1  0.96106200  0.60802671  0.00042961  1  0.118137  0  0.126533  0.101177  0  0.967301  0
H  H25  1  0.87865189  0.52804084  0.98141225  1  0.080366  0  0.126102  0.101906  0  0.964251  0
H  H26  1  0.20709213  0.46367942  0.09015556  1  0.109103  0  0.128134  0.102746  0  0.958657  0
H  H27  1  0.13450818  0.49331308  0.16370616  1  0.088916  0  0.125574  0.096792  0  0.954758  0
H  H28  1  0.15642063  0.61009230  0.01501371  1  0.071583  0  0.124462  0.091937  0  0.950813  0
H  H29  1  0.22107394  0.53132402  0.00423105  1  0.036894  0  0.118433  0.081121  0  1.00303  0
H  H30  1  0.96383534  0.42205045  0.96811689  1  0.068115  0  0.122865  0.092165  0  0.95833  0
H  H31  1  0.10983101  0.42254718  0.97858165  1  0.085741  0  0.119735  0.088157  0  0.997561  0
H  H32  1  0.64757693  0.83900709  0.05916424  1  0.139564  0  0.108408  0.121354  0  1.011023  0
H  H33  1  0.62307530  0.95549188  0.04485425  1  0.104468  0  0.104485  0.1156  0  1.007996  0
H  H34  1  0.69099346  0.05890791  0.00383173  1  0.092869  0  0.106105  0.115139  0  0.993801  0
H  H35  1  0.96039954  0.95235905  0.91779472  1  0.092464  0  0.104498  0.110016  0  1.016973  0
H  H36  1  0.98926862  0.83520470  0.93659510  1  0.083073  0  0.103333  0.106422  0  0.992904  0
H  H37  1  0.92900897  0.73650341  0.98606514  1  0.080628  0  0.097319  0.100409  0  1.016836  0
H  H38  1  0.80446661  0.45116502  0.22091053  1  0.078782  0  0.102829  0.106505  0  1.019138  0
H  H39  1  0.45064197  0.41501474  0.32163963  1  0.083873  0  0.103328  0.106861  0  1.000985  0
H  H40  1  0.48856764  0.51746459  0.27309381  1  0.080801  0  0.100766  0.104861  0  1.006159  0
H  H41  1  0.86095049  0.34094835  0.24157035  1  0.088686  0  0.101232  0.112556  0  1.025934  0
H  H42  1  0.82475097  0.23877891  0.29167564  1  0.079824  0  0.106709  0.113533  0  0.993877  0
H  H43  1  0.50918349  0.30508980  0.34519679  1  0.096677  0  0.101783  0.104805  0  1.036747  0
H  H44  1  0.75361364  0.83257630  0.33002944  1  0.081747  0  0.101844  0.105454  0  1.008168  0
H  H45  1  0.76979009  0.93715442  0.42489991  1  0.003965  0  0.095402  0.090816  0  1.032206  0
H  H46  1  0.17424623  0.92502687  0.45374086  1  0.068365  0  0.102825  0.106064  0  1.006369  0
H  H47  1  0.15653991  0.81498409  0.36318890  1  0.079035  0  0.099992  0.102303  0  1.006312  0
H  H48  1  0.03879041  0.72798925  0.27368113  1  0.079385  0  0.097474  0.097133  0  1.039838  0
H  H49  1  0.88709334  0.02551416  0.51461271  1  0.082357  0  0.099259  0.09979  0  1.028972  0
H  H50  1  0.68517737  0.38769809  0.11166528  1  0.091126  0  0.100714  0.104486  0  1.039536  0
H  H51  1  0.48322333  0.38677864  0.11679655  1  0.070293  0  0.106812  0.1132  0  0.992042  0
H  H52  1  0.29677909  0.33883700  0.06770675  1  0.157887  0  0.105353  0.122093  0  1.037237  0
H  H53  1  0.64309101  0.22411346  0.92839239  1  0.087161  0  0.100622  0.099039  0  1.025073  0
H  H54  1  0.45440611  0.17204079  0.88156990  1  0.060932  0  0.102519  0.104663  0  0.993053  0
H  H55  1  0.25304522  0.17130898  0.88737448  1  0.096693  0  0.103011  0.108814  0  1.026199  0
H  H56  1  0.01252647  0.28607907  0.72866947  1  0.07833  0  0.127439  0.100857  0  0.948948  0
H  H57  1  0.92944146  0.24637605  0.65142058  1  0.07218  0  0.127707  0.103597  0  0.959116  0
H  H58  1  0.79162865  0.28187121  0.84116070  1  0.10035  0  0.120366  0.088387  0  0.996379  0
H  H59  1  0.93321835  0.30683082  0.83722235  1  0.057685  0  0.122304  0.090487  0  0.94886  0
H  H60  1  0.82348480  0.09719857  0.79989156  1  0.10422  0  0.1265  0.10376  0  0.978097  0
H  H61  1  0.72749917  0.16142029  0.81891147  1  0.033254  0  0.124074  0.091211  0  0.95901  0
H  H62  1  0.68074521  0.22757677  0.73771863  1  0.062327  0  0.11841  0.080795  0  0.994024  0
H  H63  1  0.73954824  0.21215745  0.65629012  1  0.076509  0  0.120024  0.083124  0  0.980904  0
H  H64  1  0.86399413  0.12631148  0.62956547  1  0.096964  0  0.122568  0.088877  0  0.984801  0
H  H65  1  0.90133943  0.07645148  0.69002409  1  0.080123  0  0.130297  0.105714  0  0.937454  0
H  H66  1  0.01352806  0.13018280  0.79525711  1  0.117748  0  0.131409  0.114868  0  0.977102  0
H  H67  1  0.06203998  0.21881442  0.81079764  1  0.073494  0  0.125141  0.097433  0  0.97308  0
H  H68  1  0.54731688  0.17671667  0.60049695  1  0.086833  0  0.124723  0.09229  0  0.958688  0
H  H69  1  0.55952637  0.11282832  0.64960867  1  0.09021  0  0.125743  0.095022  0  0.968474  0
H  H70  1  0.36317574  0.06807568  0.46241635  1  0.127835  0  0.12797  0.1039  0  0.980811  0
H  H71  1  0.43538207  0.15082237  0.49300319  1  0.089299  0  0.128886  0.100692  0  0.966123  0
H  H72  1  0.46106240  0.00043031  0.60802594  1  0.118215  0  0.126549  0.101193  0  0.967303  0
H  H73  1  0.37865428  0.98141316  0.52803996  1  0.080409  0  0.126024  0.101832  0  0.964171  0
H  H74  1  0.70709105  0.09015662  0.46368056  1  0.109119  0  0.128135  0.10277  0  0.958636  0
H  H75  1  0.63450545  0.16370722  0.49331231  1  0.088873  0  0.125567  0.096765  0  0.954763  0
H  H76  1  0.65642192  0.01501643  0.61009380  1  0.071579  0  0.124533  0.092043  0  0.950814  0
H  H77  1  0.72107488  0.00423451  0.53132557  1  0.03693  0  0.118466  0.08115  0  1.003055  0
H  H78  1  0.46383872  0.96811657  0.42205077  1  0.06816  0  0.122887  0.092178  0  0.958373  0
H  H79  1  0.60983369  0.97858280  0.42254864  1  0.085738  0  0.119723  0.088156  0  0.997525  0
H  H80  1  0.14758150  0.05916489  0.83900572  1  0.139623  0  0.108401  0.121377  0  1.011048  0
H  H81  1  0.12307685  0.04485411  0.95549072  1  0.104469  0  0.104481  0.115644  0  1.007944  0
H  H82  1  0.19099043  0.00382938  0.05890627  1  0.092866  0  0.106103  0.115122  0  0.993802  0
H  H83  1  0.46039972  0.91779295  0.95236005  1  0.092385  0  0.104487  0.110013  0  1.017047  0
H  H84  1  0.48927134  0.93659320  0.83520574  1  0.082998  0  0.103334  0.106403  0  0.99298  0
H  H85  1  0.42901442  0.98606259  0.73650288  1  0.080378  0  0.09728  0.100312  0  1.01671  0
H  H86  1  0.30446388  0.22090930  0.45116608  1  0.079186  0  0.102846  0.106561  0  1.019093  0
H  H87  1  0.95064046  0.32164110  0.41501487  1  0.083794  0  0.103331  0.106854  0  1.001004  0
H  H88  1  0.98856508  0.27309497  0.51746406  1  0.080779  0  0.10075  0.104851  0  1.006135  0
H  H89  1  0.36095062  0.24157046  0.34095042  1  0.088702  0  0.101254  0.112565  0  1.025829  0
H  H90  1  0.32475180  0.29167616  0.23878031  1  0.079874  0  0.106717  0.113541  0  0.993828  0
H  H91  1  0.00918257  0.34519918  0.30509046  1  0.096646  0  0.101754  0.104745  0  1.036768  0
H  H92  1  0.25360884  0.33003412  0.83258031  1  0.081596  0  0.101843  0.105385  0  1.008397  0
H  H93  1  0.26978884  0.42490323  0.93715757  1  0.003897  0  0.095388  0.090807  0  1.03212  0
H  H94  1  0.67424139  0.45374077  0.92502746  1  0.068463  0  0.102823  0.106031  0  1.00638  0
H  H95  1  0.65653362  0.36318691  0.81498406  1  0.079191  0  0.099991  0.102314  0  1.006356  0
H  H96  1  0.53877969  0.27367982  0.72799050  1  0.079341  0  0.097557  0.097207  0  1.039752  0
H  H97  1  0.38709219  0.51461673  0.02551745  1  0.082455  0  0.09922  0.09973  0  1.029001  0
H  H98  1  0.18517863  0.11166466  0.38770074  1  0.091137  0  0.10071  0.104515  0  1.039517  0
H  H99  1  0.98322368  0.11679654  0.38677958  1  0.070282  0  0.106804  0.113185  0  0.992053  0
H  H100  1  0.79677983  0.06770720  0.33883505  1  0.157894  0  0.105367  0.122105  0  1.037243  0
H  H101  1  0.14309214  0.92839458  0.22411301  1  0.087168  0  0.100645  0.099083  0  1.025101  0
H  H102  1  0.95440745  0.88157067  0.17204216  1  0.060939  0  0.102529  0.104692  0  0.993057  0
H  H103  1  0.75304770  0.88737484  0.17130933  1  0.096733  0  0.103028  0.108831  0  1.026197  0
C  C104  1  0.44302741  0.70656724  0.24830332  1  0.560796  0  0.025111  0.010331  0  3.854393  0
C  C105  1  0.36481798  0.81411866  0.26849919  1  0.549275  0  0.020888  0.011317  0  3.888985  0
C  C106  1  0.30092662  0.79220130  0.14725442  1  0.593234  0  0.023356  0.003023  0  3.869351  0
C  C107  1  0.25464529  0.71141181  0.21398401  1  0.544918  0  0.020771  0.005487  0  3.917349  0
C  C108  1  0.37879146  0.68441712  0.12717707  1  0.538942  0  0.0253  0.012757  0  3.852156  0
C  C109  1  0.49295608  0.78863894  0.18084875  1  0.552408  0  0.020277  -0.001551  0  3.813986  0
C  C110  1  0.05254801  0.59735014  0.12152996  1  0.522959  0  0.02493  0.00772  0  3.871613  0
C  C111  1  0.93916195  0.48996231  0.09559400  1  0.504866  0  0.020708  0.000378  0  3.833397  0
C  C112  1  0.95513716  0.55554040  0.00841240  1  0.536021  0  0.023386  0.009323  0  3.849031  0
C  C113  1  0.13714338  0.49183327  0.10866852  1  0.515206  0  0.025131  0.007698  0  3.869422  0
C  C114  1  0.14956122  0.55750347  0.02307262  1  0.598706  0  0.024606  0.012541  0  3.903398  0
C  C115  1  0.03925666  0.45058253  0.99590677  1  0.543804  0  0.021521  0.009872  0  3.883445  0
C  C116  1  0.75343162  0.72461038  0.05895350  1  1.545214  0  0.215709  0.594925  0  4.164384  0
C  C117  1  0.78465986  0.78222521  0.02600215  1  -0.030221  0  -0.024196  -0.0441  0  3.997272  0
C  C118  1  0.72247934  0.83826503  0.03271947  1  -0.094018  0  -0.074071  -0.130433  0  3.918733  0
C  C119  1  0.75588270  0.89578747  0.00680131  1  0.022873  0  -0.004296  0.078927  0  3.991863  0
C  C120  1  0.69685393  0.95549245  0.01725186  1  -0.079013  0  -0.085408  -0.126229  0  3.97114  0
C  C121  1  0.73373732  0.01211880  0.99434302  1  -0.04159  0  -0.087676  -0.102  0  3.989544  0
C  C122  1  0.88712649  0.95248842  0.94582917  1  -0.020422  0  -0.079682  -0.145303  0  3.934668  0
C  C123  1  0.91474724  0.83577389  0.96355945  1  -0.073086  0  -0.091099  -0.135545  0  4.008071  0
C  C124  1  0.88162220  0.78120921  0.99071365  1  -0.054106  0  -0.095951  -0.109379  0  4.025966  0
C  C125  1  0.82933396  0.01056096  0.95778097  1  -0.015411  0  -0.018801  -0.022943  0  3.994476  0
C  C126  1  0.87108559  0.07220751  0.93393926  1  1.528631  0  0.194354  0.557145  0  4.219427  0
C  C127  1  0.85373869  0.89459384  0.97114817  1  -0.030084  0  -0.00589  0.078721  0  4.002833  0
C  C128  1  0.67114033  0.54956205  0.21166256  1  1.556361  0  0.214024  0.592482  0  4.160843  0
C  C129  1  0.64989478  0.49041904  0.24442403  1  -0.061335  0  -0.024  -0.044573  0  3.998016  0
C  C130  1  0.72764062  0.44315987  0.24342027  1  -0.067587  0  -0.078176  -0.132537  0  3.945229  0
C  C131  1  0.70846925  0.38411026  0.26977035  1  -0.003503  0  -0.005412  0.075966  0  4.004392  0
C  C132  1  0.60681938  0.37399269  0.29910510  1  0.021135  0  -0.004061  0.07929  0  3.997824  0
C  C133  1  0.52847959  0.42343522  0.30015623  1  -0.06391  0  -0.086924  -0.12786  0  3.98205  0
C  C134  1  0.54910842  0.48008728  0.27326706  1  -0.028296  0  -0.091189  -0.103589  0  4.008237  0
C  C135  1  0.78606827  0.33413877  0.26674012  1  -0.063195  0  -0.086717  -0.128312  0  3.967391  0
C  C136  1  0.76564688  0.27730335  0.29334234  1  0.019886  0  -0.086171  -0.10312  0  3.98952  0
C  C137  1  0.58699599  0.31403310  0.32414099  1  -0.025298  0  -0.082631  -0.144217  0  3.928913  0
C  C138  1  0.66472860  0.26662226  0.32181520  1  -0.067461  0  -0.017864  -0.021559  0  3.9839  0
C  C139  1  0.64254370  0.20217175  0.34657633  1  1.540549  0  0.198653  0.569675  0  4.222244  0
C  C140  1  0.82334606  0.72599863  0.23838532  1  1.568809  0  0.215054  0.594038  0  4.164332  0
C  C141  1  0.88969703  0.77638313  0.29590877  1  -0.026738  0  -0.018699  -0.029439  0  3.979857  0
C  C142  1  0.84168410  0.82914554  0.33769938  1  -0.081251  0  -0.075602  -0.129178  0  3.933935  0
C  C143  1  0.90544942  0.87929085  0.38915453  1  0.033009  0  -0.002054  0.082292  0  3.988523  0
C  C144  1  0.85812705  0.93426348  0.43222750  1  0.070658  0  -0.090797  -0.132222  0  4.011233  0
C  C145  1  0.08558740  0.92685796  0.44764987  1  -0.066049  0  -0.076535  -0.132526  0  3.929948  0
C  C146  1  0.02173511  0.87523127  0.39766125  1  -0.020845  0  -0.001838  0.082636  0  3.993606  0
C  C147  1  0.06860500  0.81939429  0.35541830  1  -0.066504  0  -0.092499  -0.137142  0  4.000757  0
C  C148  1  0.00420407  0.77134259  0.30601915  1  -0.035047  0  -0.092348  -0.104175  0  4.014591  0
C  C149  1  0.03714972  0.97961837  0.48921607  1  0.012027  0  -0.015998  -0.022952  0  3.979559  0
C  C150  1  0.10467092  0.03377044  0.54263719  1  1.580223  0  0.215623  0.593497  0  4.166506  0
C  C151  1  0.92198932  0.98283301  0.48131587  1  -0.083174  0  -0.09085  -0.105361  0  4.008744  0
C  C152  1  0.67508976  0.30628338  0.01873259  1  0.063685  0  -0.019739  -0.040764  0  3.992626  0
C  C153  1  0.79610875  0.30715799  0.01691875  1  1.530464  0  0.225997  0.611186  0  4.157172  0
C  C154  1  0.63008497  0.35211255  0.07285751  1  -0.021978  0  -0.085414  -0.091107  0  3.977722  0
C  C155  1  0.51850515  0.35145051  0.07563015  1  -0.051091  0  -0.079831  -0.113615  0  3.955228  0
C  C156  1  0.33204173  0.30355382  0.02651344  1  -0.018163  0  -0.073466  -0.127408  0  3.90623  0
C  C157  1  0.14316236  0.25887963  0.97948559  1  1.545329  0  0.227568  0.610794  0  4.158134  0
C  C158  1  0.44696394  0.30440296  0.02516982  1  -0.021065  0  0.000337  0.082817  0  3.98296  0
C  C159  1  0.49212852  0.25697279  0.97111119  1  -0.023199  0  -0.000656  0.077932  0  3.992075  0
C  C160  1  0.60717336  0.25983582  0.96886778  1  -0.093969  0  -0.075256  -0.12756  0  3.929309  0
C  C161  1  0.41994641  0.20877280  0.92199932  1  -0.044328  0  -0.083652  -0.120223  0  3.971536  0
C  C162  1  0.26373201  0.25684850  0.97708114  1  -0.070174  0  -0.0223  -0.048373  0  3.999092  0
C  C163  1  0.30825675  0.20823618  0.92498166  1  0.01558  0  -0.085658  -0.09272  0  3.980999  0
C  C164  1  0.94302846  0.24830188  0.70656692  1  0.56083  0  0.025097  0.010334  0  3.854434  0
C  C165  1  0.86481446  0.26849859  0.81411839  1  0.549294  0  0.020843  0.011331  0  3.889168  0
C  C166  1  0.80092385  0.14725315  0.79220027  1  0.59368  0  0.023389  0.002976  0  3.869467  0
C  C167  1  0.75464338  0.21398285  0.71141182  1  0.544865  0  0.020835  0.00559  0  3.917307  0
C  C168  1  0.87879006  0.12717604  0.68441761  1  0.53896  0  0.025281  0.012702  0  3.852108  0
C  C169  1  0.99295411  0.18084767  0.78863953  1  0.55241  0  0.020179  -0.001771  0  3.814322  0
C  C170  1  0.55254619  0.12153165  0.59734970  1  0.522906  0  0.024957  0.007702  0  3.871599  0
C  C171  1  0.43916204  0.09559415  0.48996136  1  0.504823  0  0.020754  0.000543  0  3.833215  0
C  C172  1  0.45513894  0.00841380  0.55554057  1  0.535684  0  0.023473  0.009485  0  3.848835  0
C  C173  1  0.63714131  0.10866977  0.49183390  1  0.515227  0  0.025161  0.00771  0  3.8694  0
C  C174  1  0.64956220  0.02307593  0.55750523  1  0.598713  0  0.024523  0.012458  0  3.903529  0
C  C175  1  0.53925801  0.99590786  0.45058343  1  0.543765  0  0.021461  0.009829  0  3.883474  0
C  C176  1  0.25343805  0.05895293  0.72460900  1  1.545968  0  0.215786  0.595115  0  4.164154  0
C  C177  1  0.28466436  0.02600123  0.78222308  1  -0.029697  0  -0.02417  -0.044057  0  3.997151  0
C  C178  1  0.22248265  0.03272032  0.83826425  1  -0.094508  0  -0.07411  -0.12979  0  3.919404  0
C  C179  1  0.25588743  0.00680054  0.89578668  1  0.023001  0  -0.004319  0.076583  0  3.995341  0
C  C180  1  0.19685599  0.01725156  0.95549095  1  -0.078908  0  -0.085378  -0.125497  0  3.971703  0
C  C181  1  0.23373764  0.99434060  0.01211746  1  -0.041622  0  -0.087662  -0.101964  0  3.989335  0
C  C182  1  0.38712841  0.94582815  0.95248894  1  -0.020128  0  -0.079676  -0.145297  0  3.934575  0
C  C183  1  0.41475080  0.96355932  0.83577426  1  -0.073114  0  -0.09115  -0.135529  0  4.007968  0
C  C184  1  0.38162431  0.99071372  0.78121164  1  -0.053869  0  -0.095867  -0.109195  0  4.02591  0
C  C185  1  0.32933539  0.95778001  0.01056140  1  -0.01544  0  -0.018755  -0.022816  0  3.994343  0
C  C186  1  0.37108826  0.93393833  0.07220691  1  1.528647  0  0.194317  0.557044  0  4.219624  0
C  C187  1  0.35374149  0.97114810  0.89459583  1  -0.030385  0  -0.005863  0.079405  0  4.003303  0
C  C188  1  0.17113699  0.21166426  0.54956475  1  1.55637  0  0.21399  0.592401  0  4.160978  0
C  C189  1  0.14989340  0.24442336  0.49041945  1  -0.061024  0  -0.02399  -0.044481  0  3.997931  0
C  C190  1  0.22763719  0.24342105  0.44316111  1  -0.068104  0  -0.078185  -0.132743  0  3.945337  0
C  C191  1  0.20846731  0.26977223  0.38411137  1  -0.00358  0  -0.005428  0.076005  0  4.004478  0
C  C192  1  0.10681816  0.29910596  0.37399381  1  0.021007  0  -0.004136  0.07925  0  3.997815  0
C  C193  1  0.02847798  0.30015764  0.42343573  1  -0.063923  0  -0.086857  -0.127795  0  3.981943  0
C  C194  1  0.04910591  0.27326710  0.48008735  1  -0.028298  0  -0.091206  -0.1036  0  4.008132  0
C  C195  1  0.28606823  0.26674219  0.33414093  1  -0.063428  0  -0.086726  -0.128286  0  3.967155  0
C  C196  1  0.26564554  0.29334382  0.27730538  1  0.02013  0  -0.086155  -0.10312  0  3.989547  0
C  C197  1  0.08699553  0.32414250  0.31403333  1  -0.025129  0  -0.082549  -0.144149  0  3.928781  0
C  C198  1  0.16472866  0.32181496  0.26662184  1  -0.067515  0  -0.017861  -0.021477  0  3.983995  0
C  C199  1  0.14253860  0.34657370  0.20217406  1  1.540772  0  0.198529  0.569388  0  4.222292  0
C  C200  1  0.32333453  0.23838814  0.72600181  1  1.569491  0  0.215239  0.594389  0  4.163866  0
C  C201  1  0.38968736  0.29590991  0.77638634  1  -0.02634  0  -0.01883  -0.029798  0  3.980401  0
C  C202  1  0.34167405  0.33770073  0.82914577  1  -0.081665  0  -0.075587  -0.129017  0  3.933989  0
C  C203  1  0.40544314  0.38915521  0.87929064  1  0.033555  0  -0.00208  0.082352  0  3.988469  0
C  C204  1  0.35812402  0.43222894  0.93426477  1  0.070277  0  -0.090763  -0.132208  0  4.010999  0
C  C205  1  0.58558261  0.44764963  0.92685805  1  -0.065863  0  -0.076561  -0.132508  0  3.930025  0
C  C206  1  0.52172696  0.39766170  0.87523453  1  -0.021118  0  -0.001814  0.082691  0  3.993645  0
C  C207  1  0.56859723  0.35541930  0.81939696  1  -0.101453  0  -0.09245  -0.137153  0  4.000702  0
C  C208  1  0.50419464  0.30602014  0.77134583  1  -0.000121  0  -0.092429  -0.104191  0  4.014774  0
C  C209  1  0.53714755  0.48921592  0.97962127  1  0.012074  0  -0.015985  -0.023068  0  3.979749  0
C  C210  1  0.60467384  0.54263589  0.03377162  1  1.580207  0  0.215715  0.593692  0  4.16635  0
C  C211  1  0.42198783  0.48131644  0.98283441  1  -0.083362  0  -0.090812  -0.105274  0  4.008755  0
C  C212  1  0.17509358  0.01873347  0.30628355  1  0.064118  0  -0.0197  -0.040659  0  3.992592  0
C  C213  1  0.29611424  0.01691990  0.30715801  1  1.530497  0  0.226074  0.611168  0  4.157177  0
C  C214  1  0.13008424  0.07285744  0.35211382  1  -0.022031  0  -0.085398  -0.091168  0  3.977785  0
C  C215  1  0.01850458  0.07563028  0.35145030  1  -0.051099  0  -0.079849  -0.113631  0  3.955252  0
C  C216  1  0.83204387  0.02651467  0.30355307  1  -0.018158  0  -0.073516  -0.12744  0  3.906338  0
C  C217  1  0.64316651  0.97948823  0.25887739  1  1.545102  0  0.227525  0.610758  0  4.15798  0
C  C218  1  0.94696374  0.02517084  0.30440154  1  -0.020906  0  0.000407  0.082896  0  3.983009  0
C  C219  1  0.99212686  0.97111268  0.25697176  1  -0.023348  0  -0.000665  0.077983  0  3.99197  0
C  C220  1  0.10717546  0.96886924  0.25983525  1  -0.094241  0  -0.075346  -0.127717  0  3.929363  0
C  C221  1  0.91994622  0.92199938  0.20877187  1  -0.044343  0  -0.083683  -0.120338  0  3.971546  0
C  C222  1  0.76373391  0.97708297  0.25684688  1  -0.070072  0  -0.022268  -0.048365  0  3.999121  0
C  C223  1  0.80825690  0.92498248  0.20823617  1  0.015494  0  -0.085664  -0.0927  0  3.98105  0
N  N224  1  0.47395419  0.71411670  0.17884140  1  -0.987703  0  -0.344251  -0.175729  0  3.41092  0
N  N225  1  0.34477566  0.74122604  0.26689887  1  -1.015821  0  -0.351499  -0.209834  0  3.420182  0
N  N226  1  0.28023495  0.71918310  0.14505720  1  -1.024287  0  -0.345799  -0.203489  0  3.42405  0
N  N227  1  0.39395349  0.82509314  0.19986252  1  -0.99212  0  -0.345774  -0.199619  0  3.454073  0
N  N228  1  0.94823435  0.56055778  0.08414366  1  -0.993653  0  -0.3463  -0.175327  0  3.423004  0
N  N229  1  0.03426553  0.45207070  0.07110546  1  -0.973246  0  -0.345719  -0.204088  0  3.462054  0
N  N230  1  0.14762568  0.56149977  0.09756182  1  -1.029659  0  -0.343374  -0.206469  0  3.422657  0
N  N231  1  0.04951295  0.51972518  0.98390167  1  -1.01122  0  -0.351183  -0.207427  0  3.418582  0
N  N232  1  0.97395490  0.17884055  0.71411738  1  -0.987687  0  -0.344241  -0.175734  0  3.411012  0
N  N233  1  0.84477295  0.26689732  0.74122588  1  -1.015761  0  -0.351529  -0.209878  0  3.42027  0
N  N234  1  0.78023320  0.14505694  0.71918339  1  -1.024369  0  -0.345799  -0.203461  0  3.424008  0
N  N235  1  0.89394942  0.19986157  0.82509156  1  -0.992542  0  -0.345701  -0.199592  0  3.454191  0
N  N236  1  0.44823623  0.08414504  0.56055714  1  -0.993358  0  -0.346292  -0.175349  0  3.423076  0
N  N237  1  0.53426569  0.07110536  0.45207146  1  -0.973248  0  -0.345691  -0.204011  0  3.461923  0
N  N238  1  0.64762501  0.09756462  0.56150048  1  -1.029723  0  -0.343411  -0.206566  0  3.422751  0
N  N239  1  0.54951473  0.98390216  0.51972652  1  -1.011164  0  -0.351269  -0.207622  0  3.418555  0
O  O240  1  0.81552557  0.67517121  0.05233470  1  -1.169179  0  -0.320795  -0.549909  0  2.343051  0
O  O241  1  0.66898228  0.72912431  0.09309215  1  -1.175567  0  -0.317069  -0.551226  0  2.341749  0
O  O242  1  0.83486867  0.13059280  0.96356031  1  -1.149968  0  -0.342451  -0.558915  0  2.24594  0
O  O243  1  0.93832259  0.06776475  0.88867058  1  -1.178794  0  -0.32967  -0.565023  0  2.131851  0
O  O244  1  0.76288115  0.55398674  0.18551296  1  -1.180253  0  -0.323766  -0.56051  0  2.357366  0
O  O245  1  0.59647973  0.59077230  0.21035575  1  -1.17267  0  -0.317623  -0.543333  0  2.310544  0
O  O246  1  0.71872366  0.17205851  0.36783310  1  -1.176198  0  -0.327757  -0.558325  0  2.117138  0
O  O247  1  0.53841206  0.18044675  0.34248148  1  -1.156552  0  -0.345787  -0.574676  0  2.300624  0
O  O248  1  0.87729181  0.68660357  0.19573073  1  -1.170718  0  -0.319467  -0.550267  0  2.330942  0
O  O249  1  0.71930247  0.72675132  0.23523391  1  -1.174716  0  -0.318478  -0.550926  0  2.313231  0
O  O250  1  0.05368514  0.06927788  0.58990440  1  -1.170734  0  -0.31561  -0.549001  0  2.332417  0
O  O251  1  0.20741777  0.04069463  0.53700541  1  -1.188181  0  -0.316716  -0.552858  0  2.332857  0
O  O252  1  0.10799469  0.31312371  0.01517555  1  -1.212681  0  -0.331376  -0.592689  0  2.476183  0
O  O253  1  0.08195927  0.20716466  0.94392437  1  -1.162364  0  -0.308126  -0.527051  0  2.365722  0
O  O254  1  0.85371970  0.33597821  0.07283227  1  -1.169467  0  -0.309321  -0.52955  0  2.349208  0
O  O255  1  0.83588685  0.28099382  0.96037561  1  -1.213298  0  -0.33624  -0.600935  0  2.418802  0
O  O256  1  0.31553584  0.05233216  0.67516819  1  -1.169359  0  -0.320911  -0.550116  0  2.34271  0
O  O257  1  0.16899205  0.09308912  0.72911934  1  -1.176175  0  -0.317069  -0.551225  0  2.341962  0
O  O258  1  0.33487163  0.96356241  0.13059342  1  -1.14997  0  -0.342452  -0.558897  0  2.245927  0
O  O259  1  0.43831892  0.88866786  0.06776222  1  -1.17885  0  -0.329645  -0.56495  0  2.132034  0
O  O260  1  0.26288362  0.18551408  0.55398917  1  -1.180182  0  -0.32379  -0.560508  0  2.357264  0
O  O261  1  0.09648100  0.21035628  0.59077267  1  -1.172765  0  -0.317609  -0.543305  0  2.310817  0
O  O262  1  0.21872955  0.36783187  0.17205432  1  -1.176127  0  -0.327788  -0.558342  0  2.116673  0
O  O263  1  0.03841815  0.34248046  0.18044708  1  -1.156865  0  -0.345679  -0.574446  0  2.300862  0
O  O264  1  0.37728822  0.19573054  0.68660653  1  -1.171075  0  -0.319426  -0.550273  0  2.330635  0
O  O265  1  0.21929652  0.23523509  0.72675396  1  -1.175083  0  -0.31867  -0.551188  0  2.313199  0
O  O266  1  0.55368399  0.58990507  0.06928093  1  -1.170734  0  -0.315604  -0.54906  0  2.332189  0
O  O267  1  0.70741416  0.53700558  0.04069657  1  -1.188201  0  -0.316794  -0.552923  0  2.333001  0
O  O268  1  0.60799663  0.01517679  0.31312215  1  -1.212638  0  -0.331334  -0.592715  0  2.476098  0
O  O269  1  0.58196271  0.94392923  0.20716147  1  -1.162326  0  -0.308116  -0.526954  0  2.365406  0
O  O270  1  0.35372441  0.07283458  0.33597884  1  -1.169568  0  -0.309405  -0.529557  0  2.349129  0
O  O271  1  0.33589323  0.96037706  0.28099476  1  -1.213327  0  -0.336234  -0.600873  0  2.418849  0
