# generated using pymatgen
data_AlH9C27(ClO)6
_symmetry_space_group_name_H-M   'P 1'
_cell_length_a   4.02317530
_cell_length_b   27.83660344
_cell_length_c   27.87648453
_cell_angle_alpha   59.99363427
_cell_angle_beta   89.85638953
_cell_angle_gamma   89.58691821
_symmetry_Int_Tables_number   1
_chemical_formula_structural   AlH9C27(ClO)6
_chemical_formula_sum   'Al3 H27 C81 Cl18 O18'
_cell_volume   2703.42506672
_cell_formula_units_Z   3
loop_
 _symmetry_equiv_pos_site_id
 _symmetry_equiv_pos_as_xyz
  1  'x, y, z'
loop_
 _atom_site_type_symbol
 _atom_site_label
 _atom_site_symmetry_multiplicity
 _atom_site_fract_x
 _atom_site_fract_y
 _atom_site_fract_z
 _atom_site_occupancy
 _atom_site_pbe_bader_charge
 _atom_site_pbe_bader_spin_density
 _atom_site_pbe_cm5_charge
 _atom_site_pbe_ddec_charge
 _atom_site_pbe_ddec_spin_density
 _atom_site_pbe_ddec_sum_bond_order
 _atom_site_pbe_magmom
Al  Al0  1  0.00008096  0.50000949  0.49990684  1  2.506356  0  0.426797  1.627685  0  2.550066  0
Al  Al1  1  0.94878911  0.83308806  0.83325453  1  2.504464  0  0.420653  1.622165  0  2.536014  0
Al  Al2  1  0.06219675  0.16645137  0.16625004  1  2.505082  0  0.420835  1.619943  0  2.537163  0
H  H3  1  0.51273889  0.07693008  0.92273416  1  0.048955  0  0.101277  0.102125  0  1.026585  0
H  H4  1  0.49464801  0.25507953  0.83362169  1  0.064343  0  0.102143  0.104553  0  1.020803  0
H  H5  1  0.52837672  0.16581445  0.74486628  1  0.053174  0  0.101942  0.104159  0  1.020051  0
H  H6  1  0.72223940  0.01236389  0.91469748  1  0.05732  0  0.104401  0.120038  0  1.005782  0
H  H7  1  0.25035474  0.09692594  0.75348070  1  0.086191  0  0.104123  0.119301  0  1.006232  0
H  H8  1  0.30064448  0.08520482  0.98650322  1  0.078624  0  0.104669  0.120409  0  1.005946  0
H  H9  1  0.76703346  0.24646925  0.90305154  1  0.086195  0  0.104339  0.119897  0  1.006062  0
H  H10  1  0.74790871  0.31718732  0.76253011  1  0.080123  0  0.102359  0.11687  0  1.010667  0
H  H11  1  0.27147620  0.23693623  0.68283455  1  0.089149  0  0.10255  0.117083  0  1.011322  0
H  H12  1  0.51324906  0.49977075  0.07736907  1  0.041928  0  0.101477  0.102188  0  1.026356  0
H  H13  1  0.52760839  0.58904010  0.16610070  1  0.057707  0  0.102263  0.104984  0  1.019507  0
H  H14  1  0.49532359  0.41093247  0.25526644  1  0.057256  0  0.102118  0.104565  0  1.019299  0
H  H15  1  0.29369025  0.42812320  0.08566259  1  0.086583  0  0.104367  0.120119  0  1.005828  0
H  H16  1  0.76813629  0.34934137  0.24667399  1  0.069147  0  0.104302  0.119323  0  1.006415  0
H  H17  1  0.72973709  0.57183448  0.01357612  1  0.096353  0  0.104389  0.119868  0  1.005717  0
H  H18  1  0.24947784  0.64990257  0.09646761  1  0.05556  0  0.104277  0.119674  0  1.005725  0
H  H19  1  0.26431056  0.57999792  0.23702943  1  0.084192  0  0.102566  0.117536  0  1.010353  0
H  H20  1  0.75585637  0.42019832  0.31719172  1  0.055898  0  0.102666  0.116905  0  1.010573  0
H  H21  1  0.48249938  0.92336187  0.49974961  1  0.031383  0  0.101548  0.102919  0  1.025101  0
H  H22  1  0.46301520  0.83437851  0.41079631  1  0.054594  0  0.102192  0.104679  0  1.02024  0
H  H23  1  0.49445390  0.74515590  0.58868502  1  0.0598  0  0.102084  0.104525  0  1.020808  0
H  H24  1  0.69762706  0.91484652  0.57158600  1  0.09016  0  0.104385  0.120194  0  1.006411  0
H  H25  1  0.22879395  0.75376513  0.65005311  1  0.099304  0  0.10414  0.119402  0  1.006077  0
H  H26  1  0.27341462  0.98828037  0.42664709  1  0.0971  0  0.104396  0.119963  0  1.005264  0
H  H27  1  0.75072345  0.90254595  0.35120510  1  0.047831  0  0.104079  0.11932  0  1.006705  0
H  H28  1  0.72200295  0.76325820  0.41995942  1  0.084662  0  0.102412  0.117371  0  1.011278  0
H  H29  1  0.23807595  0.68305892  0.57950891  1  0.086179  0  0.102402  0.116775  0  1.009783  0
C  C30  1  0.49505165  0.57385834  0.49992532  1  1.633447  0  0.272648  0.678943  0  4.050143  0
C  C31  1  0.50287469  0.42617384  0.57364269  1  1.630899  0  0.27252  0.67881  0  4.049911  0
C  C32  1  0.50217772  0.50009540  0.42610050  1  1.632121  0  0.272459  0.678703  0  4.049747  0
C  C33  1  0.44707321  0.90660356  0.83327928  1  1.63217  0  0.274753  0.681508  0  4.07303  0
C  C34  1  0.45224912  0.75960630  0.90679023  1  1.65531  0  0.274472  0.681408  0  4.072302  0
C  C35  1  0.44974594  0.83289200  0.75992405  1  1.649608  0  0.274645  0.680619  0  4.075223  0
C  C36  1  0.56279986  0.16676867  0.09265499  1  1.653138  0  0.273789  0.680384  0  4.075673  0
C  C37  1  0.55811665  0.23981593  0.16672208  1  1.630454  0  0.275209  0.680629  0  4.072668  0
C  C38  1  0.56216730  0.09292440  0.23979739  1  1.627255  0  0.273868  0.678693  0  4.076082  0
C  C39  1  0.51849285  0.16598030  0.88437627  1  0.009152  0  -0.005394  0.080985  0  4.010223  0
C  C40  1  0.51282146  0.11602183  0.88364303  1  -0.057269  0  -0.085492  -0.16879  0  3.916871  0
C  C41  1  0.50623340  0.11516754  0.83382801  1  0.004547  0  -0.005271  0.081499  0  4.01046  0
C  C42  1  0.51368346  0.16584522  0.78388312  1  -0.045292  0  -0.085984  -0.171934  0  3.917859  0
C  C43  1  0.51203331  0.21657501  0.78312850  1  0.002893  0  -0.006125  0.080805  0  4.008928  0
C  C44  1  0.51080405  0.21595259  0.83371538  1  -0.051932  0  -0.085896  -0.17191  0  3.918603  0
C  C45  1  0.58250439  0.96247077  0.87967932  1  0.02864  0  0.020072  0.147953  0  4.045071  0
C  C46  1  0.60653118  0.01251771  0.87937581  1  0.029076  0  -0.099414  -0.211305  0  3.966588  0
C  C47  1  0.49074004  0.06200995  0.83392553  1  0.024088  0  -0.004244  0.101095  0  4.004369  0
C  C48  1  0.35467691  0.05993543  0.78868861  1  0.003632  0  -0.098913  -0.21083  0  3.967286  0
C  C49  1  0.34410253  0.00999844  0.78855422  1  0.05636  0  0.019517  0.146107  0  4.050885  0
C  C50  1  0.45555016  0.96021093  0.83404351  1  0.080564  0  -0.018478  -0.155904  0  3.917454  0
C  C51  1  0.41365802  0.12056091  0.98659290  1  -0.049313  0  -0.099787  -0.212395  0  3.967448  0
C  C52  1  0.43312857  0.12043003  0.03653512  1  0.122139  0  0.01994  0.147912  0  4.046187  0
C  C53  1  0.55593084  0.16615608  0.03902153  1  0.034765  0  -0.017552  -0.155476  0  3.917665  0
C  C54  1  0.66823772  0.21158952  0.98955115  1  0.057687  0  0.019663  0.146453  0  4.049124  0
C  C55  1  0.66229346  0.21131042  0.93974185  1  -0.043735  0  -0.099561  -0.212236  0  3.967616  0
C  C56  1  0.53019387  0.16597894  0.93745040  1  0.089142  0  -0.00389  0.102751  0  4.002045  0
C  C57  1  0.63751044  0.31800068  0.72653259  1  0.050127  0  -0.100679  -0.215412  0  3.972808  0
C  C58  1  0.63317223  0.36815387  0.67667219  1  0.045834  0  0.025031  0.158862  0  4.015672  0
C  C59  1  0.50529305  0.37243093  0.62737287  1  0.039087  0  -0.016618  -0.164257  0  3.869468  0
C  C60  1  0.37989714  0.32295470  0.63180710  1  0.040502  0  0.025028  0.159798  0  4.01546  0
C  C61  1  0.38039598  0.27305232  0.68189886  1  0.039132  0  -0.101126  -0.216405  0  3.974252  0
C  C62  1  0.51029876  0.26965672  0.73005647  1  -0.00089  0  -0.00128  0.11079  0  4.004841  0
C  C63  1  0.50682787  0.55061209  0.11551244  1  0.004585  0  -0.005553  0.081646  0  4.008919  0
C  C64  1  0.51293091  0.49983312  0.11639594  1  -0.017219  0  -0.086022  -0.169841  0  3.917249  0
C  C65  1  0.51771847  0.44912227  0.16629976  1  -0.039067  0  -0.004977  0.081976  0  4.00904  0
C  C66  1  0.51092506  0.44994029  0.21617604  1  -0.03515  0  -0.085776  -0.171685  0  3.916054  0
C  C67  1  0.51196779  0.49999962  0.21677136  1  -0.024042  0  -0.005537  0.081317  0  4.009226  0
C  C68  1  0.51324483  0.54996843  0.16611044  1  -0.011883  0  -0.086145  -0.172608  0  3.918583  0
C  C69  1  0.42545516  0.34250777  0.12077514  1  0.095679  0  0.020285  0.148093  0  4.045754  0
C  C70  1  0.40751567  0.39240058  0.12097456  1  0.005417  0  -0.099667  -0.212339  0  3.968935  0
C  C71  1  0.52739207  0.39595073  0.16630522  1  -0.011409  0  -0.004682  0.100543  0  4.005498  0
C  C72  1  0.66083336  0.34801613  0.21156062  1  0.031942  0  -0.098896  -0.209812  0  3.968168  0
C  C73  1  0.66545367  0.29786454  0.21178554  1  0.046589  0  0.018971  0.145382  0  4.049977  0
C  C74  1  0.55041255  0.29403405  0.16637606  1  0.057033  0  -0.017809  -0.15495  0  3.915407  0
C  C75  1  0.61263392  0.60732835  0.01330119  1  0.058323  0  -0.099276  -0.210978  0  3.96835  0
C  C76  1  0.59004541  0.65708153  0.96322443  1  0.037539  0  0.019855  0.146767  0  4.047322  0
C  C77  1  0.46135360  0.70534394  0.96052168  1  0.072007  0  -0.017551  -0.154384  0  3.915472  0
C  C78  1  0.34718441  0.70143600  0.00991148  1  -0.000413  0  0.019494  0.145812  0  4.049702  0
C  C79  1  0.35624497  0.65138550  0.05984597  1  0.069405  0  -0.099359  -0.211439  0  3.967566  0
C  C80  1  0.49347736  0.60369527  0.06234425  1  -0.03899  0  -0.004408  0.101295  0  4.002669  0
C  C81  1  0.37654058  0.54487394  0.27312303  1  0.012205  0  -0.10123  -0.216495  0  3.97316  0
C  C82  1  0.37597187  0.54513475  0.32296236  1  0.063778  0  0.025506  0.159069  0  4.015973  0
C  C83  1  0.50535859  0.50014025  0.37238752  1  0.055331  0  -0.017034  -0.164164  0  3.869011  0
C  C84  1  0.63766018  0.45513478  0.36809823  1  0.065441  0  0.025155  0.158629  0  4.014374  0
C  C85  1  0.64201495  0.45535728  0.31801837  1  0.03782  0  -0.101144  -0.215203  0  3.973058  0
C  C86  1  0.51045076  0.50008960  0.26974892  1  0.011043  0  -0.001178  0.110755  0  4.005396  0
C  C87  1  0.48729227  0.88500552  0.44912349  1  -0.055178  0  -0.005406  0.081101  0  4.010418  0
C  C88  1  0.48075218  0.88422773  0.49977920  1  0.008347  0  -0.085633  -0.169428  0  3.914028  0
C  C89  1  0.47382927  0.83427710  0.55044469  1  -0.027123  0  -0.005252  0.081796  0  4.008412  0
C  C90  1  0.47915105  0.78428793  0.54970317  1  -0.025996  0  -0.085873  -0.172228  0  3.918138  0
C  C91  1  0.47754925  0.78363207  0.49975713  1  -0.024276  0  -0.005881  0.081594  0  4.009342  0
C  C92  1  0.47761723  0.83433736  0.44983504  1  -0.012234  0  -0.085962  -0.172181  0  3.918957  0
C  C93  1  0.57340636  0.87928705  0.65725010  1  0.082456  0  0.020028  0.148116  0  4.047325  0
C  C94  1  0.58636095  0.87944171  0.60724315  1  -0.033324  0  -0.099675  -0.212465  0  3.969577  0
C  C95  1  0.46601048  0.83420997  0.60358162  1  0.029357  0  -0.004011  0.101131  0  4.00305  0
C  C96  1  0.33639645  0.78880062  0.65145462  1  -0.012697  0  -0.09917  -0.210428  0  3.966023  0
C  C97  1  0.33692562  0.78823514  0.70169700  1  0.110647  0  0.01958  0.146654  0  4.049  0
C  C98  1  0.45303728  0.83348477  0.70568135  1  0.008122  0  -0.018104  -0.155911  0  3.918978  0
C  C99  1  0.39165062  0.98780575  0.39172136  1  0.010432  0  -0.099328  -0.211091  0  3.966346  0
C  C100  1  0.41981142  0.03769974  0.34194307  1  0.00302  0  0.020446  0.148197  0  4.044527  0
C  C101  1  0.55010391  0.03954273  0.29433092  1  0.087033  0  -0.017808  -0.154004  0  3.914928  0
C  C102  1  0.66134280  0.98952519  0.29901376  1  0.061609  0  0.019395  0.145566  0  4.0511  0
C  C103  1  0.64656714  0.93973490  0.34911526  1  0.049284  0  -0.099041  -0.211155  0  3.969136  0
C  C104  1  0.50666250  0.93807193  0.39608226  1  0.021465  0  -0.004378  0.100778  0  4.004244  0
C  C105  1  0.61204233  0.72713897  0.45502940  1  -0.049947  0  -0.101118  -0.216867  0  3.974329  0
C  C106  1  0.61474181  0.67720142  0.45482992  1  0.058543  0  0.025413  0.159701  0  4.017267  0
C  C107  1  0.48905546  0.62769226  0.49982064  1  0.059036  0  -0.017181  -0.165322  0  3.870127  0
C  C108  1  0.35747908  0.63201458  0.54472448  1  0.070549  0  0.025205  0.159259  0  4.015226  0
C  C109  1  0.35096423  0.68220931  0.54441646  1  0.027329  0  -0.100511  -0.214908  0  3.971399  0
C  C110  1  0.47941621  0.73055283  0.49971518  1  0.055109  0  -0.002233  0.109817  0  4.006779  0
Cl  Cl111  1  0.18679382  0.00967834  0.73108629  1  -0.181729  0  0.005774  -0.051787  0  1.549333  0
Cl  Cl112  1  0.71651362  0.90231846  0.93747109  1  -0.181652  0  0.005615  -0.052948  0  1.560459  0
Cl  Cl113  1  0.29822151  0.06269176  0.09634550  1  -0.179925  0  0.005475  -0.052947  0  1.554447  0
Cl  Cl114  1  0.82120877  0.26917704  0.99009878  1  -0.191911  0  0.005349  -0.052327  0  1.549242  0
Cl  Cl115  1  0.78227912  0.42471120  0.67959828  1  -0.177032  0  0.001096  -0.058833  0  1.565929  0
Cl  Cl116  1  0.22757492  0.31988370  0.57547517  1  -0.1772  0  0.000771  -0.059513  0  1.565198  0
Cl  Cl117  1  0.82025490  0.23940236  0.26926041  1  -0.179777  0  0.005572  -0.05208  0  1.557608  0
Cl  Cl118  1  0.28685994  0.34066531  0.06312001  1  -0.18763  0  0.005899  -0.052271  0  1.555353  0
Cl  Cl119  1  0.72844206  0.65903964  0.90356627  1  -0.188935  0  0.005795  -0.052301  0  1.557696  0
Cl  Cl120  1  0.18845527  0.75966420  0.00914537  1  -0.178688  0  0.005606  -0.051959  0  1.553968  0
Cl  Cl121  1  0.21829072  0.60454367  0.31989230  1  -0.179838  0  0.00086  -0.05931  0  1.564973  0
Cl  Cl122  1  0.79268115  0.39571980  0.42455121  1  -0.173129  0  0.001201  -0.058674  0  1.566393  0
Cl  Cl123  1  0.18803734  0.73043453  0.76010509  1  -0.179901  0  0.005541  -0.052279  0  1.552261  0
Cl  Cl124  1  0.71332107  0.93676799  0.65933013  1  -0.188858  0  0.005803  -0.052499  0  1.553914  0
Cl  Cl125  1  0.28725177  0.09817321  0.33919716  1  -0.186152  0  0.00522  -0.053369  0  1.564833  0
Cl  Cl126  1  0.82385239  0.98934963  0.24165139  1  -0.189715  0  0.005765  -0.051606  0  1.54739  0
Cl  Cl127  1  0.77030271  0.68027065  0.39552237  1  -0.177272  0  0.001191  -0.058803  0  1.566044  0
Cl  Cl128  1  0.20656127  0.57549413  0.60407194  1  -0.173651  0  0.001275  -0.058654  0  1.567542  0
O  O129  1  0.73911607  0.47521582  0.45979644  1  -1.253203  0  -0.234758  -0.596642  0  2.439856  0
O  O130  1  0.73385820  0.56525750  0.47518765  1  -1.24863  0  -0.233992  -0.593767  0  2.432984  0
O  O131  1  0.73813044  0.45981286  0.56487800  1  -1.253576  0  -0.234614  -0.595792  0  2.437705  0
O  O132  1  0.26313846  0.52486960  0.43476616  1  -1.24774  0  -0.234245  -0.594372  0  2.432428  0
O  O133  1  0.26609592  0.43486924  0.54010631  1  -1.248708  0  -0.234425  -0.59482  0  2.434547  0
O  O134  1  0.26033524  0.54003752  0.52480397  1  -1.253168  0  -0.23474  -0.596661  0  2.440144  0
O  O135  1  0.68616675  0.80748644  0.79336487  1  -1.251479  0  -0.231138  -0.592722  0  2.41162  0
O  O136  1  0.68166311  0.89829787  0.80770044  1  -1.246396  0  -0.231513  -0.594632  0  2.413357  0
O  O137  1  0.68565075  0.79329979  0.89850857  1  -1.249639  0  -0.231195  -0.59506  0  2.414883  0
O  O138  1  0.21075079  0.85792678  0.76804059  1  -1.247183  0  -0.229789  -0.591734  0  2.417084  0
O  O139  1  0.21368822  0.76756808  0.87392939  1  -1.245357  0  -0.229179  -0.590113  0  2.413521  0
O  O140  1  0.20861987  0.87389172  0.85806912  1  -1.240326  0  -0.229251  -0.589982  0  2.413505  0
O  O141  1  0.80146832  0.12544751  0.23187676  1  -1.235895  0  -0.228384  -0.587262  0  2.413499  0
O  O142  1  0.80257919  0.14183824  0.12543345  1  -1.24547  0  -0.228503  -0.589235  0  2.413786  0
O  O143  1  0.79737163  0.23187923  0.14172532  1  -1.245547  0  -0.229672  -0.589983  0  2.413103  0
O  O144  1  0.32962863  0.10124678  0.20575487  1  -1.236089  0  -0.231913  -0.595203  0  2.414558  0
O  O145  1  0.32412548  0.20616671  0.19199143  1  -1.246853  0  -0.231766  -0.593915  0  2.414257  0
O  O146  1  0.32692674  0.19222607  0.10097078  1  -1.248229  0  -0.231319  -0.593441  0  2.413497  0
