# generated using pymatgen
data_ZnH12C19NO5
_symmetry_space_group_name_H-M   'P 1'
_cell_length_a   11.04742352
_cell_length_b   16.68979079
_cell_length_c   22.76156554
_cell_angle_alpha   90.00000703
_cell_angle_beta   90.00000591
_cell_angle_gamma   89.99995121
_symmetry_Int_Tables_number   1
_chemical_formula_structural   ZnH12C19NO5
_chemical_formula_sum   'Zn8 H96 C152 N8 O40'
_cell_volume   4196.75895576
_cell_formula_units_Z   8
loop_
 _symmetry_equiv_pos_site_id
 _symmetry_equiv_pos_as_xyz
  1  'x, y, z'
loop_
 _atom_site_type_symbol
 _atom_site_label
 _atom_site_symmetry_multiplicity
 _atom_site_fract_x
 _atom_site_fract_y
 _atom_site_fract_z
 _atom_site_occupancy
 _atom_site_pbe_bader_charge
 _atom_site_pbe_bader_spin_density
 _atom_site_pbe_cm5_charge
 _atom_site_pbe_ddec_charge
 _atom_site_pbe_ddec_spin_density
 _atom_site_pbe_ddec_sum_bond_order
 _atom_site_pbe_magmom
Zn  Zn0  1  0.09076235  0.05811100  0.50846152  1  1.286276  0  0.667496  0.815675  0  2.425019  0
Zn  Zn1  1  0.90924073  0.44188849  0.50846331  1  1.286266  0  0.667527  0.815698  0  2.425025  0
Zn  Zn2  1  0.09076364  0.94188425  0.99153948  1  1.286153  0  0.667326  0.815427  0  2.425545  0
Zn  Zn3  1  0.90923436  0.55811588  0.99154037  1  1.286121  0  0.667323  0.815499  0  2.425526  0
Zn  Zn4  1  0.90923769  0.94188218  0.49153875  1  1.286782  0  0.667255  0.815381  0  2.425562  0
Zn  Zn5  1  0.09076384  0.55811786  0.49153783  1  1.286912  0  0.667336  0.815476  0  2.425391  0
Zn  Zn6  1  0.90924002  0.05811311  0.00846210  1  1.2869  0  0.667466  0.815554  0  2.425216  0
Zn  Zn7  1  0.09075844  0.44188568  0.00846253  1  1.286984  0  0.667479  0.81555  0  2.425168  0
H  H8  1  0.32460948  0.31308837  0.56568739  1  0.139062  0  0.111446  0.1203  0  1.011455  0
H  H9  1  0.43969861  0.56533238  0.77780769  1  0.083822  0  0.106084  0.118773  0  0.994574  0
H  H10  1  0.19801052  0.63984925  0.63798383  1  0.11596  0  0.109827  0.133785  0  0.994801  0
H  H11  1  0.15608214  0.73916807  0.75275537  1  0.079297  0  0.106319  0.123406  0  1.006768  0
H  H12  1  0.42257498  0.83343700  0.69947126  1  0.125521  0  0.10394  0.121232  0  1.034329  0
H  H13  1  0.04293635  0.67994568  0.83732644  1  0.080144  0  0.103253  0.10508  0  1.012077  0
H  H14  1  0.53676041  0.12246039  0.48794712  1  0.116399  0  0.114161  0.124557  0  0.996293  0
H  H15  1  0.34445680  0.04161281  0.48219619  1  0.126969  0  0.123477  0.097439  0  0.993814  0
H  H16  1  0.31654295  0.92775336  0.62955648  1  0.049806  0  0.103119  0.108179  0  0.997355  0
H  H17  1  0.32414954  0.50592305  0.86205365  1  0.086002  0  0.102827  0.104943  0  1.007048  0
H  H18  1  0.14318352  0.22432817  0.55665505  1  0.111466  0  0.129722  0.106102  0  0.967492  0
H  H19  1  0.09207626  0.73298405  0.57056975  1  0.131697  0  0.103426  0.110602  0  1.055862  0
H  H20  1  0.67538999  0.18691413  0.56568827  1  0.139262  0  0.111433  0.120309  0  1.011451  0
H  H21  1  0.56029754  0.93467011  0.77780595  1  0.084357  0  0.106111  0.118808  0  0.994588  0
H  H22  1  0.80198922  0.86015142  0.63798473  1  0.116302  0  0.109816  0.133747  0  0.994864  0
H  H23  1  0.84391400  0.76083202  0.75275408  1  0.07932  0  0.106307  0.123365  0  1.006828  0
H  H24  1  0.57742024  0.66656308  0.69946775  1  0.125457  0  0.103961  0.121234  0  1.034332  0
H  H25  1  0.95705709  0.82005383  0.83732647  1  0.080449  0  0.103255  0.105046  0  1.012044  0
H  H26  1  0.46323994  0.37754150  0.48794581  1  0.116395  0  0.114144  0.124526  0  0.996337  0
H  H27  1  0.65554446  0.45839087  0.48219710  1  0.126846  0  0.123464  0.097409  0  0.993852  0
H  H28  1  0.68345588  0.57224790  0.62955472  1  0.04981  0  0.103104  0.108179  0  0.997369  0
H  H29  1  0.67584843  0.99407886  0.86205236  1  0.08586  0  0.102776  0.104899  0  1.007034  0
H  H30  1  0.85681866  0.27567373  0.55665682  1  0.111322  0  0.12971  0.106058  0  0.967464  0
H  H31  1  0.90792710  0.76701780  0.57057241  1  0.13102  0  0.103429  0.110644  0  1.055828  0
H  H32  1  0.32461108  0.68691214  0.93431055  1  0.139186  0  0.11141  0.120255  0  1.011497  0
H  H33  1  0.43970412  0.43466986  0.72219684  1  0.083844  0  0.106145  0.118807  0  0.994636  0
H  H34  1  0.19801072  0.36015014  0.86201718  1  0.116019  0  0.109857  0.133785  0  0.994635  0
H  H35  1  0.15608697  0.26083313  0.74724387  1  0.079389  0  0.106331  0.123361  0  1.006806  0
H  H36  1  0.42257813  0.16655866  0.80052931  1  0.12543  0  0.103948  0.121224  0  1.034241  0
H  H37  1  0.04294833  0.32005679  0.66267192  1  0.08031  0  0.103257  0.105073  0  1.011938  0
H  H38  1  0.53676079  0.87754051  0.01205194  1  0.116336  0  0.114141  0.124538  0  0.996302  0
H  H39  1  0.34445436  0.95838699  0.01780418  1  0.126917  0  0.123444  0.097436  0  0.993911  0
H  H40  1  0.31654443  0.07224176  0.87044365  1  0.050062  0  0.103181  0.10827  0  0.997271  0
H  H41  1  0.32416130  0.49407986  0.63794912  1  0.085859  0  0.102862  0.104901  0  1.006931  0
H  H42  1  0.14318320  0.77567125  0.94334508  1  0.111464  0  0.129731  0.106122  0  0.96745  0
H  H43  1  0.09207659  0.26701180  0.92942905  1  0.130844  0  0.103383  0.110553  0  1.055877  0
H  H44  1  0.67539053  0.81309038  0.93431188  1  0.138991  0  0.111425  0.120294  0  1.011464  0
H  H45  1  0.56029537  0.06533027  0.72219507  1  0.08396  0  0.106128  0.118789  0  0.994665  0
H  H46  1  0.80198880  0.13984942  0.86201631  1  0.116009  0  0.109822  0.133749  0  0.994749  0
H  H47  1  0.84391162  0.23916580  0.74724521  1  0.079388  0  0.106318  0.123364  0  1.006818  0
H  H48  1  0.57741956  0.33343788  0.80053108  1  0.125428  0  0.103949  0.121215  0  1.034326  0
H  H49  1  0.95705115  0.17994333  0.66267370  1  0.080512  0  0.103276  0.105082  0  1.011974  0
H  H50  1  0.46324065  0.62246244  0.01205105  1  0.116488  0  0.114155  0.124534  0  0.996356  0
H  H51  1  0.65554436  0.54161475  0.01780286  1  0.12696  0  0.123476  0.097467  0  0.993894  0
H  H52  1  0.68345600  0.42775420  0.87044456  1  0.04985  0  0.103095  0.108155  0  0.997291  0
H  H53  1  0.67583818  0.00591966  0.63794867  1  0.085826  0  0.102839  0.10489  0  1.006929  0
H  H54  1  0.85681750  0.72433068  0.94334553  1  0.111426  0  0.129728  0.10609  0  0.967487  0
H  H55  1  0.90792475  0.23298418  0.92942820  1  0.131679  0  0.103422  0.110608  0  1.055918  0
H  H56  1  0.67538966  0.68691080  0.43431244  1  0.139031  0  0.111441  0.12032  0  1.011427  0
H  H57  1  0.56029328  0.43466918  0.22219609  1  0.083941  0  0.106135  0.118806  0  0.994615  0
H  H58  1  0.80199223  0.36014932  0.36201380  1  0.115992  0  0.109841  0.133749  0  0.994785  0
H  H59  1  0.84391246  0.26083229  0.24724269  1  0.079412  0  0.106347  0.123368  0  1.00676  0
H  H60  1  0.57742415  0.16656157  0.30052856  1  0.125488  0  0.103956  0.121231  0  1.034279  0
H  H61  1  0.95705011  0.32005768  0.16266987  1  0.080502  0  0.103262  0.10509  0  1.011915  0
H  H62  1  0.46323962  0.87753878  0.51205314  1  0.116373  0  0.114118  0.124492  0  0.996292  0
H  H63  1  0.65554595  0.95838635  0.51780451  1  0.126941  0  0.123452  0.097425  0  0.993917  0
H  H64  1  0.68345889  0.07224461  0.37044203  1  0.049583  0  0.103189  0.108201  0  0.997239  0
H  H65  1  0.67583873  0.49408271  0.13794837  1  0.085794  0  0.102823  0.104888  0  1.006904  0
H  H66  1  0.85681923  0.77566980  0.44334654  1  0.111434  0  0.129733  0.106065  0  0.967475  0
H  H67  1  0.90793012  0.26701511  0.42942437  1  0.130902  0  0.10341  0.110599  0  1.055834  0
H  H68  1  0.32461095  0.81308923  0.43431156  1  0.139163  0  0.111445  0.120288  0  1.011468  0
H  H69  1  0.43970341  0.06533085  0.22219651  1  0.083982  0  0.106128  0.118778  0  0.994656  0
H  H70  1  0.19800991  0.13985074  0.36201553  1  0.116023  0  0.109853  0.133785  0  0.994697  0
H  H71  1  0.15608694  0.23916775  0.24724399  1  0.079382  0  0.106335  0.123381  0  1.006778  0
H  H72  1  0.42257708  0.33344088  0.30052988  1  0.125442  0  0.103983  0.121251  0  1.034265  0
H  H73  1  0.04294928  0.17994354  0.16267072  1  0.080298  0  0.103254  0.105092  0  1.011986  0
H  H74  1  0.53676191  0.62246186  0.51205225  1  0.116454  0  0.114142  0.124523  0  0.996354  0
H  H75  1  0.34445649  0.54161369  0.51780317  1  0.126945  0  0.123467  0.097462  0  0.993911  0
H  H76  1  0.31654416  0.42775606  0.37044511  1  0.05008  0  0.103182  0.108263  0  0.997336  0
H  H77  1  0.32416247  0.00591971  0.13794878  1  0.085829  0  0.102845  0.104896  0  1.006918  0
H  H78  1  0.14318319  0.72432963  0.44334564  1  0.11144  0  0.12975  0.106112  0  0.967523  0
H  H79  1  0.09207475  0.23298556  0.42942829  1  0.131483  0  0.103389  0.110569  0  1.0559  0
H  H80  1  0.67538805  0.31308882  0.06568708  1  0.139066  0  0.111473  0.120331  0  1.011432  0
H  H81  1  0.56029863  0.56533050  0.27780562  1  0.083624  0  0.106102  0.118798  0  0.994593  0
H  H82  1  0.80198931  0.63984843  0.13798221  1  0.115926  0  0.109833  0.133786  0  0.994794  0
H  H83  1  0.84391397  0.73916963  0.25275376  1  0.079328  0  0.106334  0.12341  0  1.00676  0
H  H84  1  0.57742009  0.83343571  0.19946919  1  0.125511  0  0.103972  0.121284  0  1.034203  0
H  H85  1  0.95705623  0.67994657  0.33732615  1  0.080438  0  0.103278  0.105089  0  1.012014  0
H  H86  1  0.46324015  0.12245926  0.98794700  1  0.116409  0  0.114149  0.124527  0  0.996311  0
H  H87  1  0.65554567  0.04161157  0.98219652  1  0.126933  0  0.123451  0.097426  0  0.993919  0
H  H88  1  0.68345651  0.92775501  0.12955617  1  0.049787  0  0.103147  0.108192  0  0.997304  0
H  H89  1  0.67584689  0.50592350  0.36205246  1  0.085854  0  0.102783  0.104859  0  1.007103  0
H  H90  1  0.85681593  0.22433032  0.05665387  1  0.111476  0  0.129725  0.106075  0  0.967435  0
H  H91  1  0.90792707  0.73298377  0.07057121  1  0.131032  0  0.103422  0.11061  0  1.055851  0
H  H92  1  0.32460770  0.18691178  0.06568838  1  0.139204  0  0.111464  0.120322  0  1.011438  0
H  H93  1  0.43970105  0.93466890  0.27780519  1  0.083624  0  0.106086  0.118769  0  0.9946  0
H  H94  1  0.19801124  0.86015034  0.13798352  1  0.116001  0  0.109833  0.133774  0  0.994776  0
H  H95  1  0.15608480  0.76082977  0.25275506  1  0.079273  0  0.106326  0.123407  0  1.006774  0
H  H96  1  0.42257685  0.66656128  0.19947182  1  0.125464  0  0.103963  0.121266  0  1.034222  0
H  H97  1  0.04294436  0.82005224  0.33732788  1  0.080221  0  0.103313  0.105122  0  1.012064  0
H  H98  1  0.53676120  0.37753853  0.98794701  1  0.116387  0  0.11415  0.124546  0  0.996324  0
H  H99  1  0.34445658  0.45838801  0.98219609  1  0.126961  0  0.123478  0.097449  0  0.993811  0
H  H100  1  0.31654404  0.57224616  0.12955703  1  0.049774  0  0.103191  0.108288  0  0.997343  0
H  H101  1  0.32415190  0.99407531  0.36205291  1  0.085745  0  0.102804  0.104894  0  1.007086  0
H  H102  1  0.14318254  0.27567149  0.05665473  1  0.111434  0  0.129728  0.106108  0  0.967471  0
H  H103  1  0.09207438  0.76701499  0.07057119  1  0.131729  0  0.103424  0.11063  0  1.055843  0
C  C104  1  0.33341881  0.25344052  0.54664080  1  -0.028213  0  -0.072794  -0.165565  0  3.922286  0
C  C105  1  0.35267197  0.58989053  0.79137750  1  -0.034099  0  -0.106109  -0.20838  0  4.016064  0
C  C106  1  0.22310593  0.70302379  0.63654281  1  0.02044  0  -0.098435  -0.19665  0  3.97741  0
C  C107  1  0.19272873  0.68817821  0.77672516  1  0.009936  0  -0.10838  -0.220099  0  4.007592  0
C  C108  1  0.34989560  0.81296342  0.67090249  1  -0.034645  0  -0.103469  -0.200697  0  3.999599  0
C  C109  1  0.10556190  0.55370322  0.90431875  1  1.559194  0  0.207952  0.584614  0  4.19321  0
C  C110  1  0.30354644  0.65430837  0.75997017  1  0.415611  0  0.090535  0.274097  0  4.043575  0
C  C111  1  0.12994670  0.65521257  0.82384275  1  -0.078954  0  -0.083388  -0.065109  0  3.9979  0
C  C112  1  0.45155592  0.14647569  0.50455319  1  -0.026552  0  -0.075328  -0.171954  0  3.934322  0
C  C113  1  0.34606800  0.10172801  0.50087857  1  0.461336  0  0.05705  0.10588  0  3.927128  0
C  C114  1  0.29164307  0.86460698  0.63193768  1  0.032041  0  -0.086572  -0.077142  0  3.994165  0
C  C115  1  0.12741833  0.89394292  0.55881968  1  1.558567  0  0.210751  0.58604  0  4.18543  0
C  C116  1  0.31328350  0.73310024  0.67340671  1  0.346659  0  0.080947  0.251835  0  4.049051  0
C  C117  1  0.17586967  0.58916200  0.85469827  1  0.010993  0  -0.034041  -0.073045  0  4.008047  0
C  C118  1  0.19664446  0.83669233  0.59660531  1  -0.063163  0  -0.027739  -0.059142  0  3.995278  0
C  C119  1  0.28856384  0.55739524  0.83815767  1  -0.044331  0  -0.086609  -0.076286  0  4.011785  0
C  C120  1  0.44552732  0.22455516  0.52709426  1  -0.074953  0  0.019527  0.112722  0  3.97685  0
C  C121  1  0.23227218  0.20436684  0.54212265  1  0.528441  0  0.065597  0.112442  0  3.913148  0
C  C122  1  0.16427136  0.75550259  0.59859199  1  -0.066166  0  -0.085126  -0.074833  0  3.973607  0
C  C123  1  0.66658156  0.24656257  0.54664345  1  -0.028412  0  -0.072795  -0.165593  0  3.922239  0
C  C124  1  0.64732146  0.91011016  0.79137620  1  -0.034794  0  -0.106  -0.208205  0  4.015908  0
C  C125  1  0.77689381  0.79697748  0.63654282  1  0.020103  0  -0.09844  -0.196622  0  3.977425  0
C  C126  1  0.80726380  0.81182188  0.77672387  1  0.009897  0  -0.108372  -0.220036  0  4.007572  0
C  C127  1  0.65009962  0.68703725  0.67090161  1  -0.034453  0  -0.103492  -0.200721  0  3.999564  0
C  C128  1  0.89443337  0.94629270  0.90431879  1  1.559045  0  0.207916  0.584605  0  4.193323  0
C  C129  1  0.69644879  0.84569172  0.75996799  1  0.415849  0  0.090566  0.274036  0  4.043661  0
C  C130  1  0.87004584  0.84478753  0.82384321  1  -0.079059  0  -0.083401  -0.065053  0  3.997738  0
C  C131  1  0.54844444  0.35352799  0.50455452  1  -0.026643  0  -0.07517  -0.171768  0  3.934157  0
C  C132  1  0.65393145  0.39827568  0.50088122  1  0.461465  0  0.056998  0.105875  0  3.926984  0
C  C133  1  0.70835667  0.63539308  0.63193812  1  0.03194  0  -0.086531  -0.077053  0  3.994134  0
C  C134  1  0.87258593  0.60605833  0.55881969  1  1.55829  0  0.210921  0.586198  0  4.185352  0
C  C135  1  0.68671263  0.76689984  0.67340540  1  0.346652  0  0.080925  0.251839  0  4.048904  0
C  C136  1  0.82412016  0.91083631  0.85469830  1  0.011314  0  -0.034029  -0.073059  0  4.007939  0
C  C137  1  0.80335708  0.66330772  0.59660532  1  -0.062806  0  -0.027726  -0.059227  0  3.99532  0
C  C138  1  0.71143051  0.94260486  0.83815682  1  -0.044249  0  -0.086702  -0.076406  0  4.011727  0
C  C139  1  0.55447214  0.27544852  0.52709558  1  -0.033938  0  0.019395  0.112486  0  3.976833  0
C  C140  1  0.76772638  0.29563805  0.54212575  1  0.528787  0  0.06565  0.112582  0  3.913102  0
C  C141  1  0.83573019  0.74449807  0.59859333  1  -0.066172  0  -0.085112  -0.074853  0  3.973658  0
C  C142  1  0.33341762  0.74655998  0.95335757  1  -0.02838  0  -0.072735  -0.1655  0  3.922323  0
C  C143  1  0.35268113  0.41011176  0.70862571  1  -0.03474  0  -0.105995  -0.20812  0  4.015789  0
C  C144  1  0.22311164  0.29696899  0.86345908  1  0.020111  0  -0.098416  -0.196505  0  3.97754  0
C  C145  1  0.19273892  0.31182357  0.72327496  1  0.01  0  -0.108363  -0.220005  0  4.007695  0
C  C146  1  0.34989783  0.18702988  0.82909852  1  -0.034713  0  -0.103383  -0.200555  0  3.999436  0
C  C147  1  0.10555922  0.44628723  0.59568268  1  1.55866  0  0.207974  0.584846  0  4.192977  0
C  C148  1  0.30355026  0.34569155  0.74003348  1  0.415347  0  0.090585  0.273999  0  4.043736  0
C  C149  1  0.12995684  0.34478805  0.67615606  1  -0.079218  0  -0.08339  -0.065073  0  3.997412  0
C  C150  1  0.45155460  0.85352534  0.99544651  1  -0.026581  0  -0.075296  -0.171889  0  3.934386  0
C  C151  1  0.34606663  0.89827309  0.99912289  1  0.461378  0  0.057002  0.105758  0  3.9272  0
C  C152  1  0.29164265  0.13539175  0.86805981  1  0.031789  0  -0.086687  -0.077276  0  3.994591  0
C  C153  1  0.12740710  0.10605710  0.94118088  1  1.558347  0  0.210758  0.585858  0  4.185937  0
C  C154  1  0.31328743  0.26689848  0.82659387  1  0.346836  0  0.080857  0.251669  0  4.049082  0
C  C155  1  0.17588877  0.41084099  0.64530010  1  0.011622  0  -0.034029  -0.073083  0  4.007987  0
C  C156  1  0.19665035  0.16329866  0.90339350  1  -0.062902  0  -0.027621  -0.059017  0  3.995071  0
C  C157  1  0.28857204  0.44260409  0.66184422  1  -0.044238  0  -0.086816  -0.076445  0  4.011805  0
C  C158  1  0.44552700  0.77544707  0.97290500  1  -0.07494  0  0.019479  0.112627  0  3.976974  0
C  C159  1  0.23227184  0.79563193  0.95787747  1  0.528445  0  0.065555  0.112433  0  3.913073  0
C  C160  1  0.16427443  0.24449382  0.90140813  1  -0.06556  0  -0.085219  -0.075001  0  3.973707  0
C  C161  1  0.66658308  0.75344254  0.95335846  1  -0.027825  0  -0.072769  -0.165599  0  3.922335  0
C  C162  1  0.64731746  0.08988777  0.70862483  1  -0.034815  0  -0.105974  -0.208109  0  4.01582  0
C  C163  1  0.77688788  0.20302637  0.86345865  1  0.019872  0  -0.098407  -0.196494  0  3.977378  0
C  C164  1  0.80725966  0.18817476  0.72327585  1  0.010019  0  -0.108344  -0.219985  0  4.007618  0
C  C165  1  0.65009625  0.31296487  0.82909898  1  -0.034869  0  -0.103488  -0.200668  0  3.999317  0
C  C166  1  0.89444025  0.05371108  0.59568269  1  1.558704  0  0.208075  0.584937  0  4.192776  0
C  C167  1  0.69644652  0.15430738  0.74003436  1  0.415363  0  0.090602  0.274059  0  4.04368  0
C  C168  1  0.87004174  0.15521087  0.67615651  1  -0.079332  0  -0.083378  -0.065038  0  3.997505  0
C  C169  1  0.54844520  0.64647719  0.99544695  1  -0.026657  0  -0.075347  -0.171938  0  3.93443  0
C  C170  1  0.65393227  0.60172764  0.99912244  1  0.461336  0  0.057006  0.105802  0  3.927053  0
C  C171  1  0.70835596  0.36460421  0.86806159  1  0.032315  0  -0.086559  -0.077096  0  3.994345  0
C  C172  1  0.87259696  0.39393947  0.94118179  1  1.558628  0  0.21083  0.586061  0  4.185617  0
C  C173  1  0.68671027  0.23309807  0.82659563  1  0.346614  0  0.080969  0.251846  0  4.048794  0
C  C174  1  0.82411161  0.08915852  0.64530010  1  0.011633  0  -0.034044  -0.073198  0  4.008087  0
C  C175  1  0.80334736  0.33669671  0.90339484  1  -0.062977  0  -0.027631  -0.058975  0  3.994981  0
C  C176  1  0.71142654  0.05739483  0.66184378  1  -0.044257  0  -0.086829  -0.076448  0  4.011765  0
C  C177  1  0.55447461  0.72455485  0.97290500  1  -0.034415  0  0.019463  0.11259  0  3.976963  0
C  C178  1  0.76772797  0.70436820  0.95787792  1  0.528879  0  0.065677  0.112625  0  3.913262  0
C  C179  1  0.83572691  0.25550275  0.90140947  1  -0.065591  0  -0.085282  -0.075176  0  3.973648  0
C  C180  1  0.66658485  0.74655804  0.45336078  1  -0.028193  0  -0.072814  -0.165701  0  3.922411  0
C  C181  1  0.64731720  0.41011343  0.20862365  1  -0.034785  0  -0.106004  -0.2082  0  4.015876  0
C  C182  1  0.77689683  0.29697238  0.36345526  1  0.020444  0  -0.098453  -0.196515  0  3.977453  0
C  C183  1  0.80725954  0.31182455  0.22327290  1  0.010064  0  -0.108444  -0.220115  0  4.007618  0
C  C184  1  0.65010443  0.18703395  0.32909558  1  -0.034693  0  -0.103408  -0.200644  0  3.999354  0
C  C185  1  0.89444086  0.44628995  0.09568371  1  1.558668  0  0.208017  0.584823  0  4.193083  0
C  C186  1  0.69644907  0.34569140  0.24003185  1  0.415786  0  0.09061  0.274175  0  4.043531  0
C  C187  1  0.87004248  0.34479019  0.17615400  1  -0.079235  0  -0.083433  -0.065157  0  3.997614  0
C  C188  1  0.54844774  0.85352407  0.49544796  1  -0.026576  0  -0.075294  -0.171879  0  3.934359  0
C  C189  1  0.65393294  0.89827296  0.49912302  1  0.461365  0  0.057027  0.105836  0  3.927072  0
C  C190  1  0.70836240  0.13539218  0.36805863  1  0.032295  0  -0.086674  -0.0771  0  3.994359  0
C  C191  1  0.87260343  0.10605685  0.44117794  1  1.558471  0  0.21087  0.586092  0  4.185503  0
C  C192  1  0.68671925  0.26689833  0.32659092  1  0.346655  0  0.080893  0.251782  0  4.048969  0
C  C193  1  0.82411408  0.41084316  0.14529980  1  0.011583  0  -0.033968  -0.072952  0  4.008004  0
C  C194  1  0.80335467  0.16329844  0.40339100  1  -0.062784  0  -0.027608  -0.059068  0  3.995199  0
C  C195  1  0.71142625  0.44260572  0.16184391  1  -0.044258  0  -0.08679  -0.07646  0  4.011832  0
C  C196  1  0.55447453  0.77544580  0.47290732  1  -0.034006  0  0.019474  0.112617  0  3.977005  0
C  C197  1  0.76772786  0.79563173  0.45787981  1  0.528881  0  0.065647  0.112634  0  3.913254  0
C  C198  1  0.83573411  0.24449478  0.40140432  1  -0.065915  0  -0.085221  -0.075067  0  3.973541  0
C  C199  1  0.33342029  0.75344199  0.45335901  1  -0.028433  0  -0.072842  -0.16562  0  3.92229  0
C  C200  1  0.35267948  0.08988721  0.20862494  1  -0.034845  0  -0.105987  -0.208096  0  4.015813  0
C  C201  1  0.22310894  0.20302948  0.36345656  1  0.020418  0  -0.098424  -0.196531  0  3.977482  0
C  C202  1  0.19273896  0.18817668  0.22327376  1  0.010088  0  -0.108361  -0.220035  0  4.007683  0
C  C203  1  0.34989680  0.31296850  0.32909821  1  -0.034646  0  -0.103392  -0.200592  0  3.999354  0
C  C204  1  0.10556305  0.05371306  0.09568235  1  1.55838  0  0.20791  0.5847  0  4.193085  0
C  C205  1  0.30355034  0.15430984  0.24003315  1  0.41532  0  0.090573  0.27399  0  4.043754  0
C  C206  1  0.12995691  0.15521223  0.17615441  1  -0.079225  0  -0.083464  -0.06522  0  3.997553  0
C  C207  1  0.45155650  0.64647597  0.49544707  1  -0.02673  0  -0.07537  -0.171989  0  3.934464  0
C  C208  1  0.34606949  0.60172768  0.49912212  1  0.461382  0  0.057009  0.105759  0  3.927279  0
C  C209  1  0.29164246  0.36460908  0.36806126  1  0.031772  0  -0.086687  -0.077282  0  3.994498  0
C  C210  1  0.12740506  0.39394203  0.44118321  1  1.558533  0  0.21079  0.585874  0  4.185825  0
C  C211  1  0.31328469  0.23310173  0.32659311  1  0.346667  0  0.080845  0.251719  0  4.049015  0
C  C212  1  0.17588984  0.08915806  0.14530021  1  0.011609  0  -0.033986  -0.07288  0  4.007839  0
C  C213  1  0.19665020  0.33670043  0.40339362  1  -0.062928  0  -0.027667  -0.058967  0  3.994968  0
C  C214  1  0.28857315  0.05739490  0.16184389  1  -0.044294  0  -0.086813  -0.076496  0  4.011793  0
C  C215  1  0.44552609  0.72455484  0.47290600  1  -0.074956  0  0.019505  0.112718  0  3.976916  0
C  C216  1  0.23226913  0.70436950  0.45787715  1  0.528777  0  0.065587  0.112494  0  3.912908  0
C  C217  1  0.16427075  0.25550469  0.40140738  1  -0.065773  0  -0.085188  -0.075037  0  3.973559  0
C  C218  1  0.66658061  0.25344098  0.04663962  1  -0.02824  0  -0.072858  -0.165681  0  3.922415  0
C  C219  1  0.64732434  0.58989100  0.29137631  1  -0.034045  0  -0.106005  -0.208183  0  4.016018  0
C  C220  1  0.77689473  0.70302358  0.13654031  1  0.020505  0  -0.098449  -0.196698  0  3.977393  0
C  C221  1  0.80726473  0.68817978  0.27672399  1  0.009836  0  -0.108334  -0.219962  0  4.007572  0
C  C222  1  0.65010492  0.81296329  0.17089910  1  -0.03452  0  -0.103464  -0.200714  0  3.999521  0
C  C223  1  0.89443448  0.55370894  0.40431846  1  1.55914  0  0.208019  0.584599  0  4.193341  0
C  C224  1  0.69644887  0.65430881  0.25996723  1  0.415823  0  0.090531  0.273922  0  4.043677  0
C  C225  1  0.87004591  0.65521471  0.32384289  1  -0.079102  0  -0.083482  -0.065214  0  3.997823  0
C  C226  1  0.54844543  0.14647442  0.00455287  1  -0.02661  0  -0.075254  -0.171781  0  3.934286  0
C  C227  1  0.65393160  0.10172608  0.00087782  1  0.461372  0  0.057025  0.105781  0  3.927155  0
C  C228  1  0.70835829  0.86460741  0.13193869  1  0.031931  0  -0.08664  -0.077208  0  3.994212  0
C  C229  1  0.87258660  0.89394386  0.05882115  1  1.55832  0  0.210724  0.585867  0  4.185456  0
C  C230  1  0.68671170  0.73309948  0.17340464  1  0.346663  0  0.080939  0.25189  0  4.048865  0
C  C231  1  0.82412122  0.58916536  0.35469797  1  0.011342  0  -0.034062  -0.073012  0  4.00782  0
C  C232  1  0.80335783  0.83669391  0.09660501  1  -0.06281  0  -0.027736  -0.059144  0  3.995219  0
C  C233  1  0.71143162  0.55739687  0.33815648  1  -0.044152  0  -0.086684  -0.076343  0  4.01178  0
C  C234  1  0.55447213  0.22455329  0.02709350  1  -0.074965  0  0.019457  0.112598  0  3.976998  0
C  C235  1  0.76772730  0.20436724  0.04212103  1  0.528918  0  0.06565  0.112582  0  3.913158  0
C  C236  1  0.83572923  0.75550235  0.09859301  1  -0.066183  0  -0.085123  -0.074818  0  3.97371  0
C  C237  1  0.33341786  0.24655842  0.04663961  1  -0.028313  0  -0.072854  -0.165615  0  3.922349  0
C  C238  1  0.35267625  0.91010840  0.29137631  1  -0.034021  0  -0.10601  -0.208213  0  4.016031  0
C  C239  1  0.22310763  0.79697399  0.13654249  1  0.020351  0  -0.098413  -0.196524  0  3.977375  0
C  C240  1  0.19273313  0.81181902  0.27672485  1  0.009883  0  -0.10837  -0.220103  0  4.007514  0
C  C241  1  0.34989473  0.68703369  0.17090217  1  -0.03466  0  -0.103436  -0.200676  0  3.999473  0
C  C242  1  0.10556975  0.94628868  0.40431889  1  1.558797  0  0.207963  0.58461  0  4.193239  0
C  C243  1  0.30355080  0.84569059  0.25996854  1  0.415866  0  0.090525  0.274007  0  4.04361  0
C  C244  1  0.12995377  0.84478350  0.32384463  1  -0.079088  0  -0.083455  -0.065123  0  3.997887  0
C  C245  1  0.45155483  0.35352438  0.00455288  1  -0.026502  0  -0.075296  -0.171927  0  3.934359  0
C  C246  1  0.34606686  0.39827212  0.00087870  1  0.461353  0  0.056984  0.105803  0  3.927162  0
C  C247  1  0.29164227  0.63539136  0.13193999  1  0.03205  0  -0.086684  -0.077275  0  3.994358  0
C  C248  1  0.12741666  0.60605490  0.05882111  1  1.558214  0  0.210699  0.585807  0  4.185459  0
C  C249  1  0.31328615  0.76689870  0.17340639  1  0.346696  0  0.080895  0.251754  0  4.049056  0
C  C250  1  0.17587937  0.91083225  0.35469928  1  0.011441  0  -0.034109  -0.073029  0  4.007897  0
C  C251  1  0.19664453  0.66330425  0.09660674  1  -0.062904  0  -0.02769  -0.059045  0  3.995123  0
C  C252  1  0.28856807  0.94260374  0.33815780  1  -0.044045  0  -0.086635  -0.076324  0  4.011702  0
C  C253  1  0.44552633  0.27544491  0.02709350  1  -0.034061  0  0.019517  0.112656  0  3.976959  0
C  C254  1  0.23227117  0.29563276  0.04212102  1  0.528889  0  0.065655  0.112505  0  3.913173  0
C  C255  1  0.16427222  0.74449521  0.09859299  1  -0.065989  0  -0.085191  -0.07503  0  3.973592  0
N  N256  1  0.23848634  0.13036231  0.51903768  1  -1.244714  0  -0.32178  -0.202549  0  3.527917  0
N  N257  1  0.76151583  0.36964197  0.51904210  1  -1.244908  0  -0.32178  -0.202571  0  3.527862  0
N  N258  1  0.23848319  0.86963705  0.98096332  1  -1.244686  0  -0.321748  -0.202412  0  3.527824  0
N  N259  1  0.76151661  0.63036548  0.98096245  1  -1.245083  0  -0.321835  -0.202543  0  3.527951  0
N  N260  1  0.76151822  0.86963506  0.48096390  1  -1.245129  0  -0.3218  -0.202488  0  3.527887  0
N  N261  1  0.23848511  0.63036378  0.48096299  1  -1.244922  0  -0.321719  -0.20238  0  3.527716  0
N  N262  1  0.76151865  0.13036271  0.01903738  1  -1.245139  0  -0.321743  -0.202485  0  3.527916  0
N  N263  1  0.23848433  0.36963668  0.01903782  1  -1.245174  0  -0.321762  -0.202504  0  3.527992  0
O  O264  1  0.15058601  0.49251610  0.92993650  1  -1.178602  0  -0.319728  -0.562531  0  2.34647  0
O  O265  1  0.17294926  0.96327271  0.55128813  1  -1.167979  0  -0.321144  -0.558731  0  2.346391  0
O  O266  1  0.00582459  0.58758324  0.91769788  1  -1.170413  0  -0.321427  -0.54701  0  2.325236  0
O  O267  1  0.02709359  0.86948907  0.53758652  1  -1.172723  0  -0.311426  -0.534244  0  2.338161  0
O  O268  1  0.37080373  0.68219425  0.71335431  1  -1.110284  0  -0.153806  -0.223537  0  2.573657  0
O  O269  1  0.84940537  0.00748406  0.92993474  1  -1.178454  0  -0.319715  -0.562503  0  2.346205  0
O  O270  1  0.82705771  0.53672734  0.55128945  1  -1.167952  0  -0.321277  -0.55885  0  2.346417  0
O  O271  1  0.99416434  0.91241448  0.91769836  1  -1.170683  0  -0.32139  -0.547031  0  2.325567  0
O  O272  1  0.97290975  0.63051277  0.53758522  1  -1.172876  0  -0.311514  -0.534321  0  2.338092  0
O  O273  1  0.62919150  0.81780762  0.71335212  1  -1.110642  0  -0.153837  -0.223567  0  2.573627  0
O  O274  1  0.15060588  0.50749828  0.57006362  1  -1.177723  0  -0.319791  -0.562853  0  2.345211  0
O  O275  1  0.17296528  0.03671350  0.94871419  1  -1.167728  0  -0.321165  -0.558705  0  2.345982  0
O  O276  1  0.00585093  0.41242523  0.58230399  1  -1.17118  0  -0.321391  -0.546963  0  2.326211  0
O  O277  1  0.02710406  0.13049842  0.96240964  1  -1.17316  0  -0.311458  -0.534111  0  2.33916  0
O  O278  1  0.37080850  0.31780383  0.78664846  1  -1.110171  0  -0.153849  -0.22353  0  2.573864  0
O  O279  1  0.84938932  0.99250237  0.57006278  1  -1.177849  0  -0.319834  -0.562865  0  2.345188  0
O  O280  1  0.82703516  0.46328667  0.94871203  1  -1.167733  0  -0.321158  -0.558813  0  2.345704  0
O  O281  1  0.99415216  0.08757007  0.58230268  1  -1.171115  0  -0.321414  -0.546935  0  2.325964  0
O  O282  1  0.97289638  0.36950115  0.96240880  1  -1.17334  0  -0.311459  -0.534132  0  2.339188  0
O  O283  1  0.62918919  0.18219271  0.78664846  1  -1.109761  0  -0.153896  -0.223664  0  2.573774  0
O  O284  1  0.84939411  0.50750044  0.07006508  1  -1.177812  0  -0.319833  -0.562876  0  2.345302  0
O  O285  1  0.82703901  0.03671087  0.44870906  1  -1.167694  0  -0.321086  -0.558767  0  2.345766  0
O  O286  1  0.99414919  0.41242790  0.08230414  1  -1.171169  0  -0.321382  -0.5469  0  2.326214  0
O  O287  1  0.97290373  0.13049332  0.46240408  1  -1.173268  0  -0.311617  -0.534248  0  2.339047  0
O  O288  1  0.62919268  0.31780551  0.28664639  1  -1.110417  0  -0.153824  -0.223607  0  2.573793  0
O  O289  1  0.15060553  0.99250132  0.07006508  1  -1.177973  0  -0.319806  -0.562808  0  2.345345  0
O  O290  1  0.17297220  0.46328681  0.44871608  1  -1.167839  0  -0.321133  -0.558741  0  2.345841  0
O  O291  1  0.00585381  0.08757630  0.08230058  1  -1.170647  0  -0.321297  -0.546875  0  2.326214  0
O  O292  1  0.02710567  0.36950617  0.46240977  1  -1.173265  0  -0.311507  -0.534131  0  2.339202  0
O  O293  1  0.37080764  0.18219753  0.28664638  1  -1.110161  0  -0.153808  -0.223496  0  2.57392  0
O  O294  1  0.84940502  0.49252245  0.42993752  1  -1.178451  0  -0.319735  -0.562562  0  2.346354  0
O  O295  1  0.82705467  0.96327548  0.05128871  1  -1.168003  0  -0.321103  -0.558596  0  2.346329  0
O  O296  1  0.99417084  0.58758531  0.41769540  1  -1.170772  0  -0.321477  -0.547008  0  2.325404  0
O  O297  1  0.97291317  0.86949115  0.03758974  1  -1.172806  0  -0.311452  -0.5342  0  2.338226  0
O  O298  1  0.62919335  0.68219114  0.21335048  1  -1.110407  0  -0.153785  -0.223518  0  2.573689  0
O  O299  1  0.15059533  0.00747882  0.42993572  1  -1.178337  0  -0.319718  -0.562589  0  2.346337  0
O  O300  1  0.17294858  0.53672448  0.05128868  1  -1.168005  0  -0.321075  -0.558532  0  2.346269  0
O  O301  1  0.00583520  0.91241231  0.41769846  1  -1.170712  0  -0.321388  -0.546987  0  2.325439  0
O  O302  1  0.02709008  0.63050880  0.03758839  1  -1.172703  0  -0.311472  -0.53425  0  2.338266  0
O  O303  1  0.37080632  0.81780585  0.21335180  1  -1.110572  0  -0.153831  -0.223533  0  2.573767  0
