# generated using pymatgen
data_AgH7C5NClO6
_symmetry_space_group_name_H-M   'P 1'
_cell_length_a   7.47555845
_cell_length_b   10.56567565
_cell_length_c   11.66976063
_cell_angle_alpha   80.90939166
_cell_angle_beta   88.23945279
_cell_angle_gamma   77.17816778
_symmetry_Int_Tables_number   1
_chemical_formula_structural   AgH7C5NClO6
_chemical_formula_sum   'Ag4 H28 C20 N4 Cl4 O24'
_cell_volume   887.44725562
_cell_formula_units_Z   4
loop_
 _symmetry_equiv_pos_site_id
 _symmetry_equiv_pos_as_xyz
  1  'x, y, z'
loop_
 _atom_site_type_symbol
 _atom_site_label
 _atom_site_symmetry_multiplicity
 _atom_site_fract_x
 _atom_site_fract_y
 _atom_site_fract_z
 _atom_site_occupancy
 _atom_site_hle17_bader_spin_density
 _atom_site_hle17_ddec_charge
 _atom_site_hle17_ddec_spin_density
 _atom_site_hle17_ddec_sum_bond_order
 _atom_site_hle17_magmom
 _atom_site_hse06_10hf_bader_spin_density
 _atom_site_hse06_10hf_ddec_charge
 _atom_site_hse06_10hf_ddec_spin_density
 _atom_site_hse06_10hf_ddec_sum_bond_order
 _atom_site_hse06_10hf_magmom
 _atom_site_hse06_bader_spin_density
 _atom_site_hse06_ddec_charge
 _atom_site_hse06_ddec_spin_density
 _atom_site_hse06_ddec_sum_bond_order
 _atom_site_hse06_magmom
 _atom_site_pbe_bader_spin_density
 _atom_site_pbe_cm5_charge
 _atom_site_pbe_ddec_charge
 _atom_site_pbe_ddec_spin_density
 _atom_site_pbe_ddec_sum_bond_order
 _atom_site_pbe_magmom
Ag  Ag0  1  0.08292521  0.81844259  0.02830855  1  0  0.678578  0  1.156283  0  0  0.557171  0  1.571743  0  0  0.590288  0  1.517222  0  0  0.423758  0.533102  0  1.610483  0
Ag  Ag1  1  0.91707341  0.18155602  0.97169033  1  0  0.678582  0  1.156302  0  0  0.557167  0  1.571753  0  0  0.590285  0  1.517234  0  0  0.423764  0.533104  0  1.610467  0
Ag  Ag2  1  0.49999932  0.50000096  0.00000068  1  0  0.739297  0  1.082566  0  0  0.638258  0  1.474454  0  0  0.665638  0  1.425054  0  0  0.431684  0.6183  0  1.509581  0
Ag  Ag3  1  0.00000015  0.50000080  0.00000045  1  0  0.707937  0  1.189558  0  0  0.607926  0  1.600663  0  0  0.640234  0  1.545054  0  0  0.425325  0.584334  0  1.640139  0
H  H4  1  0.91762908  0.94438609  0.23697821  1  0  0.111997  0  0.980116  0  0  0.1187  0  1.048759  0  0  0.121853  0  1.04533  0  0  0.124075  0.116009  0  1.052166  0
H  H5  1  0.08237323  0.05561352  0.76302044  1  0  0.112001  0  0.980123  0  0  0.118703  0  1.048757  0  0  0.121858  0  1.045325  0  0  0.124071  0.116015  0  1.052169  0
H  H6  1  0.89448044  0.90261888  0.45450734  1  0  0.123843  0  0.949643  0  0  0.133084  0  1.00741  0  0  0.135896  0  1.0071  0  0  0.114127  0.131011  0  1.008021  0
H  H7  1  0.10552157  0.09738172  0.54549118  1  0  0.123827  0  0.949695  0  0  0.133071  0  1.007458  0  0  0.135881  0  1.007149  0  0  0.114124  0.131  0  1.00807  0
H  H8  1  0.73032072  0.72919772  0.54775247  1  0  0.115177  0  0.951165  0  0  0.1211  0  1.017508  0  0  0.124279  0  1.014901  0  0  0.109202  0.118795  0  1.019399  0
H  H9  1  0.26967831  0.27080385  0.45224681  1  0  0.115201  0  0.951164  0  0  0.121128  0  1.017507  0  0  0.124306  0  1.014901  0  0  0.109202  0.118826  0  1.019394  0
H  H10  1  0.58922392  0.60879394  0.41743311  1  0  0.114901  0  0.93498  0  0  0.124722  0  0.99204  0  0  0.127303  0  0.992021  0  0  0.114256  0.122776  0  0.992515  0
H  H11  1  0.41077378  0.39120762  0.58256534  1  0  0.114889  0  0.934994  0  0  0.124746  0  0.992019  0  0  0.127326  0  0.992  0  0  0.114261  0.122796  0  0.992487  0
H  H12  1  0.61682478  0.66619271  0.20201475  1  0  0.11799  0  0.943208  0  0  0.127591  0  1.003641  0  0  0.130801  0  1.000312  0  0  0.131606  0.124933  0  1.006816  0
H  H13  1  0.38317486  0.33380690  0.79798482  1  0  0.117993  0  0.94322  0  0  0.127596  0  1.00365  0  0  0.130806  0  1.000321  0  0  0.131605  0.124937  0  1.006815  0
H  H14  1  0.08178465  0.54724257  0.76513413  1  0  0.105912  0  0.979155  0  0  0.111266  0  1.051614  0  0  0.114878  0  1.047175  0  0  0.119876  0.108206  0  1.055875  0
H  H15  1  0.91821705  0.45275901  0.23486510  1  0  0.105875  0  0.979155  0  0  0.111268  0  1.05158  0  0  0.114879  0  1.047144  0  0  0.11988  0.108208  0  1.055847  0
H  H16  1  0.10722686  0.60832602  0.54893452  1  0  0.118147  0  0.953993  0  0  0.127348  0  1.012562  0  0  0.130196  0  1.012289  0  0  0.111455  0.125305  0  1.013014  0
H  H17  1  0.89277381  0.39167459  0.45106574  1  0  0.118153  0  0.954011  0  0  0.127354  0  1.012577  0  0  0.130202  0  1.012304  0  0  0.11146  0.125309  0  1.013032  0
H  H18  1  0.27590998  0.78445180  0.47079488  1  0  0.113066  0  0.955874  0  0  0.12115  0  1.019716  0  0  0.124402  0  1.017031  0  0  0.107172  0.118794  0  1.021685  0
H  H19  1  0.72409305  0.21554978  0.52920432  1  0  0.113101  0  0.955834  0  0  0.121169  0  1.019702  0  0  0.124424  0  1.017019  0  0  0.107185  0.118811  0  1.021673  0
H  H20  1  0.41704547  0.88977160  0.61431076  1  0  0.109479  0  0.941653  0  0  0.118397  0  1.000513  0  0  0.121123  0  1.000338  0  0  0.110416  0.116202  0  1.001428  0
H  H21  1  0.58295787  0.11022903  0.38569115  1  0  0.109414  0  0.941649  0  0  0.118332  0  1.000524  0  0  0.121057  0  1.000348  0  0  0.110386  0.116141  0  1.001432  0
H  H22  1  0.38375457  0.81387212  0.82839315  1  0  0.125344  0  0.941141  0  0  0.1314  0  1.006387  0  0  0.135151  0  1.002563  0  0  0.129074  0.128588  0  1.009326  0
H  H23  1  0.61624476  0.18612848  0.17160799  1  0  0.125383  0  0.941132  0  0  0.131377  0  1.006446  0  0  0.135126  0  1.002623  0  0  0.129069  0.128569  0  1.009378  0
H  H24  1  0.36878135  0.92431611  0.07948992  1  0  0.417435  0  0.869116  0  0  0.391369  0  0.93457  0  0  0.400278  0  0.921732  0  0  0.293038  0.384926  0  0.943887  0
H  H25  1  0.63121726  0.07568252  0.92051067  1  0  0.417445  0  0.869141  0  0  0.391374  0  0.934574  0  0  0.40028  0  0.921738  0  0  0.293037  0.384924  0  0.943899  0
H  H26  1  0.29614838  0.00304914  0.95994368  1  0  0.40478  0  0.906372  0  0  0.370784  0  0.977313  0  0  0.381401  0  0.962117  0  0  0.282545  0.363227  0  0.988112  0
H  H27  1  0.70385156  0.99694950  0.04005774  1  0  0.404776  0  0.906338  0  0  0.370781  0  0.977309  0  0  0.381396  0  0.962115  0  0  0.282536  0.363225  0  0.988105  0
H  H28  1  0.27924490  0.29775831  0.11227071  1  0  0.417815  0  0.881749  0  0  0.389978  0  0.941492  0  0  0.399211  0  0.928028  0  0  0.290801  0.383288  0  0.951249  0
H  H29  1  0.72075474  0.70224131  0.88772971  1  0  0.417816  0  0.881744  0  0  0.389978  0  0.941493  0  0  0.399211  0  0.928029  0  0  0.290812  0.383292  0  0.951242  0
H  H30  1  0.27562488  0.27402947  0.98169754  1  0  0.410372  0  0.897469  0  0  0.374921  0  0.97027  0  0  0.386206  0  0.953988  0  0  0.283132  0.3669  0  0.981816  0
H  H31  1  0.72437476  0.72597014  0.01830202  1  0  0.41037  0  0.897464  0  0  0.374923  0  0.970266  0  0  0.386205  0  0.953986  0  0  0.283146  0.366899  0  0.981816  0
C  C32  1  0.84497032  0.87331992  0.28300512  1  0  0.021723  0  3.592955  0  0  -0.019398  0  3.852711  0  0  -0.012865  0  3.866714  0  0  0.042378  -0.023799  0  3.84458  0
C  C33  1  0.15503066  0.12667969  0.71699356  1  0  0.021749  0  3.593118  0  0  -0.019349  0  3.852841  0  0  -0.012816  0  3.866842  0  0  0.042419  -0.02375  0  3.844703  0
C  C34  1  0.83136949  0.84755529  0.40244876  1  0  -0.089598  0  3.731295  0  0  -0.101834  0  3.983444  0  0  -0.108724  0  4.004796  0  0  -0.073458  -0.097191  0  3.969482  0
C  C35  1  0.16863046  0.15244334  0.59755095  1  0  -0.089544  0  3.731198  0  0  -0.101787  0  3.983344  0  0  -0.108676  0  4.004697  0  0  -0.073437  -0.09714  0  3.969381  0
C  C36  1  0.73945260  0.75181843  0.45374307  1  0  -0.014322  0  3.682498  0  0  -0.03883  0  3.935968  0  0  -0.034207  0  3.952913  0  0  -0.066101  -0.041768  0  3.924162  0
C  C37  1  0.26054642  0.24818314  0.54625622  1  0  -0.014447  0  3.682408  0  0  -0.038972  0  3.935918  0  0  -0.03435  0  3.952865  0  0  -0.066143  -0.041916  0  3.924118  0
C  C38  1  0.66183796  0.68464768  0.38193960  1  0  -0.07853  0  3.724648  0  0  -0.089859  0  3.977384  0  0  -0.096718  0  3.998918  0  0  -0.070175  -0.085325  0  3.963552  0
C  C39  1  0.33816004  0.31535290  0.61805985  1  0  -0.078503  0  3.724614  0  0  -0.089866  0  3.977354  0  0  -0.096728  0  3.998891  0  0  -0.070205  -0.085329  0  3.963509  0
C  C40  1  0.67635629  0.71366580  0.26254395  1  0  0.031843  0  3.574236  0  0  -0.008561  0  3.830796  0  0  -0.001041  0  3.843532  0  0  0.047166  -0.013608  0  3.823396  0
C  C41  1  0.32364201  0.28633380  0.73745564  1  0  0.031857  0  3.574231  0  0  -0.00855  0  3.830803  0  0  -0.001028  0  3.843537  0  0  0.047195  -0.013592  0  3.823385  0
C  C42  1  0.15507123  0.62108138  0.72547990  1  0  0.024805  0  3.587391  0  0  -0.015737  0  3.845873  0  0  -0.009042  0  3.859208  0  0  0.040572  -0.020091  0  3.838152  0
C  C43  1  0.84492974  0.37891824  0.27452135  1  0  0.024802  0  3.587392  0  0  -0.015781  0  3.84589  0  0  -0.009086  0  3.859226  0  0  0.040537  -0.020121  0  3.83814  0
C  C44  1  0.16996156  0.65729357  0.60693616  1  0  -0.088106  0  3.732115  0  0  -0.100342  0  3.985312  0  0  -0.1068  0  4.006254  0  0  -0.076459  -0.096182  0  3.971735  0
C  C45  1  0.83004013  0.34270802  0.39306393  1  0  -0.088127  0  3.732108  0  0  -0.100355  0  3.985315  0  0  -0.106813  0  4.006261  0  0  -0.076483  -0.096198  0  3.971749  0
C  C46  1  0.26458178  0.75449243  0.56390144  1  0  -0.020355  0  3.686864  0  0  -0.045355  0  3.939923  0  0  -0.040685  0  3.956554  0  0  -0.070873  -0.048416  0  3.928651  0
C  C47  1  0.73542021  0.24550819  0.43610050  1  0  -0.020311  0  3.686732  0  0  -0.04531  0  3.939791  0  0  -0.040646  0  3.956428  0  0  -0.070845  -0.048374  0  3.928523  0
C  C48  1  0.34237884  0.81313555  0.64298396  1  0  -0.081729  0  3.739524  0  0  -0.093148  0  3.993694  0  0  -0.099438  0  4.014267  0  0  -0.07491  -0.089253  0  3.980845  0
C  C49  1  0.65762183  0.18686505  0.35701629  1  0  -0.081731  0  3.73949  0  0  -0.093135  0  3.993658  0  0  -0.099421  0  4.014226  0  0  -0.07492  -0.089239  0  3.980799  0
C  C50  1  0.32635655  0.77410763  0.76106101  1  0  0.022022  0  3.567944  0  0  -0.019123  0  3.828046  0  0  -0.011676  0  3.840122  0  0  0.041106  -0.023641  0  3.820451  0
C  C51  1  0.67364412  0.22589297  0.23893924  1  0  0.022051  0  3.567945  0  0  -0.019065  0  3.828087  0  0  -0.011616  0  3.840161  0  0  0.041134  -0.023593  0  3.820498  0
N  N52  1  0.76753793  0.80660932  0.21572674  1  0  0.272262  0  3.660449  0  0  0.319519  0  3.91803  0  0  0.317571  0  3.940207  0  0  -0.123441  0.320118  0  3.902591  0
N  N53  1  0.23246202  0.19338930  0.78427211  1  0  0.272256  0  3.660525  0  0  0.319501  0  3.918114  0  0  0.317554  0  3.940292  0  0  -0.12345  0.320094  0  3.902689  0
N  N54  1  0.23398292  0.67879839  0.80007421  1  0  0.270449  0  3.684122  0  0  0.323423  0  3.935585  0  0  0.322192  0  3.958713  0  0  -0.127222  0.323466  0  3.919353  0
N  N55  1  0.76601672  0.32120122  0.19992536  1  0  0.270439  0  3.684057  0  0  0.323423  0  3.935514  0  0  0.322191  0  3.958643  0  0  -0.127197  0.323469  0  3.919284  0
Cl  Cl56  1  0.76822827  0.92454862  0.74695569  1  0  1.401534  0  6.146012  0  0  1.335129  0  6.704992  0  0  1.387506  0  6.683182  0  0  0.737513  1.299124  0  6.718191  0
Cl  Cl57  1  0.23177270  0.07545100  0.25304471  1  0  1.401584  0  6.145884  0  0  1.335194  0  6.704842  0  0  1.387585  0  6.683015  0  0  0.737546  1.299205  0  6.718031  0
Cl  Cl58  1  0.24387145  0.58882363  0.26211609  1  0  1.391656  0  6.163009  0  0  1.335201  0  6.711303  0  0  1.387611  0  6.68984  0  0  0.726608  1.299102  0  6.72416  0
Cl  Cl59  1  0.75612953  0.41117599  0.73788430  1  0  1.391618  0  6.16305  0  0  1.335151  0  6.71135  0  0  1.387558  0  6.6899  0  0  0.726593  1.299048  0  6.724219  0
O  O60  1  0.78132038  0.83390311  0.09930366  1  0  -0.584269  0  1.915192  0  0  -0.506067  0  2.150795  0  0  -0.533301  0  2.146168  0  0  -0.238526  -0.486324  0  2.153532  0
O  O61  1  0.21867957  0.16609551  0.90069605  1  0  -0.584281  0  1.91514  0  0  -0.506067  0  2.15073  0  0  -0.533315  0  2.146116  0  0  -0.238541  -0.486324  0  2.153468  0
O  O62  1  0.22234516  0.64034049  0.91486505  1  0  -0.614441  0  1.962814  0  0  -0.547585  0  2.26393  0  0  -0.577016  0  2.254677  0  0  -0.259544  -0.526008  0  2.269716  0
O  O63  1  0.77765551  0.35966011  0.08513435  1  0  -0.614437  0  1.962775  0  0  -0.547571  0  2.263871  0  0  -0.577002  0  2.254619  0  0  -0.259556  -0.525996  0  2.269655  0
O  O64  1  0.33301569  0.91146587  0.00241835  1  0  -0.811564  0  1.926826  0  0  -0.744667  0  2.140581  0  0  -0.769322  0  2.1078  0  0  -0.58853  -0.726877  0  2.163618  0
O  O65  1  0.66698261  0.08853374  0.99758210  1  0  -0.811578  0  1.92682  0  0  -0.744662  0  2.140567  0  0  -0.769318  0  2.107793  0  0  -0.588525  -0.72687  0  2.163605  0
O  O66  1  0.28062166  0.34234432  0.03117565  1  0  -0.841138  0  1.982808  0  0  -0.772651  0  2.214247  0  0  -0.798387  0  2.176862  0  0  -0.582004  -0.753697  0  2.240374  0
O  O67  1  0.71937664  0.65765529  0.96882480  1  0  -0.841137  0  1.982804  0  0  -0.772653  0  2.214249  0  0  -0.798389  0  2.176863  0  0  -0.582038  -0.753699  0  2.240373  0
O  O68  1  0.91518160  0.92266978  0.82850076  1  0  -0.585966  0  1.955822  0  0  -0.555706  0  2.245945  0  0  -0.572365  0  2.227169  0  0  -0.319624  -0.543816  0  2.258633  0
O  O69  1  0.08481671  0.07732983  0.17149883  1  0  -0.586033  0  1.95584  0  0  -0.555754  0  2.245932  0  0  -0.572416  0  2.227149  0  0  -0.319662  -0.543871  0  2.258615  0
O  O70  1  0.59481061  0.99983263  0.78653133  1  0  -0.545318  0  1.872662  0  0  -0.508564  0  2.107891  0  0  -0.525036  0  2.09668  0  0  -0.30567  -0.496995  0  2.115309  0
O  O71  1  0.40518934  0.00016600  0.21346924  1  0  -0.545315  0  1.872581  0  0  -0.508584  0  2.107829  0  0  -0.525066  0  2.096615  0  0  -0.305688  -0.497027  0  2.115251  0
O  O72  1  0.81170662  0.98288355  0.63153124  1  0  -0.511117  0  1.852147  0  0  -0.475691  0  2.085484  0  0  -0.49369  0  2.075773  0  0  -0.290606  -0.462821  0  2.091598  0
O  O73  1  0.18829168  0.01711607  0.36847006  1  0  -0.511099  0  1.852077  0  0  -0.475691  0  2.085421  0  0  -0.493685  0  2.075698  0  0  -0.290608  -0.462828  0  2.091534  0
O  O74  1  0.75068129  0.78888775  0.74512322  1  0  -0.5537  0  1.883845  0  0  -0.51393  0  2.122834  0  0  -0.531832  0  2.11127  0  0  -0.298811  -0.501367  0  2.130544  0
O  O75  1  0.24931938  0.21111286  0.25487703  1  0  -0.553686  0  1.883845  0  0  -0.513912  0  2.122819  0  0  -0.531818  0  2.111252  0  0  -0.298788  -0.501355  0  2.130524  0
O  O76  1  0.41855473  0.51973726  0.21805430  1  0  -0.564819  0  1.918359  0  0  -0.5332  0  2.185235  0  0  -0.550906  0  2.171241  0  0  -0.315021  -0.520635  0  2.194634  0
O  O77  1  0.58144861  0.48026336  0.78194676  1  0  -0.564778  0  1.918307  0  0  -0.533179  0  2.185206  0  0  -0.550886  0  2.171213  0  0  -0.315015  -0.520619  0  2.194603  0
O  O78  1  0.20456242  0.51900396  0.37427683  1  0  -0.514945  0  1.840435  0  0  -0.479364  0  2.06929  0  0  -0.496778  0  2.059049  0  0  -0.296756  -0.466973  0  2.075855  0
O  O79  1  0.79543825  0.48099665  0.62572342  1  0  -0.514929  0  1.840411  0  0  -0.479352  0  2.069275  0  0  -0.496771  0  2.059039  0  0  -0.296757  -0.466965  0  2.075838  0
O  O80  1  0.25332318  0.72336736  0.27084469  1  0  -0.539803  0  1.877288  0  0  -0.515405  0  2.134135  0  0  -0.533028  0  2.122866  0  0  -0.303707  -0.502954  0  2.141484  0
O  O81  1  0.74667615  0.27663324  0.72915560  1  0  -0.539805  0  1.877359  0  0  -0.515371  0  2.13416  0  0  -0.532975  0  2.122858  0  0  -0.303696  -0.502925  0  2.141506  0
O  O82  1  0.09554611  0.59309436  0.17929359  1  0  -0.605031  0  1.982917  0  0  -0.570329  0  2.273856  0  0  -0.588223  0  2.255191  0  0  -0.326918  -0.557447  0  2.28635  0
O  O83  1  0.90445486  0.40690526  0.82070681  1  0  -0.605056  0  1.982952  0  0  -0.570359  0  2.273921  0  0  -0.588253  0  2.255257  0  0  -0.326938  -0.557456  0  2.286357  0
