# generated using pymatgen
data_ZnH4C2(N2Cl)2
_symmetry_space_group_name_H-M   'P 1'
_cell_length_a   7.37457597
_cell_length_b   7.40603079
_cell_length_c   13.48633596
_cell_angle_alpha   89.99969739
_cell_angle_beta   90.00030757
_cell_angle_gamma   90.00007057
_symmetry_Int_Tables_number   1
_chemical_formula_structural   ZnH4C2(N2Cl)2
_chemical_formula_sum   'Zn4 H16 C8 N16 Cl8'
_cell_volume   736.57426500
_cell_formula_units_Z   4
loop_
 _symmetry_equiv_pos_site_id
 _symmetry_equiv_pos_as_xyz
  1  'x, y, z'
loop_
 _atom_site_type_symbol
 _atom_site_label
 _atom_site_symmetry_multiplicity
 _atom_site_fract_x
 _atom_site_fract_y
 _atom_site_fract_z
 _atom_site_occupancy
 _atom_site_hle17_bader_spin_density
 _atom_site_hle17_ddec_charge
 _atom_site_hle17_ddec_spin_density
 _atom_site_hle17_ddec_sum_bond_order
 _atom_site_hle17_magmom
 _atom_site_hse06_10hf_bader_spin_density
 _atom_site_hse06_10hf_ddec_charge
 _atom_site_hse06_10hf_ddec_spin_density
 _atom_site_hse06_10hf_ddec_sum_bond_order
 _atom_site_hse06_10hf_magmom
 _atom_site_hse06_bader_spin_density
 _atom_site_hse06_ddec_charge
 _atom_site_hse06_ddec_spin_density
 _atom_site_hse06_ddec_sum_bond_order
 _atom_site_hse06_magmom
 _atom_site_pbe_bader_spin_density
 _atom_site_pbe_cm5_charge
 _atom_site_pbe_ddec_charge
 _atom_site_pbe_ddec_spin_density
 _atom_site_pbe_ddec_sum_bond_order
 _atom_site_pbe_magmom
Zn  Zn0  1  0.23611102  0.72365836  0.42475587  1  0  0.952368  0  2.109072  0  0  0.784243  0  2.614324  0  0  0.823005  0  2.563231  0  0  0.585129  0.757528  0  2.649271  0
Zn  Zn1  1  0.76388417  0.22366140  0.57524599  1  0  0.952442  0  2.109045  0  0  0.784297  0  2.614315  0  0  0.823062  0  2.563218  0  0  0.585144  0.757578  0  2.649263  0
Zn  Zn2  1  0.76388348  0.72365900  0.92475531  1  0  0.952403  0  2.109005  0  0  0.784267  0  2.614242  0  0  0.823031  0  2.563144  0  0  0.585128  0.75755  0  2.649191  0
Zn  Zn3  1  0.23611849  0.22365940  0.07524507  1  0  0.952379  0  2.109014  0  0  0.784254  0  2.614233  0  0  0.82302  0  2.563138  0  0  0.585121  0.757538  0  2.649181  0
H  H4  1  0.49472382  0.60782994  0.70795788  1  0  0.34651  0  0.879546  0  0  0.326679  0  0.945487  0  0  0.333599  0  0.940203  0  0  0.304348  0.321797  0  0.949259  0
H  H5  1  0.50527394  0.10782591  0.29204136  1  0  0.346493  0  0.879519  0  0  0.32666  0  0.945468  0  0  0.333582  0  0.940181  0  0  0.304335  0.321777  0  0.94925  0
H  H6  1  0.50527926  0.60782963  0.20795775  1  0  0.34652  0  0.87954  0  0  0.326701  0  0.945444  0  0  0.333622  0  0.940159  0  0  0.304358  0.321816  0  0.94923  0
H  H7  1  0.49472392  0.10782487  0.79204298  1  0  0.346526  0  0.879505  0  0  0.326694  0  0.945438  0  0  0.333617  0  0.940147  0  0  0.304352  0.321808  0  0.949221  0
H  H8  1  0.48036441  0.63265356  0.57951152  1  0  0.338159  0  0.925974  0  0  0.31649  0  0.997801  0  0  0.323963  0  0.991778  0  0  0.284161  0.311187  0  1.00213  0
H  H9  1  0.51963338  0.13264832  0.42048913  1  0  0.33818  0  0.925938  0  0  0.316501  0  0.99778  0  0  0.323976  0  0.991762  0  0  0.284142  0.311196  0  1.002115  0
H  H10  1  0.51963608  0.63265057  0.07951143  1  0  0.338129  0  0.926007  0  0  0.316457  0  0.997844  0  0  0.32393  0  0.991823  0  0  0.284147  0.311154  0  1.002175  0
H  H11  1  0.48036713  0.13264726  0.92049145  1  0  0.338143  0  0.925951  0  0  0.316462  0  0.997794  0  0  0.323938  0  0.991776  0  0  0.284123  0.311158  0  1.002129  0
H  H12  1  0.28573205  0.75625567  0.80874529  1  0  0.338447  0  0.920806  0  0  0.322109  0  0.981876  0  0  0.32967  0  0.976028  0  0  0.283895  0.31678  0  0.986011  0
H  H13  1  0.71427132  0.25625285  0.19125499  1  0  0.338416  0  0.920832  0  0  0.322081  0  0.981898  0  0  0.329641  0  0.976051  0  0  0.283888  0.316754  0  0.986035  0
H  H14  1  0.71426949  0.75625697  0.30874429  1  0  0.338424  0  0.920714  0  0  0.322089  0  0.981786  0  0  0.329649  0  0.975938  0  0  0.283893  0.316761  0  0.985919  0
H  H15  1  0.28573116  0.25625290  0.69125600  1  0  0.338498  0  0.920754  0  0  0.322165  0  0.981814  0  0  0.329725  0  0.975966  0  0  0.283923  0.316834  0  0.985948  0
H  H16  1  0.08616377  0.84784735  0.75845619  1  0  0.340645  0  0.919707  0  0  0.319603  0  0.98961  0  0  0.327101  0  0.983829  0  0  0.283778  0.314289  0  0.993772  0
H  H17  1  0.91383699  0.34784296  0.24154383  1  0  0.34065  0  0.919691  0  0  0.319611  0  0.989589  0  0  0.327108  0  0.983812  0  0  0.283791  0.314296  0  0.993754  0
H  H18  1  0.91383738  0.84784890  0.25845651  1  0  0.340631  0  0.919713  0  0  0.31959  0  0.989618  0  0  0.327088  0  0.983836  0  0  0.283773  0.314276  0  0.993782  0
H  H19  1  0.08616474  0.34784546  0.74154276  1  0  0.340649  0  0.919727  0  0  0.319609  0  0.989631  0  0  0.327106  0  0.983851  0  0  0.28378  0.314293  0  0.993796  0
C  C20  1  0.27192712  0.74506010  0.65800679  1  0  0.779013  0  3.814771  0  0  0.7142  0  4.101926  0  0  0.746275  0  4.102557  0  0  0.370394  0.692536  0  4.10086  0
C  C21  1  0.72806945  0.24505856  0.34199278  1  0  0.779132  0  3.814631  0  0  0.71421  0  4.101915  0  0  0.746285  0  4.102545  0  0  0.370397  0.692515  0  4.1009  0
C  C22  1  0.72807428  0.74506141  0.15800583  1  0  0.778892  0  3.814863  0  0  0.714051  0  4.102055  0  0  0.746123  0  4.102693  0  0  0.370361  0.692386  0  4.100991  0
C  C23  1  0.27192907  0.24505725  0.84199375  1  0  0.778952  0  3.814814  0  0  0.714162  0  4.101934  0  0  0.746236  0  4.102566  0  0  0.370347  0.692489  0  4.100879  0
C  C24  1  0.05170808  0.91345957  0.58110172  1  0  0.56437  0  3.931798  0  0  0.517999  0  4.208517  0  0  0.544683  0  4.219583  0  0  0.320711  0.499735  0  4.200994  0
C  C25  1  0.94829141  0.41345218  0.41889811  1  0  0.564414  0  3.931846  0  0  0.518002  0  4.20857  0  0  0.544684  0  4.21964  0  0  0.32071  0.499736  0  4.201045  0
C  C26  1  0.94829955  0.91345576  0.08109992  1  0  0.564273  0  3.932014  0  0  0.517861  0  4.208756  0  0  0.544541  0  4.219827  0  0  0.320665  0.499598  0  4.201234  0
C  C27  1  0.05170265  0.41345734  0.91889917  1  0  0.564351  0  3.931878  0  0  0.517963  0  4.208613  0  0  0.544644  0  4.219684  0  0  0.320712  0.499698  0  4.201093  0
N  N28  1  0.42138373  0.64649192  0.64777235  1  0  -0.689954  0  3.099788  0  0  -0.648651  0  3.331135  0  0  -0.670058  0  3.32649  0  0  -0.558736  -0.634078  0  3.334252  0
N  N29  1  0.57861814  0.14648605  0.35222751  1  0  -0.689985  0  3.099674  0  0  -0.64864  0  3.331058  0  0  -0.670053  0  3.326414  0  0  -0.558693  -0.634056  0  3.334193  0
N  N30  1  0.57861880  0.64648900  0.14777169  1  0  -0.68991  0  3.099803  0  0  -0.64861  0  3.331178  0  0  -0.670017  0  3.326537  0  0  -0.558746  -0.634035  0  3.334297  0
N  N31  1  0.42138036  0.14648897  0.85222891  1  0  -0.689917  0  3.099738  0  0  -0.6486  0  3.331076  0  0  -0.670013  0  3.32643  0  0  -0.55867  -0.634026  0  3.3342  0
N  N32  1  0.21153225  0.79119096  0.74741046  1  0  -0.696409  0  3.093013  0  0  -0.652982  0  3.317461  0  0  -0.675371  0  3.313596  0  0  -0.562664  -0.63775  0  3.320038  0
N  N33  1  0.78846980  0.29118630  0.25258898  1  0  -0.696401  0  3.092886  0  0  -0.652961  0  3.31739  0  0  -0.675351  0  3.313528  0  0  -0.562681  -0.637721  0  3.319987  0
N  N34  1  0.78846873  0.79118965  0.24740968  1  0  -0.696317  0  3.092908  0  0  -0.652884  0  3.317365  0  0  -0.675271  0  3.313503  0  0  -0.562634  -0.637647  0  3.319943  0
N  N35  1  0.21153197  0.29118626  0.75258903  1  0  -0.696392  0  3.092919  0  0  -0.652997  0  3.317381  0  0  -0.675385  0  3.313518  0  0  -0.562647  -0.637757  0  3.319961  0
N  N36  1  0.18255617  0.79684932  0.57354184  1  0  -0.599009  0  3.257181  0  0  -0.51198  0  3.533807  0  0  -0.540589  0  3.53446  0  0  -0.353987  -0.492382  0  3.532866  0
N  N37  1  0.81744317  0.29684304  0.42645759  1  0  -0.599105  0  3.257199  0  0  -0.511964  0  3.533772  0  0  -0.540572  0  3.534429  0  0  -0.353961  -0.492348  0  3.532833  0
N  N38  1  0.81744853  0.79684805  0.07354039  1  0  -0.599  0  3.25707  0  0  -0.511914  0  3.533645  0  0  -0.54052  0  3.534298  0  0  -0.353979  -0.492312  0  3.532701  0
N  N39  1  0.18255489  0.29684836  0.92645903  1  0  -0.599042  0  3.257036  0  0  -0.512012  0  3.533644  0  0  -0.540618  0  3.534297  0  0  -0.354017  -0.492408  0  3.532706  0
N  N40  1  0.93348298  0.01909440  0.58245309  1  0  -0.568592  0  2.937878  0  0  -0.509285  0  3.244684  0  0  -0.531683  0  3.243561  0  0  -0.381751  -0.49432  0  3.245649  0
N  N41  1  0.06651602  0.51908717  0.41754715  1  0  -0.56863  0  2.93787  0  0  -0.509314  0  3.244686  0  0  -0.531713  0  3.243566  0  0  -0.38178  -0.49435  0  3.245653  0
N  N42  1  0.06652085  0.01908274  0.08245167  1  0  -0.568464  0  2.93811  0  0  -0.509139  0  3.244911  0  0  -0.531537  0  3.243793  0  0  -0.381691  -0.494176  0  3.245878  0
N  N43  1  0.93347815  0.51908937  0.91754783  1  0  -0.568568  0  2.938049  0  0  -0.509256  0  3.244861  0  0  -0.531654  0  3.243739  0  0  -0.381748  -0.494293  0  3.24583  0
Cl  Cl44  1  0.52508753  0.63055608  0.41485159  1  0  -0.548166  0  1.021205  0  0  -0.486583  0  1.296521  0  0  -0.502116  0  1.272829  0  0  -0.270642  -0.475374  0  1.312628  0
Cl  Cl45  1  0.47491026  0.13055597  0.58514684  1  0  -0.548184  0  1.021222  0  0  -0.486604  0  1.296562  0  0  -0.502138  0  1.272871  0  0  -0.270645  -0.4754  0  1.312677  0
Cl  Cl46  1  0.47490676  0.63055367  0.91485315  1  0  -0.548177  0  1.021224  0  0  -0.486583  0  1.296551  0  0  -0.502113  0  1.272854  0  0  -0.270628  -0.475372  0  1.312653  0
Cl  Cl47  1  0.52509238  0.13054488  0.08514899  1  0  -0.548177  0  1.021255  0  0  -0.48659  0  1.296597  0  0  -0.50212  0  1.272896  0  0  -0.270621  -0.475371  0  1.312692  0
Cl  Cl48  1  0.16565242  0.96209282  0.33197707  1  0  -0.55738  0  0.947202  0  0  -0.491861  0  1.214224  0  0  -0.508499  0  1.192179  0  0  -0.304643  -0.479967  0  1.229311  0
Cl  Cl49  1  0.83434577  0.46209236  0.66802336  1  0  -0.557414  0  0.947224  0  0  -0.491875  0  1.214231  0  0  -0.508503  0  1.192171  0  0  -0.304653  -0.479983  0  1.22932  0
Cl  Cl50  1  0.83433874  0.96208545  0.83197005  1  0  -0.55741  0  0.947183  0  0  -0.491857  0  1.214159  0  0  -0.508506  0  1.192136  0  0  -0.304645  -0.479963  0  1.229247  0
Cl  Cl51  1  0.16565673  0.46208893  0.16802519  1  0  -0.557405  0  0.947181  0  0  -0.491868  0  1.214169  0  0  -0.5085  0  1.192114  0  0  -0.304644  -0.479972  0  1.229259  0
