# generated using pymatgen
data_CuH10(C2N)3
_symmetry_space_group_name_H-M   'P 1'
_cell_length_a   12.26675845
_cell_length_b   12.26439220
_cell_length_c   12.31320000
_cell_angle_alpha   106.23311151
_cell_angle_beta   106.22989362
_cell_angle_gamma   106.12157922
_symmetry_Int_Tables_number   1
_chemical_formula_structural   CuH10(C2N)3
_chemical_formula_sum   'Cu6 H60 C36 N18'
_cell_volume   1575.39374284
_cell_formula_units_Z   6
loop_
 _symmetry_equiv_pos_site_id
 _symmetry_equiv_pos_as_xyz
  1  'x, y, z'
loop_
 _atom_site_type_symbol
 _atom_site_label
 _atom_site_symmetry_multiplicity
 _atom_site_fract_x
 _atom_site_fract_y
 _atom_site_fract_z
 _atom_site_occupancy
 _atom_site_pbe_bader_charge
 _atom_site_pbe_bader_spin_density
 _atom_site_pbe_cm5_charge
 _atom_site_pbe_ddec_charge
 _atom_site_pbe_ddec_spin_density
 _atom_site_pbe_ddec_sum_bond_order
 _atom_site_pbe_magmom
Cu  Cu0  1  0.02245123  0.39963140  0.88742035  1  0.637316  0  0.539738  0.28693  0  2.444072  0
Cu  Cu1  1  0.88772983  0.02332871  0.40015346  1  0.636621  0  0.538486  0.285083  0  2.441705  0
Cu  Cu2  1  0.39968174  0.88784506  0.02256576  1  0.635405  0  0.538994  0.286876  0  2.44219  0
Cu  Cu3  1  0.97754846  0.60036765  0.11257962  1  0.63732  0  0.539736  0.286954  0  2.44404  0
Cu  Cu4  1  0.11227057  0.97667219  0.59984641  1  0.636607  0  0.538498  0.285094  0  2.441704  0
Cu  Cu5  1  0.60031880  0.11215399  0.97743445  1  0.635389  0  0.539014  0.286924  0  2.442186  0
H  H6  1  0.31618037  0.90899389  0.27348808  1  0.056609  0  0.097232  0.100312  0  0.975974  0
H  H7  1  0.27346147  0.31603947  0.90887759  1  0.056245  0  0.097483  0.100622  0  0.976034  0
H  H8  1  0.90899531  0.27379335  0.31591918  1  0.053806  0  0.097414  0.100317  0  0.97579  0
H  H9  1  0.68382052  0.09100608  0.72651168  1  0.056597  0  0.097236  0.100313  0  0.975988  0
H  H10  1  0.72653808  0.68396143  0.09112367  1  0.056219  0  0.0975  0.100643  0  0.975987  0
H  H11  1  0.09100509  0.72620754  0.68408151  1  0.053812  0  0.097423  0.100339  0  0.975777  0
H  H12  1  0.15574457  0.85581158  0.23725610  1  0.06726  0  0.097852  0.101942  0  1.023368  0
H  H13  1  0.23757710  0.15562997  0.85590955  1  0.066438  0  0.098275  0.10299  0  1.023121  0
H  H14  1  0.85584803  0.23772784  0.15600927  1  0.070345  0  0.098146  0.102676  0  1.023594  0
H  H15  1  0.84425633  0.14418839  0.76274447  1  0.067254  0  0.097874  0.101971  0  1.023314  0
H  H16  1  0.76242330  0.84437092  0.14408951  1  0.066435  0  0.098291  0.103038  0  1.023125  0
H  H17  1  0.14415202  0.76227213  0.84399106  1  0.070343  0  0.09814  0.102661  0  1.02357  0
H  H18  1  0.23776351  0.06552327  0.23023643  1  0.032184  0  0.088195  0.118702  0  0.994195  0
H  H19  1  0.23042915  0.23773153  0.06475011  1  0.025611  0  0.088461  0.11901  0  0.993819  0
H  H20  1  0.06541759  0.23042876  0.23786327  1  0.032406  0  0.088244  0.118679  0  0.994183  0
H  H21  1  0.76223738  0.93447670  0.76976414  1  0.032181  0  0.088202  0.118718  0  0.99418  0
H  H22  1  0.76957054  0.76226753  0.93524986  1  0.025582  0  0.088475  0.119027  0  0.993849  0
H  H23  1  0.93458161  0.76957121  0.76213602  1  0.032403  0  0.088241  0.118673  0  0.99419  0
H  H24  1  0.13021408  0.95508241  0.08275410  1  0.040825  0  0.083866  0.108216  0  1.029535  0
H  H25  1  0.08250358  0.13012415  0.95483920  1  0.040111  0  0.083886  0.108489  0  1.030082  0
H  H26  1  0.95508460  0.08253329  0.13043510  1  0.020358  0  0.084074  0.108923  0  1.029003  0
H  H27  1  0.86978596  0.04491757  0.91724704  1  0.04081  0  0.083863  0.108205  0  1.029566  0
H  H28  1  0.91749718  0.86987766  0.04515940  1  0.040114  0  0.083856  0.1084  0  1.030051  0
H  H29  1  0.04491545  0.91746668  0.86956442  1  0.020362  0  0.084073  0.108924  0  1.029007  0
H  H30  1  0.29040804  0.00435607  0.11506412  1  0.039012  0  0.076013  0.095373  0  1.064912  0
H  H31  1  0.11473144  0.29039372  0.00407175  1  0.038332  0  0.076381  0.096304  0  1.06433  0
H  H32  1  0.00434869  0.11469565  0.29008048  1  0.036435  0  0.076377  0.096215  0  1.063984  0
H  H33  1  0.70959201  0.99564391  0.88493702  1  0.039006  0  0.075999  0.095358  0  1.064931  0
H  H34  1  0.88526740  0.70960533  0.99592718  1  0.038316  0  0.076368  0.096286  0  1.064376  0
H  H35  1  0.99565100  0.88530341  0.70991868  1  0.036468  0  0.076368  0.096191  0  1.063999  0
H  H36  1  0.27918748  0.63101570  0.80480192  1  0.017058  0  0.097086  0.099558  0  0.97701  0
H  H37  1  0.80428444  0.27931944  0.63067397  1  0.016353  0  0.096785  0.09924  0  0.976879  0
H  H38  1  0.63091597  0.80448419  0.27921051  1  0.016856  0  0.097103  0.099639  0  0.975805  0
H  H39  1  0.72081292  0.36898520  0.19519795  1  0.017021  0  0.097087  0.099557  0  0.977009  0
H  H40  1  0.19571561  0.72068053  0.36932636  1  0.016317  0  0.096796  0.099257  0  0.976863  0
H  H41  1  0.36908492  0.19551579  0.72079005  1  0.016874  0  0.097086  0.099596  0  0.975878  0
H  H42  1  0.21935167  0.48539032  0.81295204  1  0.045125  0  0.094579  0.097262  0  1.014196  0
H  H43  1  0.81287737  0.21933699  0.48567373  1  0.075253  0  0.094299  0.09682  0  1.014708  0
H  H44  1  0.48537359  0.81289714  0.21956127  1  0.077193  0  0.094685  0.097585  0  1.013328  0
H  H45  1  0.78064802  0.51460874  0.18704712  1  0.04512  0  0.094566  0.097246  0  1.014202  0
H  H46  1  0.18712183  0.78066298  0.51432556  1  0.075255  0  0.09429  0.096819  0  1.014711  0
H  H47  1  0.51462645  0.18710283  0.78043987  1  0.077059  0  0.094701  0.09762  0  1.013366  0
H  H48  1  0.44873024  0.55550624  0.86304264  1  0.027036  0  0.086231  0.114799  0  0.996359  0
H  H49  1  0.86282371  0.44889031  0.55567859  1  0.024739  0  0.086519  0.115214  0  0.996493  0
H  H50  1  0.55552713  0.86272495  0.44814698  1  0.029662  0  0.086171  0.114707  0  0.996341  0
H  H51  1  0.55126980  0.44449373  0.13695850  1  0.027028  0  0.086254  0.114838  0  0.996328  0
H  H52  1  0.13717428  0.55110875  0.44432091  1  0.024759  0  0.086514  0.115223  0  0.99653  0
H  H53  1  0.44447327  0.13727594  0.55185371  1  0.029659  0  0.086171  0.114706  0  0.996338  0
H  H54  1  0.41769448  0.54608988  0.99383329  1  0.029267  0  0.084129  0.109449  0  1.017479  0
H  H55  1  0.99410762  0.41771663  0.54640433  1  0.012052  0  0.083908  0.109225  0  1.017447  0
H  H56  1  0.54613004  0.99420508  0.41764857  1  0.026617  0  0.084099  0.10947  0  1.017806  0
H  H57  1  0.58230436  0.45390917  0.00616645  1  0.029306  0  0.084122  0.10945  0  1.017491  0
H  H58  1  0.00589023  0.58228427  0.45359565  1  0.011802  0  0.083914  0.10923  0  1.017423  0
H  H59  1  0.45387121  0.00579582  0.58235235  1  0.026623  0  0.084103  0.109475  0  1.017804  0
H  H60  1  0.47469055  0.69169409  0.98446346  1  0.053272  0  0.081884  0.105675  0  1.04216  0
H  H61  1  0.98453421  0.47485456  0.69144649  1  0.021201  0  0.082192  0.106086  0  1.041975  0
H  H62  1  0.69165650  0.98449230  0.47442358  1  0.052249  0  0.08188  0.105786  0  1.042355  0
H  H63  1  0.52530829  0.30830496  0.01553628  1  0.053259  0  0.081883  0.105688  0  1.042199  0
H  H64  1  0.01546449  0.52514633  0.30855372  1  0.021207  0  0.082184  0.106083  0  1.041985  0
H  H65  1  0.30834475  0.01550859  0.52557734  1  0.052277  0  0.081855  0.105756  0  1.042368  0
C  C66  1  0.20682121  0.76214049  0.10072267  1  0.955597  0  0.203318  0.322842  0  3.975724  0
C  C67  1  0.10060065  0.20646395  0.76210971  1  0.95953  0  0.203009  0.322521  0  3.973285  0
C  C68  1  0.76213925  0.10078422  0.20672695  1  0.970145  0  0.203107  0.321229  0  3.977119  0
C  C69  1  0.79317848  0.23785856  0.89927649  1  0.955583  0  0.203343  0.322849  0  3.975765  0
C  C70  1  0.89940060  0.79353695  0.23789040  1  0.959481  0  0.202991  0.322497  0  3.973407  0
C  C71  1  0.23786128  0.89921484  0.79327326  1  0.970144  0  0.203122  0.321273  0  3.977084  0
C  C72  1  0.22580448  0.87776130  0.19889983  1  -0.019184  0  -0.1564  -0.186623  0  3.970833  0
C  C73  1  0.19879827  0.22558480  0.87762005  1  -0.019912  0  -0.157047  -0.187845  0  3.970484  0
C  C74  1  0.87774772  0.19907834  0.22574532  1  -0.021606  0  -0.157127  -0.187129  0  3.972329  0
C  C75  1  0.77419556  0.12223868  0.80109969  1  -0.019175  0  -0.156437  -0.186676  0  3.970838  0
C  C76  1  0.80120249  0.77441702  0.12237937  1  -0.020056  0  -0.157046  -0.187892  0  3.970474  0
C  C77  1  0.12225317  0.80092164  0.77425444  1  -0.021614  0  -0.157135  -0.187146  0  3.972306  0
C  C78  1  0.22073255  0.98180428  0.15429310  1  -0.098189  0  -0.242603  -0.335272  0  3.945357  0
C  C79  1  0.15412850  0.22064602  0.98138097  1  -0.090208  0  -0.242908  -0.336389  0  3.944598  0
C  C80  1  0.98177286  0.15419667  0.22072559  1  -0.075633  0  -0.243003  -0.336584  0  3.945345  0
C  C81  1  0.77926834  0.01819569  0.84570746  1  -0.098171  0  -0.242591  -0.335258  0  3.945382  0
C  C82  1  0.84586843  0.77935027  0.01861503  1  -0.089953  0  -0.242892  -0.336299  0  3.944597  0
C  C83  1  0.01822719  0.84580331  0.77927474  1  -0.075654  0  -0.24299  -0.336558  0  3.945294  0
C  C84  1  0.23048857  0.63453590  0.95762625  1  0.961467  0  0.199254  0.314872  0  3.996976  0
C  C85  1  0.95770512  0.23064141  0.63462552  1  0.962864  0  0.199023  0.314452  0  3.997329  0
C  C86  1  0.63445771  0.95787077  0.23071157  1  0.964401  0  0.198915  0.314402  0  3.995561  0
C  C87  1  0.76951027  0.36546315  0.04237349  1  0.96151  0  0.199303  0.31492  0  3.99707  0
C  C88  1  0.04229613  0.76935949  0.36537459  1  0.962841  0  0.199017  0.314441  0  3.997341  0
C  C89  1  0.36554269  0.04213013  0.76928912  1  0.964426  0  0.198899  0.314351  0  3.995572  0
C  C90  1  0.28098336  0.58234595  0.86785659  1  0.046268  0  -0.159103  -0.194254  0  3.989347  0
C  C91  1  0.86769870  0.28112742  0.58234632  1  0.016218  0  -0.158674  -0.193926  0  3.988412  0
C  C92  1  0.58229752  0.86790860  0.28109805  1  0.015471  0  -0.158423  -0.193506  0  3.986238  0
C  C93  1  0.71901669  0.41765403  0.13214374  1  0.046288  0  -0.159106  -0.194223  0  3.989303  0
C  C94  1  0.13230085  0.71887348  0.41765413  1  0.016259  0  -0.158665  -0.193931  0  3.98844  0
C  C95  1  0.41770408  0.13209322  0.71890403  1  0.015601  0  -0.158404  -0.193462  0  3.986266  0
C  C96  1  0.41326735  0.59436563  0.93077116  1  -0.10011  0  -0.243162  -0.341237  0  3.955129  0
C  C97  1  0.93077393  0.41338910  0.59443296  1  -0.049721  0  -0.243262  -0.341423  0  3.955265  0
C  C98  1  0.59437169  0.93080092  0.41300282  1  -0.09906  0  -0.243247  -0.341545  0  3.955757  0
C  C99  1  0.58673319  0.40563342  0.06922906  1  -0.100093  0  -0.243166  -0.341306  0  3.955185  0
C  C100  1  0.06922562  0.58661180  0.40556749  1  -0.049463  0  -0.243237  -0.341422  0  3.955274  0
C  C101  1  0.40562956  0.06919997  0.58699891  1  -0.099118  0  -0.243215  -0.341511  0  3.955718  0
N  N102  1  0.11879498  0.65164166  0.06737101  1  -0.77365  0  -0.307784  -0.25501  0  3.626525  0
N  N103  1  0.06756632  0.11855738  0.65189049  1  -0.770295  0  -0.307346  -0.254267  0  3.622403  0
N  N104  1  0.65171878  0.06723182  0.11869334  1  -0.774025  0  -0.308031  -0.255258  0  3.625864  0
N  N105  1  0.88120386  0.34835740  0.93262792  1  -0.77363  0  -0.30778  -0.254926  0  3.626466  0
N  N106  1  0.93243529  0.88144444  0.34810835  1  -0.770308  0  -0.307369  -0.2543  0  3.622414  0
N  N107  1  0.34828042  0.93276815  0.88130676  1  -0.77405  0  -0.308055  -0.255276  0  3.625799  0
N  N108  1  0.13452233  0.56952630  0.97565328  1  -0.786354  0  -0.314535  -0.254516  0  3.66659  0
N  N109  1  0.97598146  0.13462290  0.56986526  1  -0.787941  0  -0.313959  -0.253789  0  3.666792  0
N  N110  1  0.56955308  0.97564669  0.13463427  1  -0.788252  0  -0.313953  -0.254177  0  3.667089  0
N  N111  1  0.86547566  0.43047276  0.02434541  1  -0.78632  0  -0.314594  -0.254617  0  3.666606  0
N  N112  1  0.02401894  0.86537799  0.43013380  1  -0.787925  0  -0.313962  -0.253778  0  3.666741  0
N  N113  1  0.43044782  0.02435329  0.86536630  1  -0.788254  0  -0.313966  -0.254177  0  3.667053  0
N  N114  1  0.27788058  0.75536152  0.03360469  1  -1.230297  0  -0.405807  -0.409268  0  3.622871  0
N  N115  1  0.03340792  0.27779040  0.75517425  1  -1.233398  0  -0.405958  -0.409106  0  3.624012  0
N  N116  1  0.75527680  0.03394087  0.27801407  1  -1.243404  0  -0.404992  -0.407429  0  3.622619  0
N  N117  1  0.72211947  0.24463845  0.96639564  1  -1.230361  0  -0.405799  -0.409276  0  3.62298  0
N  N118  1  0.96659249  0.72221049  0.24482562  1  -1.233377  0  -0.405924  -0.40905  0  3.624012  0
N  N119  1  0.24472360  0.96606003  0.72198743  1  -1.243369  0  -0.40499  -0.407451  0  3.622537  0
