# generated using pymatgen
data_CuH8C12IN2
_symmetry_space_group_name_H-M   'P 1'
_cell_length_a   8.90167614
_cell_length_b   9.60752827
_cell_length_c   14.05574931
_cell_angle_alpha   90.00003622
_cell_angle_beta   90.00005771
_cell_angle_gamma   117.61454688
_symmetry_Int_Tables_number   1
_chemical_formula_structural   CuH8C12IN2
_chemical_formula_sum   'Cu4 H32 C48 I4 N8'
_cell_volume   1065.15620317
_cell_formula_units_Z   4
loop_
 _symmetry_equiv_pos_site_id
 _symmetry_equiv_pos_as_xyz
  1  'x, y, z'
loop_
 _atom_site_type_symbol
 _atom_site_label
 _atom_site_symmetry_multiplicity
 _atom_site_fract_x
 _atom_site_fract_y
 _atom_site_fract_z
 _atom_site_occupancy
 _atom_site_pbe_bader_spin_density
 _atom_site_pbe_cm5_charge
 _atom_site_pbe_ddec_charge
 _atom_site_pbe_ddec_spin_density
 _atom_site_pbe_ddec_sum_bond_order
 _atom_site_pbe_magmom
Cu  Cu0  1  0.82524082  0.65038276  0.25000344  1  0  0.347708  0.208372  0  2.633134  0
Cu  Cu1  1  0.32524482  0.65038816  0.74999583  1  0  0.347718  0.208391  0  2.633194  0
Cu  Cu2  1  0.17476300  0.34961977  0.74999501  1  0  0.347703  0.208362  0  2.633133  0
Cu  Cu3  1  0.67475841  0.34961319  0.25000475  1  0  0.347703  0.2084  0  2.633155  0
H  H4  1  0.91193599  0.61211790  0.05056905  1  0  0.106873  0.078015  0  1.01888  0
H  H5  1  0.41193483  0.61212136  0.94942599  1  0  0.106859  0.077996  0  1.01885  0
H  H6  1  0.29985223  0.38840324  0.55057559  1  0  0.106896  0.078351  0  1.0186  0
H  H7  1  0.20014983  0.61159604  0.55057988  1  0  0.106871  0.07832  0  1.018581  0
H  H8  1  0.08806153  0.38787875  0.94942797  1  0  0.106841  0.077967  0  1.018839  0
H  H9  1  0.58806498  0.38787764  0.05057530  1  0  0.106845  0.077956  0  1.018827  0
H  H10  1  0.70014661  0.61160281  0.44942143  1  0  0.106883  0.078379  0  1.018532  0
H  H11  1  0.79985180  0.38840883  0.44942426  1  0  0.106875  0.078308  0  1.01864  0
H  H12  1  0.85812639  0.68992923  0.88867805  1  0  0.093375  0.111391  0  1.031755  0
H  H13  1  0.35812641  0.68993095  0.11131770  1  0  0.093364  0.111388  0  1.031839  0
H  H14  1  0.16826809  0.31056276  0.38860053  1  0  0.093433  0.111417  0  1.032318  0
H  H15  1  0.33172857  0.68943971  0.38860351  1  0  0.093448  0.111453  0  1.032319  0
H  H16  1  0.14187513  0.31007094  0.11131897  1  0  0.093367  0.111393  0  1.031814  0
H  H17  1  0.64186773  0.31006570  0.88868359  1  0  0.093352  0.111375  0  1.031848  0
H  H18  1  0.83172680  0.68944211  0.61139791  1  0  0.093449  0.111458  0  1.032297  0
H  H19  1  0.66827076  0.31056281  0.61139920  1  0  0.093436  0.111426  0  1.032312  0
H  H20  1  0.73093255  0.10175773  0.87501586  1  0  0.104232  0.1067  0  1.031036  0
H  H21  1  0.23094058  0.10176418  0.12498383  1  0  0.104263  0.106738  0  1.031033  0
H  H22  1  0.62905258  0.89792252  0.37492740  1  0  0.104207  0.106314  0  1.031842  0
H  H23  1  0.87094324  0.10208191  0.37492731  1  0  0.104231  0.106363  0  1.031794  0
H  H24  1  0.26906212  0.89823774  0.12498472  1  0  0.104267  0.106754  0  1.031012  0
H  H25  1  0.76905811  0.89823482  0.87501391  1  0  0.10426  0.106786  0  1.030948  0
H  H26  1  0.37094670  0.10207765  0.62507318  1  0  0.104215  0.106328  0  1.031809  0
H  H27  1  0.12905384  0.89792061  0.62507398  1  0  0.104205  0.106332  0  1.031813  0
H  H28  1  0.79666942  0.89442111  0.26899428  1  0  0.094965  0.096652  0  1.077205  0
H  H29  1  0.29666037  0.89442294  0.73100578  1  0  0.094999  0.096658  0  1.077231  0
H  H30  1  0.90225071  0.10568839  0.76891983  1  0  0.094916  0.096555  0  1.076744  0
H  H31  1  0.59775834  0.89430981  0.76892061  1  0  0.094912  0.096513  0  1.07671  0
H  H32  1  0.20333826  0.10557789  0.73100558  1  0  0.095005  0.096652  0  1.077231  0
H  H33  1  0.70334736  0.10557841  0.26899480  1  0  0.094995  0.096637  0  1.07714  0
H  H34  1  0.09775746  0.89430708  0.23108004  1  0  0.094887  0.096495  0  1.076775  0
H  H35  1  0.40224933  0.10568919  0.23107997  1  0  0.094922  0.096569  0  1.076681  0
C  C36  1  0.87092170  0.70230912  0.04202878  1  0  0.043913  0.095171  0  3.945426  0
C  C37  1  0.37091656  0.70230908  0.95796840  1  0  0.043998  0.095373  0  3.945394  0
C  C38  1  0.16865178  0.29812898  0.54198261  1  0  0.043691  0.09413  0  3.946481  0
C  C39  1  0.33134977  0.70187381  0.54198488  1  0  0.043704  0.094174  0  3.946293  0
C  C40  1  0.12907977  0.29768870  0.95796967  1  0  0.043975  0.095342  0  3.945522  0
C  C41  1  0.62908090  0.29768522  0.04203431  1  0  0.04404  0.095448  0  3.945381  0
C  C42  1  0.83135043  0.70187707  0.45801513  1  0  0.043694  0.094135  0  3.946468  0
C  C43  1  0.66865191  0.29813341  0.45801784  1  0  0.043706  0.094191  0  3.946471  0
C  C44  1  0.84207175  0.74748192  0.95193047  1  0  -0.087738  -0.120556  0  3.975423  0
C  C45  1  0.34206985  0.74747998  0.04806601  1  0  -0.08777  -0.120667  0  3.975624  0
C  C46  1  0.09466853  0.25298459  0.45187425  1  0  -0.087915  -0.120742  0  3.975722  0
C  C47  1  0.40532887  0.74701918  0.45187588  1  0  -0.087948  -0.120826  0  3.975806  0
C  C48  1  0.15792757  0.25252061  0.04806727  1  0  -0.087746  -0.120622  0  3.975616  0
C  C49  1  0.65792258  0.25251549  0.95193457  1  0  -0.087726  -0.120653  0  3.975479  0
C  C50  1  0.90532635  0.74702028  0.54812491  1  0  -0.087925  -0.120828  0  3.97569  0
C  C51  1  0.59466826  0.25298569  0.54812613  1  0  -0.087926  -0.120796  0  3.975879  0
C  C52  1  0.77393428  0.93721749  0.02788014  1  0  -0.000548  0.000158  0  3.950432  0
C  C53  1  0.27393480  0.93721748  0.97211850  1  0  -0.000527  0.000129  0  3.950373  0
C  C54  1  0.83672677  0.06289195  0.52777151  1  0  -0.00134  -0.000452  0  3.948702  0
C  C55  1  0.66327281  0.93711280  0.52777163  1  0  -0.00132  -0.000472  0  3.948653  0
C  C56  1  0.22605702  0.06277798  0.97211831  1  0  -0.000522  0.000148  0  3.95045  0
C  C57  1  0.72605528  0.06277330  0.02788136  1  0  -0.000497  0.000106  0  3.950504  0
C  C58  1  0.16327427  0.93711175  0.47222979  1  0  -0.001289  -0.00038  0  3.948608  0
C  C59  1  0.33672817  0.06288855  0.47222895  1  0  -0.001301  -0.000477  0  3.948685  0
C  C60  1  0.69910038  0.11951269  0.11652268  1  0  0.105304  0.19228  0  3.973241  0
C  C61  1  0.19909676  0.11951367  0.88347842  1  0  0.105384  0.192283  0  3.973338  0
C  C62  1  0.57959997  0.88036587  0.61643282  1  0  0.105741  0.19287  0  3.97235  0
C  C63  1  0.92040375  0.11963789  0.61643206  1  0  0.10575  0.192893  0  3.972342  0
C  C64  1  0.30089601  0.88048396  0.88347790  1  0  0.105352  0.192339  0  3.973315  0
C  C65  1  0.80090011  0.88047946  0.11652073  1  0  0.105427  0.192325  0  3.973214  0
C  C66  1  0.42040444  0.11963782  0.38356847  1  0  0.105721  0.192874  0  3.972257  0
C  C67  1  0.07960120  0.88036464  0.38356781  1  0  0.105771  0.192854  0  3.972363  0
C  C68  1  0.79351957  0.86477987  0.94493547  1  0  -0.07026  -0.075218  0  3.934614  0
C  C69  1  0.29351891  0.86478265  0.05506386  1  0  -0.070278  -0.075152  0  3.934624  0
C  C70  1  0.92881343  0.13555678  0.44485815  1  0  -0.069768  -0.074033  0  3.93432  0
C  C71  1  0.57118369  0.86444780  0.44485961  1  0  -0.069755  -0.073979  0  3.934401  0
C  C72  1  0.20647623  0.13521560  0.05506368  1  0  -0.070268  -0.075167  0  3.934623  0
C  C73  1  0.70647406  0.13521165  0.94493743  1  0  -0.070229  -0.075046  0  3.934541  0
C  C74  1  0.07118595  0.86444809  0.55514172  1  0  -0.06979  -0.074036  0  3.934303  0
C  C75  1  0.42881734  0.13555590  0.55514168  1  0  -0.069768  -0.073967  0  3.93447  0
C  C76  1  0.72453071  0.05676649  0.20330851  1  0  -0.091614  -0.1445  0  3.988056  0
C  C77  1  0.22451524  0.05677551  0.79668973  1  0  -0.091693  -0.144571  0  3.987741  0
C  C78  1  0.66775626  0.94318621  0.70323009  1  0  -0.091581  -0.144492  0  3.985582  0
C  C79  1  0.83225154  0.05681421  0.70322924  1  0  -0.091659  -0.144709  0  3.985785  0
C  C80  1  0.27547960  0.94322429  0.79668994  1  0  -0.091739  -0.144728  0  3.987842  0
C  C81  1  0.77548306  0.94323171  0.20330729  1  0  -0.091715  -0.144715  0  3.988277  0
C  C82  1  0.33225141  0.05681280  0.29677049  1  0  -0.091642  -0.144642  0  3.985656  0
C  C83  1  0.16775560  0.94318596  0.29676992  1  0  -0.091588  -0.144545  0  3.985619  0
I  I84  1  0.01195981  0.49999657  0.24990710  1  0  -0.23835  -0.402084  0  1.707046  0
I  I85  1  0.51196466  0.50000279  0.75009475  1  0  -0.238333  -0.402056  0  1.707027  0
I  I86  1  0.98804112  0.50000243  0.75009064  1  0  -0.23835  -0.402078  0  1.707009  0
I  I87  1  0.48803804  0.49999974  0.24990654  1  0  -0.238335  -0.402055  0  1.706983  0
N  N88  1  0.84861601  0.76405877  0.12276514  1  0  -0.353206  -0.243281  0  3.588876  0
N  N89  1  0.34861242  0.76406208  0.87723134  1  0  -0.353182  -0.243382  0  3.588839  0
N  N90  1  0.08454198  0.23618451  0.62269331  1  0  -0.353012  -0.242905  0  3.589484  0
N  N91  1  0.41546032  0.76381728  0.62269566  1  0  -0.353014  -0.242912  0  3.58942  0
N  N92  1  0.15138546  0.23593905  0.87723259  1  0  -0.353182  -0.243324  0  3.588818  0
N  N93  1  0.65138514  0.23593691  0.12276853  1  0  -0.353265  -0.243483  0  3.589015  0
N  N94  1  0.91546126  0.76381684  0.37730585  1  0  -0.353001  -0.242896  0  3.589568  0
N  N95  1  0.58454130  0.23618759  0.37730705  1  0  -0.353032  -0.24296  0  3.589521  0
