# generated using pymatgen
data_Ni2MoH56(C2N)16
_symmetry_space_group_name_H-M   'P 1'
_cell_length_a   15.46314390
_cell_length_b   15.46315984
_cell_length_c   15.93834659
_cell_angle_alpha   106.40738145
_cell_angle_beta   106.40774940
_cell_angle_gamma   114.68965013
_symmetry_Int_Tables_number   1
_chemical_formula_structural   Ni2MoH56(C2N)16
_chemical_formula_sum   'Ni4 Mo2 H112 C64 N32'
_cell_volume   2950.24864030
_cell_formula_units_Z   2
loop_
 _symmetry_equiv_pos_site_id
 _symmetry_equiv_pos_as_xyz
  1  'x, y, z'
loop_
 _atom_site_type_symbol
 _atom_site_label
 _atom_site_symmetry_multiplicity
 _atom_site_fract_x
 _atom_site_fract_y
 _atom_site_fract_z
 _atom_site_occupancy
 _atom_site_pbe_bader_charge
 _atom_site_pbe_bader_spin_density
 _atom_site_pbe_cm5_charge
 _atom_site_pbe_ddec_charge
 _atom_site_pbe_ddec_spin_density
 _atom_site_pbe_ddec_sum_bond_order
 _atom_site_pbe_magmom
Ni  Ni0  1  0.00000014  0.49999762  0.00000154  1  1.078598  1.485658  0.685586  0.69311  1.714777  2.799621  1.471
Ni  Ni1  1  0.00000129  0.99999883  0.50000061  1  1.082763  1.485863  0.685225  0.692829  1.714924  2.798402  1.471
Ni  Ni2  1  0.00000413  0.99999748  0.99999989  1  1.082592  1.485838  0.68526  0.692775  1.71489  2.798643  1.471
Ni  Ni3  1  0.49999893  0.99999970  0.50000048  1  1.078513  1.485664  0.685558  0.693081  1.714781  2.799558  1.471
Mo  Mo4  1  0.12499633  0.87498973  0.24999280  1  1.717119  0.014703  0.865358  0.594413  0.010722  5.558465  0.017
Mo  Mo5  1  0.87500838  0.12500769  0.75000083  1  1.717199  0.014701  0.865286  0.594194  0.010721  5.55859  0.017
H  H6  1  0.82879541  0.33572697  0.03342389  1  0.062158  0.000314  0.110987  0.065998  -5e-06  0.946107  0.0
H  H7  1  0.80231056  0.79532412  0.46652811  1  0.051041  0.000321  0.111027  0.06619  -5e-06  0.946271  0.0
H  H8  1  0.20467396  0.19768610  0.03346964  1  0.05125  0.000322  0.111027  0.066239  -5e-06  0.946231  0.0
H  H9  1  0.66427243  0.17120342  0.46657453  1  0.062144  0.000314  0.110973  0.065987  -5e-06  0.946156  0.0
H  H10  1  0.17120667  0.66427424  0.96657845  1  0.061957  0.000314  0.11098  0.065964  -5e-06  0.946128  0.0
H  H11  1  0.19768839  0.20467499  0.53347184  1  0.051061  0.000321  0.111027  0.06622  -5e-06  0.946199  0.0
H  H12  1  0.79532815  0.80231369  0.96652948  1  0.051268  0.000321  0.111042  0.066241  -5e-06  0.946239  0.0
H  H13  1  0.33572221  0.82879486  0.53342432  1  0.062189  0.000314  0.110967  0.065973  -5e-06  0.946154  0.0
H  H14  1  0.86723650  0.36960348  0.20469224  1  -0.001137  0.000497  0.086737  0.082346  0.000191  0.981879  0.0
H  H15  1  0.66497569  0.66251820  0.29525558  1  -0.01195  0.000501  0.086684  0.082265  0.000191  0.981999  0.0
H  H16  1  0.33748101  0.33502178  0.20474371  1  -0.011908  0.0005  0.086654  0.082239  0.000191  0.981913  0.0
H  H17  1  0.63039500  0.13276150  0.29530454  1  -0.00114  0.000497  0.086672  0.082241  0.000191  0.981865  0.0
H  H18  1  0.13277055  0.63040228  0.79531275  1  -0.001462  0.000497  0.08673  0.082265  0.000191  0.981882  0.0
H  H19  1  0.33502393  0.33748094  0.70474666  1  -0.011974  0.0005  0.086726  0.082341  0.000191  0.981994  0.0
H  H20  1  0.66251952  0.66498086  0.79525469  1  -0.011864  0.0005  0.08663  0.082236  0.000191  0.981915  0.0
H  H21  1  0.36959655  0.86722998  0.70469188  1  -0.001629  0.000497  0.086764  0.082338  0.000191  0.981828  0.0
H  H22  1  0.88422768  0.49659057  0.23477046  1  0.031555  7.2e-05  0.09205  0.094508  1.4e-05  1.024216  0.0
H  H23  1  0.76190090  0.64944843  0.26521321  1  0.025391  7.6e-05  0.092208  0.095011  1.3e-05  1.023718  0.0
H  H24  1  0.35055548  0.23809759  0.23478909  1  0.024162  7.5e-05  0.092188  0.095018  1.3e-05  1.023683  0.0
H  H25  1  0.50341121  0.11577682  0.26523058  1  0.031862  7.2e-05  0.092072  0.094541  1.4e-05  1.02429  0.0
H  H26  1  0.11577611  0.50341569  0.76523208  1  0.031651  7.2e-05  0.092037  0.094481  1.4e-05  1.024328  0.0
H  H27  1  0.23810008  0.35055574  0.73478808  1  0.025367  7.5e-05  0.092192  0.095029  1.3e-05  1.023726  0.0
H  H28  1  0.64944259  0.76190340  0.76521164  1  0.024138  7.5e-05  0.092164  0.095003  1.3e-05  1.023703  0.0
H  H29  1  0.49658285  0.88422395  0.73476853  1  0.031674  7.2e-05  0.092069  0.094533  1.4e-05  1.024287  0.0
H  H30  1  0.70420725  0.36589264  0.20859475  1  0.021898  0.000583  0.08695  0.075711  0.000256  1.022077  0.0
H  H31  1  0.65738578  0.49559290  0.29139213  1  0.019178  0.000583  0.086914  0.075535  0.000256  1.022068  0.0
H  H32  1  0.50441026  0.34261390  0.20861167  1  0.018771  0.000584  0.086935  0.075612  0.000256  1.022118  0.0
H  H33  1  0.63411131  0.29579379  0.29140527  1  0.021706  0.000583  0.086958  0.075757  0.000256  1.022123  0.0
H  H34  1  0.29579998  0.63411263  0.79141041  1  0.02192  0.000583  0.086926  0.075688  0.000256  1.022129  0.0
H  H35  1  0.34261427  0.50440736  0.70861056  1  0.019191  0.000583  0.086909  0.075559  0.000256  1.022088  0.0
H  H36  1  0.49559013  0.65738637  0.79139217  1  0.018785  0.000584  0.086897  0.075536  0.000256  1.022086  0.0
H  H37  1  0.36588614  0.70420247  0.70859314  1  0.021684  0.000584  0.086956  0.075756  0.000256  1.022088  0.0
H  H38  1  0.67363882  0.27787283  0.09074627  1  0.011049  6e-06  0.085543  0.074346  -4.9e-05  0.985704  0.0
H  H39  1  0.68720439  0.58290185  0.40924234  1  0.002643  7e-06  0.08545  0.074128  -4.9e-05  0.985399  0.0
H  H40  1  0.41709840  0.31279451  0.09076040  1  0.002655  7e-06  0.085462  0.074155  -4.9e-05  0.985391  0.0
H  H41  1  0.72212908  0.32636024  0.40925247  1  0.011006  6e-06  0.085535  0.074377  -4.9e-05  0.985759  0.0
H  H42  1  0.32636506  0.72212814  0.90925787  1  0.011022  6e-06  0.085559  0.074395  -4.9e-05  0.985717  0.0
H  H43  1  0.31279588  0.41709690  0.59075974  1  0.002813  7e-06  0.085441  0.074134  -4.9e-05  0.985451  0.0
H  H44  1  0.58290554  0.68720814  0.90924141  1  0.002655  7e-06  0.085468  0.074163  -4.9e-05  0.985461  0.0
H  H45  1  0.27786862  0.67363763  0.59074622  1  0.010926  6e-06  0.085554  0.074372  -4.9e-05  0.985734  0.0
H  H46  1  0.71623100  0.50465601  0.15341084  1  0.050556  -1.4e-05  0.092566  0.090793  -6.9e-05  1.002881  0.0
H  H47  1  0.85135948  0.56285677  0.34660601  1  0.023825  -1.3e-05  0.092814  0.091257  -6.9e-05  1.002731  0.0
H  H48  1  0.43714647  0.14864065  0.15339586  1  0.024126  -1.3e-05  0.092817  0.091222  -6.9e-05  1.00273  0.0
H  H49  1  0.49534996  0.28377556  0.34659056  1  0.050594  -1.4e-05  0.092516  0.090785  -6.9e-05  1.002746  0.0
H  H50  1  0.28377452  0.49534791  0.84659338  1  0.050612  -1.4e-05  0.09253  0.090812  -6.9e-05  1.002762  0.0
H  H51  1  0.14864424  0.43714739  0.65339642  1  0.023856  -1.3e-05  0.092831  0.091279  -6.9e-05  1.002702  0.0
H  H52  1  0.56285273  0.85136006  0.84660438  1  0.023853  -1.3e-05  0.092812  0.091231  -6.9e-05  1.002724  0.0
H  H53  1  0.50464991  0.71622746  0.65340799  1  0.050627  -1.4e-05  0.092516  0.090759  -6.9e-05  1.002803  0.0
H  H54  1  0.58980556  0.38378188  0.07538773  1  -0.003491  0.000537  0.08858  0.081072  0.000218  0.993879  0.0
H  H55  1  0.80848638  0.51443978  0.42463022  1  0.000699  0.000537  0.088535  0.081193  0.000217  0.993926  0.0
H  H56  1  0.48556359  0.19151767  0.07537073  1  0.000702  0.000537  0.088531  0.081186  0.000217  0.993877  0.0
H  H57  1  0.61622604  0.41019801  0.42461421  1  -0.003428  0.000537  0.088607  0.081084  0.000218  0.993875  0.0
H  H58  1  0.41019919  0.61622132  0.92461733  1  -0.00345  0.000537  0.088585  0.081093  0.000218  0.993951  0.0
H  H59  1  0.19151843  0.48556099  0.57537083  1  0.000716  0.000537  0.088545  0.08121  0.000217  0.993908  0.0
H  H60  1  0.51443839  0.80848613  0.92463154  1  0.000693  0.000537  0.088512  0.081153  0.000218  0.993903  0.0
H  H61  1  0.38377509  0.58980256  0.57538636  1  -0.003409  0.000537  0.088594  0.081068  0.000218  0.993886  0.0
H  H62  1  0.67007789  0.46435931  0.97926723  1  0.005348  0.000509  0.090522  0.088014  0.000211  0.984069  0.0
H  H63  1  0.98517100  0.69083342  0.52076577  1  0.024316  0.000496  0.090515  0.087833  0.000211  0.984557  0.0
H  H64  1  0.30917068  0.01483021  0.97923530  1  0.02427  0.000496  0.090531  0.087881  0.000211  0.98448  0.0
H  H65  1  0.53564493  0.32992617  0.52073409  1  0.005432  0.000508  0.090526  0.088014  0.000211  0.983973  0.0
H  H66  1  0.32992211  0.53563742  0.02073213  1  0.005292  0.000509  0.090535  0.088088  0.000211  0.98416  0.0
H  H67  1  0.01483424  0.30917216  0.47923499  1  0.024701  0.000495  0.090534  0.08791  0.000211  0.984531  0.0
H  H68  1  0.69083252  0.98517031  0.02076412  1  0.024286  0.000496  0.090521  0.087888  0.000211  0.984625  0.0
H  H69  1  0.46435529  0.67007729  0.47926804  1  0.005536  0.000508  0.090507  0.088009  0.000211  0.983978  0.0
H  H70  1  0.65355099  0.33696718  0.95195748  1  0.027308  0.000261  0.08649  0.076754  6e-05  0.99119  0.0
H  H71  1  0.88506382  0.70157385  0.54803410  1  -0.006553  0.000277  0.086531  0.07675  6e-05  0.991091  0.0
H  H72  1  0.29842846  0.11494013  0.95196820  1  -0.006534  0.000276  0.086516  0.076739  6e-05  0.991105  0.0
H  H73  1  0.66303774  0.34644980  0.54804354  1  0.027232  0.000261  0.086454  0.076703  6e-05  0.99121  0.0
H  H74  1  0.34645359  0.66303282  0.04804815  1  0.026955  0.000261  0.08649  0.076793  6e-05  0.991126  0.0
H  H75  1  0.11494035  0.29842772  0.45196953  1  -0.006535  0.000276  0.086532  0.076784  6e-05  0.991127  0.0
H  H76  1  0.70157754  0.88506617  0.04803172  1  -0.006482  0.000276  0.086532  0.076782  6e-05  0.991063  0.0
H  H77  1  0.33695828  0.65354570  0.45195342  1  0.02714  0.000261  0.086472  0.076712  6e-05  0.991163  0.0
H  H78  1  0.86090617  0.55665257  0.09296006  1  0.058399  5.1e-05  0.118523  0.086144  -0.000147  0.94941  0.0
H  H79  1  0.96378283  0.76797664  0.40706829  1  0.083779  5.4e-05  0.118495  0.086469  -0.000147  0.949162  0.0
H  H80  1  0.23202687  0.03621434  0.09293300  1  0.083719  5.4e-05  0.118459  0.086449  -0.000147  0.949095  0.0
H  H81  1  0.44334846  0.13909973  0.40704125  1  0.058421  5.2e-05  0.118522  0.086154  -0.000147  0.949376  0.0
H  H82  1  0.13909610  0.44334814  0.90704246  1  0.058442  5.1e-05  0.118523  0.086158  -0.000147  0.949312  0.0
H  H83  1  0.03621439  0.23202481  0.59292998  1  0.083746  5.4e-05  0.118468  0.086457  -0.000147  0.949139  0.0
H  H84  1  0.76797524  0.96378545  0.90706612  1  0.083683  5.4e-05  0.118497  0.086456  -0.000147  0.949187  0.0
H  H85  1  0.55664555  0.86090163  0.59295621  1  0.058522  5.1e-05  0.11852  0.086209  -0.000147  0.949322  0.0
H  H86  1  0.01856473  0.54769104  0.18425576  1  0.466893  0.000429  0.289523  0.288592  0.000287  0.968467  0.0
H  H87  1  0.86347280  0.83430413  0.31573405  1  0.452699  0.000488  0.289732  0.28877  0.000287  0.968639  0.0
H  H88  1  0.16569310  0.13652098  0.18426331  1  0.45243  0.000488  0.289733  0.288719  0.000287  0.968761  0.0
H  H89  1  0.45230650  0.98143691  0.31574578  1  0.466834  0.000429  0.289564  0.288639  0.000287  0.968592  0.0
H  H90  1  0.98143653  0.45231147  0.81574900  1  0.46689  0.000429  0.289519  0.288522  0.000287  0.968583  0.0
H  H91  1  0.13652359  0.16569450  0.68426495  1  0.452802  0.000489  0.289722  0.288748  0.000288  0.968666  0.0
H  H92  1  0.83430427  0.86347686  0.81573424  1  0.452408  0.000489  0.289715  0.288688  0.000287  0.968704  0.0
H  H93  1  0.54768795  0.01856145  0.68425046  1  0.466528  0.000428  0.289514  0.288492  0.000288  0.968619  0.0
H  H94  1  0.00979337  0.43233081  0.13746302  1  0.394638  0.001507  0.298829  0.277327  0.000711  0.935088  0.0
H  H95  1  0.79490396  0.87231045  0.36252610  1  0.398778  0.001474  0.298701  0.277123  0.000708  0.935268  0.0
H  H96  1  0.12768668  0.20509047  0.13747142  1  0.398451  0.001473  0.298681  0.277047  0.000708  0.935377  0.0
H  H97  1  0.56766746  0.99020811  0.36253640  1  0.394766  0.001505  0.29882  0.277346  0.000711  0.935  0.0
H  H98  1  0.99021181  0.56767309  0.86254006  1  0.394672  0.001505  0.298831  0.277329  0.000711  0.93506  0.0
H  H99  1  0.20509503  0.12768807  0.63747551  1  0.398792  0.001474  0.298689  0.277115  0.000708  0.935287  0.0
H  H100  1  0.87231053  0.79490645  0.86252273  1  0.398893  0.001474  0.298743  0.277155  0.000708  0.935266  0.0
H  H101  1  0.43232609  0.00978944  0.63746215  1  0.394631  0.001505  0.298849  0.277334  0.000711  0.935025  0.0
H  H102  1  0.79058572  0.39185244  0.89783018  1  0.430748  0.001023  0.301791  0.283402  0.000424  0.933756  0.0
H  H103  1  0.99403166  0.89274516  0.60217757  1  0.417889  0.000998  0.301808  0.283367  0.000424  0.933553  0.0
H  H104  1  0.10725866  0.00596746  0.89782326  1  0.417909  0.000999  0.301823  0.283358  0.000425  0.933612  0.0
H  H105  1  0.60814909  0.20941589  0.60217030  1  0.430549  0.001024  0.301854  0.283409  0.000424  0.933741  0.0
H  H106  1  0.20942067  0.60814959  0.10217328  1  0.430464  0.001025  0.301878  0.28355  0.000424  0.933707  0.0
H  H107  1  0.00596823  0.10725828  0.39782341  1  0.417911  0.000998  0.301823  0.283382  0.000424  0.933578  0.0
H  H108  1  0.89274909  0.99403508  0.10217513  1  0.417974  0.000997  0.301834  0.283411  0.000423  0.933599  0.0
H  H109  1  0.39184565  0.79057938  0.39782618  1  0.430458  0.001024  0.301905  0.28358  0.000424  0.93374  0.0
H  H110  1  0.83338283  0.52048727  0.93494096  1  0.418698  0.001649  0.304371  0.285062  0.000854  0.930887  0.0
H  H111  1  0.08559695  0.89849407  0.56510581  1  0.420783  0.001578  0.304337  0.285078  0.000852  0.93078  0.0
H  H112  1  0.10151198  0.91440330  0.93489497  1  0.420802  0.001578  0.304324  0.285048  0.000853  0.930707  0.0
H  H113  1  0.47951580  0.16662198  0.56506014  1  0.418285  0.001648  0.304345  0.285022  0.000854  0.930924  0.0
H  H114  1  0.16661945  0.47951386  0.06506399  1  0.418035  0.001647  0.304412  0.285156  0.000853  0.930802  0.0
H  H115  1  0.91440484  0.10151023  0.43489629  1  0.420803  0.001577  0.304341  0.285078  0.000852  0.930746  0.0
H  H116  1  0.89849588  0.08559663  0.06510348  1  0.420787  0.001577  0.304367  0.285117  0.000852  0.930746  0.0
H  H117  1  0.52048004  0.83337814  0.43493833  1  0.418576  0.001648  0.304373  0.285065  0.000854  0.930902  0.0
C  C118  1  0.08075613  0.73316321  0.13431250  1  0.765931  -0.000744  0.004841  -0.008529  -0.004064  3.831846  0.006
C  C119  1  0.09886794  0.94647302  0.36565145  1  0.760723  -0.000673  0.005015  -0.008211  -0.004017  3.831782  0.006
C  C120  1  0.05351950  0.90112068  0.13433895  1  0.761022  -0.000676  0.005019  -0.008214  -0.004018  3.831578  0.006
C  C121  1  0.26683773  0.91924702  0.36568524  1  0.76544  -0.000734  0.004899  -0.008447  -0.004057  3.831371  0.006
C  C122  1  0.91924547  0.26683521  0.86567965  1  0.765384  -0.000737  0.004854  -0.00852  -0.004058  3.831637  0.006
C  C123  1  0.90111965  0.05352404  0.63434272  1  0.760946  -0.000671  0.004913  -0.008356  -0.004014  3.832165  0.006
C  C124  1  0.94647903  0.09887178  0.86565564  1  0.761234  -0.000665  0.004967  -0.008159  -0.00401  3.831693  0.006
C  C125  1  0.73316189  0.08076672  0.63433014  1  0.765924  -0.000732  0.005048  -0.008237  -0.004056  3.831233  0.006
C  C126  1  0.24488697  0.90940658  0.19844964  1  0.727449  0.000306  -0.006568  -0.024301  -7.8e-05  3.843637  0.0
C  C127  1  0.21102101  0.04647379  0.30151215  1  0.738963  0.000302  -0.006598  -0.024195  -8e-05  3.843038  0.0
C  C128  1  0.95352388  0.78896729  0.19846643  1  0.738469  0.000302  -0.006679  -0.024217  -8e-05  3.843326  0.0
C  C129  1  0.09057762  0.75510274  0.30153966  1  0.727972  0.000306  -0.006551  -0.024185  -7.8e-05  3.843634  0.0
C  C130  1  0.75509937  0.09057277  0.80154857  1  0.726729  0.000307  -0.006484  -0.024134  -7.8e-05  3.843411  0.0
C  C131  1  0.78896343  0.95351664  0.69847551  1  0.738357  0.000303  -0.006559  -0.023976  -7.9e-05  3.843068  0.0
C  C132  1  0.04647563  0.21102624  0.80152030  1  0.738571  0.000303  -0.00677  -0.0243  -7.9e-05  3.84337  0.0
C  C133  1  0.90942305  0.24491007  0.69845423  1  0.72689  0.000307  -0.006659  -0.024471  -7.8e-05  3.843846  0.0
C  C134  1  0.86369547  0.41785034  0.08980626  1  0.295091  0.000981  0.002401  0.133037  5.1e-05  3.812676  -0.001
C  C135  1  0.82808903  0.77387325  0.41017859  1  0.30179  0.000993  0.002556  0.133268  5.1e-05  3.813251  -0.001
C  C136  1  0.22612374  0.17190717  0.08982310  1  0.301562  0.000994  0.002544  0.13305  5.2e-05  3.813536  -0.001
C  C137  1  0.58215255  0.13630603  0.41019499  1  0.294958  0.000981  0.002376  0.132952  5.2e-05  3.812719  -0.001
C  C138  1  0.13630696  0.58215089  0.91019723  1  0.294922  0.000982  0.0024  0.133102  5.2e-05  3.81268  -0.001
C  C139  1  0.17191074  0.22612640  0.58982461  1  0.301931  0.000993  0.002568  0.133184  5.2e-05  3.8132  -0.001
C  C140  1  0.77387614  0.82809174  0.91017376  1  0.30151  0.000994  0.002553  0.133007  5.2e-05  3.813469  -0.001
C  C141  1  0.41784400  0.86368900  0.58980329  1  0.294974  0.000981  0.002386  0.132991  5.1e-05  3.812754  -0.001
C  C142  1  0.83812868  0.41391438  0.17517298  1  -0.019733  0.003697  -0.166802  -0.211155  0.002527  3.934961  0.003
C  C143  1  0.73881789  0.66294732  0.32479999  1  0.001215  0.003682  -0.166957  -0.211686  0.002527  3.935109  0.003
C  C144  1  0.33705049  0.26117942  0.17519944  1  0.002407  0.003683  -0.166953  -0.211687  0.002528  3.935011  0.003
C  C145  1  0.58608439  0.16187230  0.32482670  1  -0.020169  0.003697  -0.166773  -0.211025  0.002527  3.934976  0.003
C  C146  1  0.16187549  0.58608720  0.82483065  1  -0.019497  0.003697  -0.166751  -0.210999  0.002527  3.935042  0.003
C  C147  1  0.26118387  0.33705429  0.67520364  1  0.001171  0.003683  -0.166999  -0.211792  0.002527  3.935105  0.003
C  C148  1  0.66294552  0.73881979  0.82479677  1  0.002359  0.003683  -0.166881  -0.211565  0.002527  3.934987  0.003
C  C149  1  0.41390923  0.83812736  0.67517196  1  -0.019444  0.003697  -0.166835  -0.211109  0.002527  3.935176  0.003
C  C150  1  0.71835106  0.36330697  0.14430401  1  -0.01377  0.001706  -0.166337  -0.144073  0.000878  3.9629  0.001
C  C151  1  0.71908885  0.57404631  0.35568251  1  -0.008299  0.001713  -0.166165  -0.143369  0.000878  3.962063  0.001
C  C152  1  0.42595658  0.28091551  0.14432267  1  -0.008198  0.001714  -0.166153  -0.14341  0.000878  3.962203  0.001
C  C153  1  0.63669773  0.28165111  0.35569642  1  -0.013688  0.001706  -0.166355  -0.144287  0.000878  3.963131  0.001
C  C154  1  0.28165412  0.63669693  0.85569907  1  -0.013665  0.001707  -0.166329  -0.144168  0.000878  3.963077  0.001
C  C155  1  0.28091328  0.42595390  0.64431904  1  -0.008522  0.001714  -0.166151  -0.143407  0.000878  3.962197  0.001
C  C156  1  0.57404569  0.71908931  0.85568154  1  -0.008233  0.001713  -0.166193  -0.143473  0.000878  3.962095  0.001
C  C157  1  0.36330224  0.71835074  0.64430542  1  -0.013691  0.001707  -0.166397  -0.144258  0.000878  3.963291  0.001
C  C158  1  0.67610490  0.42085505  0.09831539  1  -0.015227  0.001724  -0.164303  -0.139239  0.000873  3.934049  0.001
C  C159  1  0.82262324  0.57779577  0.40168567  1  0.009331  0.001719  -0.164501  -0.140344  0.000873  3.934159  0.001
C  C160  1  0.42220746  0.17738327  0.09831891  1  0.008903  0.00172  -0.16454  -0.140317  0.000873  3.934033  0.001
C  C161  1  0.57915243  0.32389874  0.40168449  1  -0.015093  0.001723  -0.164232  -0.139081  0.000873  3.933819  0.001
C  C162  1  0.32390013  0.57914834  0.90168673  1  -0.015197  0.001723  -0.16427  -0.139185  0.000873  3.934058  0.001
C  C163  1  0.17737705  0.42220156  0.59831319  1  0.009348  0.001719  -0.164544  -0.140361  0.000873  3.93421  0.001
C  C164  1  0.57780090  0.82262995  0.90168913  1  0.009313  0.001719  -0.164463  -0.140252  0.000873  3.934107  0.001
C  C165  1  0.42084660  0.67610289  0.59831802  1  -0.015081  0.001723  -0.164196  -0.139037  0.000873  3.933867  0.001
C  C166  1  0.69798180  0.42031895  0.01044910  1  -0.033238  0.003766  -0.164778  -0.205177  0.002612  3.954881  0.003
C  C167  1  0.90994944  0.68755063  0.48956106  1  -0.017134  0.003752  -0.164948  -0.20473  0.00261  3.954804  0.003
C  C168  1  0.31244867  0.09005065  0.01043850  1  -0.017071  0.003752  -0.164921  -0.204771  0.00261  3.954756  0.003
C  C169  1  0.57968533  0.30201975  0.48954995  1  -0.033409  0.003767  -0.164737  -0.2052  0.002612  3.954764  0.003
C  C170  1  0.30202127  0.57968148  0.98955180  1  -0.033057  0.003767  -0.164818  -0.205414  0.002612  3.955021  0.003
C  C171  1  0.09005183  0.31245003  0.51043804  1  -0.017557  0.003753  -0.16497  -0.204897  0.00261  3.954923  0.003
C  C172  1  0.68755402  0.90995446  0.98956129  1  -0.017138  0.003752  -0.164954  -0.204828  0.00261  3.955002  0.003
C  C173  1  0.42031154  0.69797900  0.51044871  1  -0.033452  0.003766  -0.164755  -0.205183  0.002612  3.954713  0.003
C  C174  1  0.81752435  0.47117025  0.04035451  1  0.319001  0.000973  0.001997  0.127725  8.8e-05  3.802859  -0.001
C  C175  1  0.93087996  0.77718154  0.45966047  1  0.293315  0.00095  0.002094  0.127308  8.9e-05  3.802469  -0.001
C  C176  1  0.22282073  0.06912063  0.04033924  1  0.293329  0.000951  0.002117  0.127362  9e-05  3.802617  -0.001
C  C177  1  0.52883144  0.18247774  0.45964626  1  0.319353  0.000971  0.001969  0.127779  8.8e-05  3.802817  -0.001
C  C178  1  0.18247799  0.52883257  0.95964811  1  0.319359  0.000971  0.002003  0.127807  8.8e-05  3.802918  -0.001
C  C179  1  0.06912161  0.22282014  0.54034056  1  0.293298  0.000951  0.002082  0.127344  9e-05  3.802578  -0.001
C  C180  1  0.77718290  0.93088059  0.95965821  1  0.293577  0.000951  0.00204  0.127329  9e-05  3.802652  -0.001
C  C181  1  0.47116400  0.81752026  0.54035096  1  0.319255  0.000972  0.001992  0.127677  8.8e-05  3.802995  -0.001
N  N182  1  0.05482755  0.65279978  0.07057022  1  -1.398906  0.060472  -0.411772  -0.390952  0.0353  3.502682  0.05
N  N183  1  0.08230745  0.98428419  0.42944554  1  -1.39124  0.060387  -0.41184  -0.391273  0.035282  3.501833  0.05
N  N184  1  0.01571475  0.91768569  0.07054491  1  -1.391445  0.060387  -0.411883  -0.391267  0.03528  3.501663  0.05
N  N185  1  0.34719341  0.94517328  0.42943368  1  -1.398624  0.060466  -0.411747  -0.39092  0.035296  3.502454  0.05
N  N186  1  0.94517670  0.34719198  0.92943090  1  -1.398594  0.06046  -0.411775  -0.390901  0.035292  3.502434  0.05
N  N187  1  0.91769000  0.01571021  0.57055927  1  -1.391421  0.060382  -0.411805  -0.391197  0.035278  3.501758  0.05
N  N188  1  0.98429860  0.08231237  0.92945016  1  -1.391611  0.06038  -0.41181  -0.391335  0.035278  3.501652  0.05
N  N189  1  0.65280768  0.05482602  0.57057165  1  -1.398953  0.060458  -0.411889  -0.391075  0.035291  3.502354  0.05
N  N190  1  0.31390399  0.93049326  0.17508362  1  -1.348916  0.001596  -0.403302  -0.422444  0.000659  2.958533  0.001
N  N191  1  0.25533912  0.13886998  0.32493136  1  -1.361742  0.0016  -0.403098  -0.422382  0.00066  2.958991  0.001
N  N192  1  0.86113166  0.74464917  0.17505930  1  -1.361263  0.0016  -0.403107  -0.422422  0.00066  2.95902  0.001
N  N193  1  0.06949929  0.68609674  0.32491920  1  -1.3494  0.001595  -0.403343  -0.422566  0.000659  2.958614  0.001
N  N194  1  0.68609440  0.06950134  0.82493260  1  -1.348142  0.001595  -0.403303  -0.422531  0.000659  2.958565  0.001
N  N195  1  0.74464144  0.86112443  0.67505490  1  -1.361091  0.001601  -0.403162  -0.422552  0.000661  2.959174  0.001
N  N196  1  0.13886967  0.25534495  0.82493410  1  -1.361442  0.001601  -0.403032  -0.422334  0.000661  2.958983  0.001
N  N197  1  0.93049108  0.31390712  0.67506418  1  -1.348381  0.001595  -0.4032  -0.422289  0.000659  2.958868  0.001
N  N198  1  0.98032321  0.47675359  0.12109787  1  -1.111403  0.087974  -0.609813  -0.581843  0.050249  3.365317  0.074
N  N199  1  0.85569858  0.85920750  0.37889317  1  -1.102005  0.087888  -0.609981  -0.581878  0.050221  3.366016  0.074
N  N200  1  0.14079511  0.14429933  0.12110657  1  -1.10134  0.087896  -0.609936  -0.581623  0.050226  3.366388  0.074
N  N201  1  0.52324076  0.01967695  0.37890141  1  -1.111697  0.087971  -0.609792  -0.581869  0.050246  3.365323  0.074
N  N202  1  0.01968070  0.52324638  0.87890548  1  -1.11144  0.087971  -0.609786  -0.581787  0.050246  3.36536  0.074
N  N203  1  0.14429676  0.14078940  0.62110474  1  -1.102245  0.08789  -0.609901  -0.581742  0.050221  3.366078  0.074
N  N204  1  0.85920925  0.85569991  0.87889158  1  -1.101989  0.087888  -0.609976  -0.58168  0.050222  3.366094  0.074
N  N205  1  0.47675316  0.98031961  0.62109748  1  -1.111227  0.087977  -0.60981  -0.581741  0.050248  3.365323  0.074
N  N206  1  0.84189659  0.46698489  0.95633671  1  -1.109814  0.083628  -0.608159  -0.578385  0.047864  3.400513  0.07
N  N207  1  0.01068131  0.88557936  0.54368036  1  -1.09733  0.083701  -0.608243  -0.578383  0.047836  3.40012  0.07
N  N208  1  0.11442327  0.98931769  0.95632122  1  -1.097347  0.083705  -0.608245  -0.578321  0.047838  3.400164  0.07
N  N209  1  0.53301618  0.15810575  0.54366343  1  -1.109251  0.083626  -0.608182  -0.57834  0.047861  3.400488  0.07
N  N210  1  0.15810758  0.53301669  0.04366692  1  -1.108959  0.083633  -0.608297  -0.578711  0.047866  3.400538  0.07
N  N211  1  0.98932074  0.11442286  0.45632277  1  -1.097397  0.083693  -0.60826  -0.578412  0.04783  3.400177  0.07
N  N212  1  0.88557760  0.01068085  0.04367663  1  -1.097451  0.083699  -0.608272  -0.578443  0.047834  3.400214  0.07
N  N213  1  0.46697933  0.84189435  0.45633390  1  -1.109414  0.083624  -0.608271  -0.578605  0.047861  3.400689  0.07
