# generated using pymatgen
data_CdH17C17SN5O4
_symmetry_space_group_name_H-M   'P 1'
_cell_length_a   7.10994910
_cell_length_b   11.67344099
_cell_length_c   12.99905336
_cell_angle_alpha   77.31098838
_cell_angle_beta   79.22394439
_cell_angle_gamma   87.15702910
_symmetry_Int_Tables_number   1
_chemical_formula_structural   CdH17C17SN5O4
_chemical_formula_sum   'Cd2 H34 C34 S2 N10 O8'
_cell_volume   1033.93780774
_cell_formula_units_Z   2
loop_
 _symmetry_equiv_pos_site_id
 _symmetry_equiv_pos_as_xyz
  1  'x, y, z'
loop_
 _atom_site_type_symbol
 _atom_site_label
 _atom_site_symmetry_multiplicity
 _atom_site_fract_x
 _atom_site_fract_y
 _atom_site_fract_z
 _atom_site_occupancy
 _atom_site_pbe_bader_charge
 _atom_site_pbe_bader_spin_density
 _atom_site_pbe_cm5_charge
 _atom_site_pbe_ddec_charge
 _atom_site_pbe_ddec_spin_density
 _atom_site_pbe_ddec_sum_bond_order
 _atom_site_pbe_magmom
Cd  Cd0  1  0.13162780  0.01367806  0.66237372  1  1.230107  0  0.781278  0.882721  0  2.149145  0
Cd  Cd1  1  0.86837759  0.98632312  0.33762799  1  1.230173  0  0.781267  0.882669  0  2.149223  0
H  H2  1  0.37458504  0.21468177  0.27723167  1  0.067573  0  0.105236  0.10667  0  1.013928  0
H  H3  1  0.62541784  0.78531678  0.72276385  1  0.067516  0  0.105242  0.106686  0  1.01389  0
H  H4  1  0.31398943  0.38193761  0.13007534  1  0.069956  0  0.105002  0.10799  0  1.014934  0
H  H5  1  0.68600200  0.61805911  0.86992312  1  0.069897  0  0.104985  0.107931  0  1.014929  0
H  H6  1  0.30479190  0.14230267  0.92360765  1  0.09055  0  0.100308  0.107689  0  1.039784  0
H  H7  1  0.69520818  0.85769411  0.07638847  1  0.090602  0  0.100292  0.107724  0  1.039893  0
H  H8  1  0.35801438  0.97322745  0.07274387  1  0.1021  0  0.099615  0.09852  0  1.057744  0
H  H9  1  0.64199283  0.02676937  0.92725236  1  0.102241  0  0.099593  0.098479  0  1.057693  0
H  H10  1  0.18977522  0.44460180  0.75333253  1  0.09008  0  0.100345  0.097579  0  1.044636  0
H  H11  1  0.81021586  0.55540105  0.24666861  1  0.090023  0  0.100376  0.097598  0  1.044732  0
H  H12  1  0.12563672  0.61263805  0.60723113  1  0.056315  0  0.098042  0.111462  0  1.0093  0
H  H13  1  0.87435428  0.38736567  0.39277139  1  0.056307  0  0.098057  0.111442  0  1.009276  0
H  H14  1  0.22941464  0.61901188  0.05074810  1  0.112322  0  0.112421  0.110259  0  0.996429  0
H  H15  1  0.77058370  0.38098663  0.94925400  1  0.112367  0  0.112437  0.110278  0  0.996428  0
H  H16  1  0.20293597  0.82715942  0.07481772  1  0.072987  0  0.10577  0.111714  0  1.007274  0
H  H17  1  0.79707087  0.17284001  0.92518497  1  0.07302  0  0.105797  0.11175  0  1.007249  0
H  H18  1  0.14832611  0.98784735  0.91926158  1  0.052207  0  0.111017  0.074011  0  1.018611  0
H  H19  1  0.85167930  0.01215207  0.08074124  1  0.052549  0  0.11104  0.074102  0  1.018536  0
H  H20  1  0.29339669  0.30804351  0.42980131  1  0.024886  0  0.097794  0.063095  0  0.980093  0
H  H21  1  0.70660026  0.69195763  0.57019732  1  0.024931  0  0.097791  0.063105  0  0.980064  0
H  H22  1  0.43568480  0.22613123  0.51954256  1  0.069803  0  0.109317  0.090749  0  0.964277  0
H  H23  1  0.56431926  0.77387259  0.48045414  1  0.069829  0  0.109317  0.090758  0  0.964251  0
H  H24  1  0.21555836  0.37336100  0.59681124  1  0.020732  0  0.097289  0.06436  0  0.987666  0
H  H25  1  0.78444289  0.62664017  0.40318701  1  0.020696  0  0.097302  0.064412  0  0.987628  0
H  H26  1  0.01453999  0.29731943  0.58159977  1  0.040131  0  0.107605  0.086303  0  0.963504  0
H  H27  1  0.98546126  0.70268086  0.41839941  1  0.040117  0  0.107593  0.086303  0  0.963514  0
H  H28  1  0.32088151  0.08368672  0.45184445  1  0.472499  0  0.285412  0.283626  0  0.999809  0
H  H29  1  0.67912112  0.91631533  0.54815426  1  0.472512  0  0.285428  0.283633  0  0.999813  0
H  H30  1  0.10040122  0.14154038  0.45586047  1  0.459821  0  0.283326  0.285417  0  1.006741  0
H  H31  1  0.89960139  0.85845991  0.54414013  1  0.459782  0  0.283336  0.285373  0  1.006758  0
H  H32  1  0.05900559  0.22609211  0.75784941  1  0.413067  0  0.297432  0.281188  0  0.952064  0
H  H33  1  0.94099706  0.77390906  0.24214947  1  0.413044  0  0.297421  0.281185  0  0.952076  0
H  H34  1  0.29128471  0.20005907  0.72348376  1  0.470246  0  0.284523  0.28689  0  1.00611  0
H  H35  1  0.70871929  0.79994386  0.27651543  1  0.470278  0  0.284486  0.286772  0  1.006243  0
C  C36  1  0.36115923  0.08356476  0.18456051  1  -0.17261  0  -0.029552  -0.109263  0  4.007883  0
C  C37  1  0.63884944  0.91643296  0.81543388  1  -0.172437  0  -0.029535  -0.109261  0  4.00783  0
C  C38  1  0.35313873  0.19873522  0.20078919  1  -0.011399  0  -0.089032  -0.081217  0  3.995687  0
C  C39  1  0.64686553  0.80126334  0.79920775  1  -0.01175  0  -0.089129  -0.081309  0  3.995745  0
C  C40  1  0.32042883  0.29191974  0.11904298  1  -0.019028  0  -0.082607  -0.138229  0  3.93392  0
C  C41  1  0.67956836  0.70807790  0.88095324  1  -0.018965  0  -0.082575  -0.138148  0  3.933729  0
C  C42  1  0.29647212  0.27119708  0.01928705  1  0.391467  0  0.087614  0.18216  0  4.042877  0
C  C43  1  0.70352509  0.72879880  0.98071028  1  0.391917  0  0.087758  0.182346  0  4.04266  0
C  C44  1  0.31208294  0.15579633  0.00307321  1  -0.057579  0  -0.091333  -0.150588  0  3.959685  0
C  C45  1  0.68791991  0.84420046  0.99692497  1  -0.058097  0  -0.091448  -0.150917  0  3.959892  0
C  C46  1  0.34304528  0.06253516  0.08522276  1  -0.070199  0  -0.09717  -0.105836  0  4.040383  0
C  C47  1  0.65696193  0.93746342  0.91477159  1  -0.070026  0  -0.097066  -0.105593  0  4.04007  0
C  C48  1  0.20201237  0.55016186  0.86701586  1  0.423779  0  0.072602  0.088892  0  4.073504  0
C  C49  1  0.79798306  0.44983838  0.13298617  1  0.424207  0  0.072573  0.088933  0  4.073646  0
C  C50  1  0.17788229  0.53414902  0.76608638  1  -0.023278  0  -0.084427  -0.112211  0  4.015087  0
C  C51  1  0.82210883  0.46585384  0.23391399  1  -0.023768  0  -0.084425  -0.11232  0  4.01521  0
C  C52  1  0.14266152  0.62720893  0.68515136  1  -0.08238  0  -0.114638  -0.219129  0  4.008699  0
C  C53  1  0.85733087  0.37279480  0.31485181  1  -0.082331  0  -0.114601  -0.218945  0  4.008665  0
C  C54  1  0.13043898  0.74503854  0.69877669  1  0.747093  0  0.097674  0.290831  0  4.127896  0
C  C55  1  0.86955485  0.25496520  0.30122634  1  0.747408  0  0.097624  0.290779  0  4.127872  0
C  C56  1  0.15328475  0.76303735  0.80354447  1  0.466064  0  0.09821  0.079556  0  3.95967  0
C  C57  1  0.84671199  0.23696377  0.19645957  1  0.465972  0  0.098221  0.079634  0  3.959489  0
C  C58  1  0.18676599  0.66674878  0.88663711  1  0.036184  0  0.006474  0.002506  0  3.966751  0
C  C59  1  0.81323084  0.33325147  0.11336556  1  0.035791  0  0.006472  0.002438  0  3.966716  0
C  C60  1  0.20377855  0.69158654  0.98619498  1  -0.011825  0  -0.058016  -0.046501  0  3.921683  0
C  C61  1  0.79621980  0.30841196  0.01380712  1  -0.012529  0  -0.058021  -0.046499  0  3.921659  0
C  C62  1  0.18851834  0.80597526  0.99913975  1  -0.043145  0  -0.086116  -0.130728  0  3.988962  0
C  C63  1  0.81148280  0.19402325  0.00086363  1  -0.042377  0  -0.086133  -0.130774  0  3.989085  0
C  C64  1  0.15810983  0.89620604  0.91229011  1  0.535437  0  0.047087  0.096273  0  3.987623  0
C  C65  1  0.84188986  0.10379335  0.08771324  1  0.534885  0  0.047043  0.096188  0  3.987687  0
C  C66  1  0.28837030  0.24027391  0.50432057  1  0.294775  0  -0.071242  0.000803  0  3.922303  0
C  C67  1  0.71163095  0.75972726  0.49567767  1  0.294727  0  -0.071248  0.000794  0  3.922308  0
C  C68  1  0.16272424  0.28634694  0.59599166  1  0.294722  0  -0.072327  0.000989  0  3.926571  0
C  C69  1  0.83727844  0.71365336  0.40400739  1  0.294831  0  -0.07237  0.000856  0  3.926582  0
S  S70  1  0.38506397  0.96203637  0.29077509  1  3.185135  0  0.503468  1.160213  0  6.208386  0
S  S71  1  0.61494163  0.03796395  0.70922215  1  3.184084  0  0.5035  1.160083  0  6.208421  0
N  N72  1  0.25775260  0.35775305  0.93180422  1  -0.521623  0  -0.186676  -0.197234  0  3.291286  0
N  N73  1  0.74223872  0.64224631  0.06819451  1  -0.521497  0  -0.186672  -0.197218  0  3.29137  0
N  N74  1  0.24169634  0.46179746  0.94984488  1  -0.581062  0  -0.162989  -0.131738  0  3.38537  0
N  N75  1  0.75829920  0.53820016  0.05015688  1  -0.581156  0  -0.162994  -0.131754  0  3.385503  0
N  N76  1  0.14078494  0.87506557  0.81822870  1  -1.238436  0  -0.333726  -0.276641  0  3.574117  0
N  N77  1  0.85921472  0.12493558  0.18177354  1  -1.238184  0  -0.333745  -0.276692  0  3.574121  0
N  N78  1  0.21676943  0.12804923  0.49423577  1  -1.157072  0  -0.642914  -0.569411  0  3.342204  0
N  N79  1  0.78323322  0.87195195  0.50576311  1  -1.157076  0  -0.642918  -0.569355  0  3.342277  0
N  N80  1  0.16072945  0.20276545  0.69942448  1  -1.138731  0  -0.631624  -0.591187  0  3.336992  0
N  N81  1  0.83927600  0.79723662  0.30057475  1  -1.138784  0  -0.631538  -0.590996  0  3.337048  0
O  O82  1  0.10018520  0.83218733  0.62333510  1  -1.143408  0  -0.319767  -0.485241  0  2.274443  0
O  O83  1  0.89980864  0.16781377  0.37666998  1  -1.143297  0  -0.319779  -0.485308  0  2.274407  0
O  O84  1  0.46960069  0.86551553  0.24153091  1  -1.344615  0  -0.34414  -0.597304  0  2.196348  0
O  O85  1  0.53039771  0.13448210  0.75847059  1  -1.344604  0  -0.344113  -0.597291  0  2.196369  0
O  O86  1  0.50555796  0.00205437  0.35714977  1  -1.34002  0  -0.341534  -0.602672  0  2.267405  0
O  O87  1  0.49444908  0.99794684  0.64284640  1  -1.339014  0  -0.341588  -0.602675  0  2.267409  0
O  O88  1  0.19020108  0.93531696  0.35269257  1  -1.333758  0  -0.355024  -0.607289  0  2.315257  0
O  O89  1  0.80980286  0.06468686  0.64730722  1  -1.333686  0  -0.355057  -0.607243  0  2.315203  0
