# generated using pymatgen
data_CuH16C12N6O7
_symmetry_space_group_name_H-M   'P 1'
_cell_length_a   7.23961481
_cell_length_b   11.03693657
_cell_length_c   12.24623384
_cell_angle_alpha   112.16947284
_cell_angle_beta   90.03208235
_cell_angle_gamma   90.12252057
_symmetry_Int_Tables_number   1
_chemical_formula_structural   CuH16C12N6O7
_chemical_formula_sum   'Cu2 H32 C24 N12 O14'
_cell_volume   906.17010936
_cell_formula_units_Z   2
loop_
 _symmetry_equiv_pos_site_id
 _symmetry_equiv_pos_as_xyz
  1  'x, y, z'
loop_
 _atom_site_type_symbol
 _atom_site_label
 _atom_site_symmetry_multiplicity
 _atom_site_fract_x
 _atom_site_fract_y
 _atom_site_fract_z
 _atom_site_occupancy
 _atom_site_pbe_bader_charge
 _atom_site_pbe_bader_spin_density
 _atom_site_pbe_cm5_charge
 _atom_site_pbe_ddec_charge
 _atom_site_pbe_ddec_spin_density
 _atom_site_pbe_ddec_sum_bond_order
 _atom_site_pbe_magmom
Cu  Cu0  1  0.75829464  0.48927529  0.64909428  1  1.040324  0.566637  0.740024  0.744078  0.74654  2.283554  0.565
Cu  Cu1  1  0.25713841  0.51065472  0.35080325  1  1.04046  -0.566746  0.739742  0.742812  -0.74647  2.285714  -0.565
H  H2  1  0.26695030  0.16269128  0.94369663  1  0.6502  -4e-06  0.28833  0.334193  -2.6e-05  1.033845  0.0
H  H3  1  0.76673568  0.83669113  0.05632973  1  0.647365  3e-06  0.287869  0.334053  2.4e-05  1.034047  0.0
H  H4  1  0.53534455  0.62406302  0.60560675  1  0.506272  -0.00046  0.297107  0.261875  0.000137  0.989664  0.0
H  H5  1  0.03422085  0.37534839  0.39394270  1  0.503356  0.000474  0.297305  0.262259  -0.000118  0.98882  0.0
H  H6  1  0.84203659  0.99883022  0.26213331  1  0.512556  -1e-05  0.312387  0.291448  -1.3e-05  0.98673  0.0
H  H7  1  0.34211849  0.00118244  0.73791340  1  0.511791  1e-05  0.312381  0.291621  1.2e-05  0.986925  0.0
H  H8  1  0.89804899  0.79447316  0.23624882  1  0.47097  5.2e-05  0.309773  0.313536  2.6e-05  0.959849  0.0
H  H9  1  0.39809080  0.20597307  0.76389588  1  0.470671  -5.3e-05  0.309642  0.313271  -2.7e-05  0.959265  0.0
H  H10  1  0.93080449  0.74114090  0.35612731  1  0.544081  0.000427  0.30001  0.335422  0.000488  0.984092  0.0
H  H11  1  0.43044513  0.25930839  0.64392114  1  0.542619  -0.000427  0.299744  0.335247  -0.000489  0.984683  0.0
H  H12  1  0.88186135  0.77571609  0.64021658  1  0.110416  2.7e-05  0.120107  0.127221  -0.00018  0.982719  0.0
H  H13  1  0.37998876  0.22440684  0.35991555  1  0.112227  -2.5e-05  0.12007  0.126466  0.000181  0.983308  0.0
H  H14  1  0.70029426  0.76615381  0.54034628  1  0.081592  0.006281  0.107993  0.11193  0.003356  0.9941  0.004
H  H15  1  0.19865999  0.23372994  0.45944934  1  0.081185  -0.00628  0.107966  0.111475  -0.003354  0.995274  -0.004
H  H16  1  0.47133252  0.77909842  0.78195355  1  0.104523  0.003805  0.11641  0.130215  0.001993  0.978466  0.002
H  H17  1  0.96957009  0.22037099  0.21747220  1  0.095143  -0.003793  0.116476  0.130121  -0.001972  0.979032  -0.002
H  H18  1  0.70242714  0.83485819  0.80102433  1  0.089279  0.000464  0.114021  0.114312  0.00016  1.01601  0.0
H  H19  1  0.20013760  0.16486379  0.19889815  1  0.104538  -0.000469  0.114102  0.11479  -0.00017  1.016871  0.0
H  H20  1  0.88052696  0.35739120  0.82123193  1  0.156542  0.000579  0.146417  0.121402  0.000221  0.98097  0.001
H  H21  1  0.38016576  0.64282673  0.17885406  1  0.153605  -0.000583  0.146183  0.120876  -0.000223  0.980638  -0.001
H  H22  1  0.99557873  0.99225445  0.72756965  1  0.090837  0.000259  0.126006  0.08443  0.000138  1.003018  0.0
H  H23  1  0.49649697  0.00810653  0.27266328  1  0.12766  -0.000254  0.12579  0.084342  -0.000137  1.003237  0.0
H  H24  1  0.01793096  0.14573804  0.85234235  1  0.116374  -7.7e-05  0.122829  0.084116  -4.4e-05  1.031958  0.0
H  H25  1  0.51762466  0.85457241  0.14781293  1  0.115466  7.6e-05  0.122606  0.083782  4.4e-05  1.030306  0.0
H  H26  1  0.80426095  0.18722696  0.99537497  1  0.086058  -0.000229  0.103144  0.080961  -0.000214  1.009291  0.0
H  H27  1  0.30380343  0.81299142  0.00486466  1  0.087065  0.000229  0.103253  0.081074  0.000214  1.008098  0.0
H  H28  1  0.66530460  0.24785974  0.90616357  1  0.03194  3e-06  0.099753  0.064858  8e-06  0.989288  0.0
H  H29  1  0.16484111  0.75217857  0.09401402  1  0.031907  -5e-06  0.099999  0.065286  -9e-06  0.988681  0.0
H  H30  1  0.54485474  0.02143821  0.97623157  1  0.047288  0.000346  0.100641  0.069798  0.000273  0.983153  0.0
H  H31  1  0.04496979  0.97849526  0.02392127  1  0.047626  -0.000348  0.100739  0.070068  -0.000275  0.983889  0.0
H  H32  1  0.49259325  0.18895889  0.05885676  1  0.059001  5.5e-05  0.107656  0.073968  5.7e-05  0.97052  0.0
H  H33  1  0.99177121  0.81090142  0.94124042  1  0.057779  -5.6e-05  0.107501  0.07371  -5.9e-05  0.971015  0.0
C  C34  1  0.77676623  0.71004679  0.58298936  1  0.245893  0.000597  -0.070827  -0.18941  0.001424  3.870889  -0.002
C  C35  1  0.27518412  0.28996781  0.41690937  1  0.252162  -0.000603  -0.070523  -0.187981  -0.001433  3.872677  0.002
C  C36  1  0.88280544  0.59830350  0.49208563  1  1.581099  0.001399  0.217389  0.621525  0.00216  4.122192  0.002
C  C37  1  0.38165947  0.40185670  0.50794809  1  1.577136  -0.001363  0.218293  0.62199  -0.002138  4.119925  -0.002
C  C38  1  0.61596095  0.74630962  0.77475585  1  0.236158  0.001031  -0.076334  -0.201751  0.001952  3.876943  -0.002
C  C39  1  0.11432213  0.25333191  0.22491311  1  0.225387  -0.001016  -0.076267  -0.202597  -0.001959  3.879912  0.002
C  C40  1  0.64860081  0.67873830  0.86135524  1  1.588545  0.00279  0.205559  0.611284  0.003176  4.171053  0.003
C  C41  1  0.14779326  0.32072496  0.13824069  1  1.595451  -0.002794  0.205883  0.611129  -0.003183  4.169212  -0.003
C  C42  1  0.88740519  0.93811730  0.40002955  1  1.602513  7.7e-05  0.350207  0.599926  0.000115  4.108933  0.0
C  C43  1  0.38738507  0.06215139  0.60009119  1  1.604203  -7.7e-05  0.349544  0.598615  -0.000115  4.109947  0.0
C  C44  1  0.88340323  0.09617090  0.57912059  1  0.974878  0.00271  0.216325  0.268278  0.001838  4.118222  0.002
C  C45  1  0.38335065  0.90407362  0.42100672  1  0.97529  -0.00272  0.215837  0.267128  -0.001844  4.119971  -0.002
C  C46  1  0.84174957  0.19745953  0.54051967  1  0.352372  0.002247  0.061453  -0.085194  0.002274  4.009383  0.002
C  C47  1  0.34164869  0.80262994  0.45953912  1  0.350614  -0.002247  0.061174  -0.085529  -0.002275  4.009739  -0.002
C  C48  1  0.80621056  0.16349773  0.41693597  1  1.370354  0.000667  0.225381  0.471095  0.000293  4.177634  0.001
C  C49  1  0.30626785  0.83644324  0.58305041  1  1.371122  -0.000665  0.225603  0.4714  -0.000294  4.17732  -0.001
C  C50  1  0.87314841  0.28645225  0.73136810  1  1.009967  -0.003151  0.154719  0.113876  -0.001889  3.906964  -0.002
C  C51  1  0.37300760  0.71374491  0.26875646  1  1.016792  0.003114  0.15495  0.114316  0.001861  3.907489  0.002
C  C52  1  0.92916825  0.08524669  0.77959716  1  0.807261  0.000381  0.035016  0.088801  0.000314  3.900976  0.0
C  C53  1  0.42940153  0.91507506  0.22059973  1  0.771936  -0.000385  0.035638  0.089435  -0.000316  3.900673  0.0
C  C54  1  0.69614777  0.16079805  0.92682788  1  0.394044  -0.000347  -0.077565  -0.02232  -0.000235  3.922338  0.0
C  C55  1  0.19585356  0.83928252  0.07332792  1  0.390007  0.000341  -0.077703  -0.022384  0.000231  3.921121  0.0
C  C56  1  0.52255483  0.11731196  0.96965973  1  0.439597  0.000269  -0.074869  0.059024  0.000197  3.930054  0.0
C  C57  1  0.02231277  0.88258376  0.03045878  1  0.441481  -0.000274  -0.075091  0.05833  -0.000201  3.92968  0.0
N  N58  1  0.65636599  0.65925919  0.65267901  1  -1.073349  0.130532  -0.498457  -0.2675  0.086565  3.570273  0.108
N  N59  1  0.15502507  0.34038192  0.34699143  1  -1.074251  -0.130307  -0.499188  -0.267201  -0.086487  3.572389  -0.108
N  N60  1  0.84637203  0.03038146  0.35318001  1  -1.241555  -1.2e-05  -0.391176  -0.450349  -3.1e-05  3.498569  0.0
N  N61  1  0.34645907  0.96971381  0.64687171  1  -1.24072  1.1e-05  -0.391155  -0.450433  3e-05  3.498109  0.0
N  N62  1  0.90841882  0.81424197  0.32404864  1  -1.317417  0.00136  -0.570889  -0.648743  0.000878  3.292461  0.001
N  N63  1  0.40839871  0.18610957  0.67606623  1  -1.31705  -0.001365  -0.569915  -0.647412  -0.000881  3.29293  -0.001
N  N64  1  0.90426880  0.96805827  0.51591725  1  -1.231022  0.003319  -0.355083  -0.500009  0.002148  3.265069  0.002
N  N65  1  0.40418359  0.03225867  0.48422417  1  -1.231357  -0.00332  -0.354765  -0.499085  -0.002149  3.26492  -0.002
N  N66  1  0.83617416  0.31494436  0.63786178  1  -1.186433  0.05826  -0.37051  -0.285687  0.040341  3.638605  0.049
N  N67  1  0.33599279  0.68511943  0.36217314  1  -1.187539  -0.058375  -0.370098  -0.284982  -0.040421  3.637996  -0.049
N  N68  1  0.90152979  0.15478054  0.70059219  1  -1.237285  0.001473  -0.244198  -0.081146  0.000952  3.698648  0.001
N  N69  1  0.40151477  0.84548508  0.29955897  1  -1.23732  -0.001484  -0.244734  -0.081475  -0.00096  3.700124  -0.001
O  O70  1  0.89565639  0.49140596  0.51125055  1  -1.118566  0.084131  -0.320495  -0.534244  0.055819  2.393784  0.078
O  O71  1  0.39435305  0.50890661  0.48897538  1  -1.119429  -0.084168  -0.320605  -0.533901  -0.055876  2.392874  -0.078
O  O72  1  0.95866803  0.61309923  0.40591649  1  -1.183739  0.013702  -0.305762  -0.543706  0.008504  2.252312  0.01
O  O73  1  0.45810914  0.38718405  0.59403621  1  -1.182982  -0.013873  -0.306339  -0.544401  -0.008625  2.249761  -0.01
O  O74  1  0.70822932  0.56057683  0.82133005  1  -1.125545  0.084139  -0.338234  -0.547549  0.055603  2.293213  0.077
O  O75  1  0.20739261  0.43910177  0.17840948  1  -1.125179  -0.083942  -0.338442  -0.547363  -0.055476  2.291807  -0.077
O  O76  1  0.61522469  0.74312325  0.96880399  1  -1.209439  0.021606  -0.331795  -0.5774  0.013942  2.237639  0.017
O  O77  1  0.11513212  0.25604354  0.03065381  1  -1.213974  -0.021528  -0.331791  -0.577294  -0.01389  2.238766  -0.017
O  O78  1  0.74922613  0.23221432  0.36376430  1  -1.148315  -0.001106  -0.313626  -0.496723  -0.000626  2.112927  -0.001
O  O79  1  0.24936196  0.76761466  0.63620374  1  -1.149278  0.001064  -0.313885  -0.496606  0.000598  2.114079  0.001
O  O80  1  0.76148867  0.05532178  0.82304705  1  -1.046404  8e-05  -0.227741  -0.231327  3.2e-05  2.466277  0.0
O  O81  1  0.26177829  0.94490742  0.17712230  1  -1.046627  -8.4e-05  -0.227593  -0.231362  -3.5e-05  2.465508  0.0
O  O82  1  0.36911752  0.10957081  0.89295705  1  -1.180612  -7e-06  -0.41093  -0.514173  6e-06  2.317396  0.0
O  O83  1  0.86913665  0.89009818  0.10715195  1  -1.177588  4e-06  -0.410364  -0.513931  -7e-06  2.316895  0.0
