# generated using pymatgen
data_MgH8C12O5
_symmetry_space_group_name_H-M   'P 1'
_cell_length_a   6.95706686
_cell_length_b   12.88022962
_cell_length_c   17.31620000
_cell_angle_alpha   90.00000000
_cell_angle_beta   90.96185064
_cell_angle_gamma   90.00000000
_symmetry_Int_Tables_number   1
_chemical_formula_structural   MgH8C12O5
_chemical_formula_sum   'Mg4 H32 C48 O20'
_cell_volume   1551.46212090
_cell_formula_units_Z   4
loop_
 _symmetry_equiv_pos_site_id
 _symmetry_equiv_pos_as_xyz
  1  'x, y, z'
loop_
 _atom_site_type_symbol
 _atom_site_label
 _atom_site_symmetry_multiplicity
 _atom_site_fract_x
 _atom_site_fract_y
 _atom_site_fract_z
 _atom_site_occupancy
 _atom_site_hle17_bader_spin_density
 _atom_site_hle17_ddec_charge
 _atom_site_hle17_ddec_spin_density
 _atom_site_hle17_ddec_sum_bond_order
 _atom_site_hle17_magmom
 _atom_site_hse06_10hf_bader_spin_density
 _atom_site_hse06_10hf_ddec_charge
 _atom_site_hse06_10hf_ddec_spin_density
 _atom_site_hse06_10hf_ddec_sum_bond_order
 _atom_site_hse06_10hf_magmom
 _atom_site_hse06_bader_spin_density
 _atom_site_hse06_ddec_charge
 _atom_site_hse06_ddec_spin_density
 _atom_site_hse06_ddec_sum_bond_order
 _atom_site_hse06_magmom
 _atom_site_pbe_bader_charge
 _atom_site_pbe_bader_spin_density
 _atom_site_pbe_cm5_charge
 _atom_site_pbe_ddec_charge
 _atom_site_pbe_ddec_spin_density
 _atom_site_pbe_ddec_sum_bond_order
 _atom_site_pbe_magmom
Mg  Mg0  1  0.50000240  0.50000040  0.00000192  1  0  1.52272  0  1.129657  0  0  1.412702  0  1.393862  0  0  1.43728  0  1.354148  0  1.689512  0  0.836661  1.395364  0  1.421571  0
Mg  Mg1  1  0.49999953  0.00000078  0.49999844  1  0  1.522609  0  1.129792  0  0  1.412646  0  1.393915  0  0  1.437224  0  1.354201  0  1.689509  0  0.836638  1.395309  0  1.421622  0
Mg  Mg2  1  0.00000000  0.49999885  0.00000058  1  0  1.488494  0  1.157026  0  0  1.379711  0  1.416592  0  0  1.4058  0  1.375568  0  1.681202  0  0.824947  1.361322  0  1.445153  0
Mg  Mg3  1  0.99999906  0.00000388  0.49999976  1  0  1.488477  0  1.157041  0  0  1.379702  0  1.416588  0  0  1.405795  0  1.375556  0  1.681221  0  0.824917  1.361312  0  1.44515  0
H  H4  1  0.73088797  0.35997650  0.94807564  1  0  0.477325  0  0.754072  0  0  0.454882  0  0.807246  0  0  0.463727  0  0.796989  0  0.651101  0  0.361909  0.448447  0  0.814891  0
H  H5  1  0.26909958  0.85997768  0.55192346  1  0  0.477378  0  0.754009  0  0  0.454977  0  0.807113  0  0  0.463821  0  0.796858  0  0.651149  0  0.361969  0.448541  0  0.814762  0
H  H6  1  0.26910677  0.64002353  0.05192524  1  0  0.477322  0  0.754055  0  0  0.454911  0  0.807176  0  0  0.463756  0  0.796918  0  0.651067  0  0.361924  0.448475  0  0.814825  0
H  H7  1  0.73089947  0.14002390  0.44807514  1  0  0.477352  0  0.754001  0  0  0.454949  0  0.807104  0  0  0.463793  0  0.796848  0  0.651076  0  0.36195  0.448513  0  0.814752  0
H  H8  1  0.80429563  0.35296731  0.03550666  1  0  0.476727  0  0.770143  0  0  0.448176  0  0.835603  0  0  0.458132  0  0.823611  0  0.663202  0  0.348176  0.440987  0  0.844362  0
H  H9  1  0.19570631  0.85296616  0.46449196  1  0  0.476743  0  0.7701  0  0  0.448195  0  0.835564  0  0  0.458152  0  0.823571  0  0.66319  0  0.348179  0.441006  0  0.844322  0
H  H10  1  0.19570343  0.64703350  0.96449368  1  0  0.476707  0  0.770182  0  0  0.448123  0  0.835676  0  0  0.458075  0  0.823694  0  0.663201  0  0.348156  0.440935  0  0.844428  0
H  H11  1  0.80429275  0.14703232  0.53550722  1  0  0.47673  0  0.770171  0  0  0.448176  0  0.835639  0  0  0.458132  0  0.823647  0  0.663204  0  0.34817  0.440986  0  0.844397  0
H  H12  1  0.97689555  0.35083070  0.21143598  1  0  0.103853  0  0.932464  0  0  0.114899  0  0.988703  0  0  0.118578  0  0.986746  0  0.071805  0  0.107313  0.112218  0  0.990265  0
H  H13  1  0.02310926  0.85082878  0.28856151  1  0  0.103808  0  0.932463  0  0  0.114885  0  0.98867  0  0  0.118554  0  0.986724  0  0.071719  0  0.107309  0.112207  0  0.99023  0
H  H14  1  0.02311213  0.64916855  0.78856269  1  0  0.1038  0  0.932472  0  0  0.114884  0  0.98867  0  0  0.11854  0  0.986741  0  0.071646  0  0.1073  0.112204  0  0.990233  0
H  H15  1  0.97689842  0.14916892  0.71143889  1  0  0.103867  0  0.932447  0  0  0.11495  0  0.98864  0  0  0.118611  0  0.986706  0  0.071832  0  0.107344  0.112271  0  0.990202  0
H  H16  1  0.98011575  0.24164476  0.33053405  1  0  0.09546  0  0.941423  0  0  0.106599  0  0.998127  0  0  0.110292  0  0.996069  0  0.068767  0  0.102642  0.103948  0  0.999714  0
H  H17  1  0.01988906  0.74163740  0.16946517  1  0  0.095463  0  0.941464  0  0  0.106605  0  0.998168  0  0  0.110296  0  0.996113  0  0.069199  0  0.10265  0.103954  0  0.999753  0
H  H18  1  0.01988618  0.75835682  0.66946457  1  0  0.09543  0  0.941485  0  0  0.106571  0  0.998188  0  0  0.110263  0  0.996131  0  0.069178  0  0.102619  0.10392  0  0.999774  0
H  H19  1  0.98012150  0.25835564  0.83053871  1  0  0.095506  0  0.941403  0  0  0.106641  0  0.998113  0  0  0.110332  0  0.996057  0  0.068878  0  0.102616  0.10399  0  0.999698  0
H  H20  1  0.53726905  0.24889541  0.07450685  1  0  0.091183  0  0.980324  0  0  0.099434  0  1.044865  0  0  0.102933  0  1.042774  0  0.059318  0  0.097242  0.09697  0  1.046352  0
H  H21  1  0.46273288  0.74890280  0.42549467  1  0  0.091204  0  0.980154  0  0  0.099466  0  1.044694  0  0  0.102967  0  1.042601  0  0.059522  0  0.097257  0.097001  0  1.046184  0
H  H22  1  0.46272857  0.75109453  0.92549002  1  0  0.091188  0  0.980293  0  0  0.099417  0  1.044864  0  0  0.102917  0  1.042773  0  0.059605  0  0.09725  0.096952  0  1.046353  0
H  H23  1  0.53727048  0.25110422  0.57450570  1  0  0.091193  0  0.980278  0  0  0.099445  0  1.044824  0  0  0.102944  0  1.042733  0  0.059314  0  0.097248  0.096981  0  1.04631  0
H  H24  1  0.79597198  0.11909493  0.09557919  1  0  0.084559  0  0.939354  0  0  0.097192  0  0.992642  0  0  0.100307  0  0.991491  0  0.040348  0  0.09875  0.09495  0  0.993545  0
H  H25  1  0.20402851  0.61909766  0.40442289  1  0  0.084543  0  0.939304  0  0  0.09719  0  0.992581  0  0  0.100306  0  0.99143  0  0.040219  0  0.098769  0.094952  0  0.993484  0
H  H26  1  0.20402564  0.88089734  0.90441883  1  0  0.084575  0  0.939328  0  0  0.097218  0  0.992613  0  0  0.100333  0  0.991462  0  0.040358  0  0.098798  0.09498  0  0.993514  0
H  H27  1  0.79598061  0.38090237  0.59558329  1  0  0.084522  0  0.939391  0  0  0.097154  0  0.992683  0  0  0.100268  0  0.991533  0  0.040368  0  0.09876  0.094914  0  0.993584  0
H  H28  1  0.79838713  0.00921567  0.21451533  1  0  0.087077  0  0.950919  0  0  0.097873  0  1.009184  0  0  0.100355  0  1.008873  0  0.076866  0  0.098596  0.096125  0  1.009443  0
H  H29  1  0.20161911  0.50921375  0.28548794  1  0  0.087013  0  0.950851  0  0  0.097801  0  1.00914  0  0  0.100283  0  1.008829  0  0.076481  0  0.098577  0.096054  0  1.009398  0
H  H30  1  0.20161336  0.99078358  0.78548559  1  0  0.087035  0  0.950852  0  0  0.097826  0  1.009135  0  0  0.100308  0  1.008824  0  0.076902  0  0.098565  0.096079  0  1.009393  0
H  H31  1  0.79839144  0.49078706  0.71451710  1  0  0.087092  0  0.950834  0  0  0.097875  0  1.009124  0  0  0.100359  0  1.008809  0  0.076585  0  0.098606  0.096127  0  1.009382  0
H  H32  1  0.54637762  0.02931392  0.31096252  1  0  0.11044  0  0.990102  0  0  0.115311  0  1.057728  0  0  0.119055  0  1.055619  0  0.127749  0  0.100381  0.112649  0  1.059255  0
H  H33  1  0.45362144  0.52930733  0.18903608  1  0  0.110463  0  0.990094  0  0  0.115304  0  1.057763  0  0  0.119048  0  1.055654  0  0.127864  0  0.100392  0.112641  0  1.05929  0
H  H34  1  0.45362144  0.97068689  0.68903897  1  0  0.110467  0  0.990042  0  0  0.115275  0  1.057743  0  0  0.119017  0  1.055634  0  0.127774  0  0.100354  0.112613  0  1.05927  0
H  H35  1  0.54637762  0.47069347  0.81096310  1  0  0.110489  0  0.990085  0  0  0.115303  0  1.057782  0  0  0.119048  0  1.055673  0  0.127743  0  0.100402  0.11264  0  1.059309  0
C  C36  1  0.23789094  0.36468682  0.10394731  1  0  0.729751  0  3.846016  0  0  0.6766  0  4.145275  0  0  0.711566  0  4.132783  0  1.586665  0  0.234016  0.652872  0  4.153091  0
C  C37  1  0.76210380  0.86468878  0.39605127  1  0  0.729782  0  3.845999  0  0  0.676555  0  4.1454  0  0  0.711522  0  4.132906  0  1.587153  0  0.233975  0.652827  0  4.153217  0
C  C38  1  0.76211099  0.63531166  0.89605190  1  0  0.72986  0  3.846065  0  0  0.676663  0  4.145416  0  0  0.711631  0  4.132919  0  1.586604  0  0.234044  0.652934  0  4.153235  0
C  C39  1  0.23788951  0.13531591  0.60394730  1  0  0.729743  0  3.846286  0  0  0.676663  0  4.145445  0  0  0.711631  0  4.132954  0  1.586926  0  0.234031  0.652935  0  4.153261  0
C  C40  1  0.24422640  0.10959199  0.38040749  1  0  0.726176  0  3.859213  0  0  0.675989  0  4.154882  0  0  0.710888  0  4.142428  0  1.581485  0  0.230108  0.652319  0  4.162648  0
C  C41  1  0.75577984  0.60958929  0.11959290  1  0  0.726305  0  3.85902  0  0  0.676035  0  4.154812  0  0  0.710938  0  4.14235  0  1.580968  0  0.230131  0.652365  0  4.162577  0
C  C42  1  0.75578272  0.89040804  0.61959234  1  0  0.726182  0  3.859154  0  0  0.676006  0  4.154806  0  0  0.710909  0  4.142343  0  1.581545  0  0.230137  0.652335  0  4.162572  0
C  C43  1  0.24423072  0.39041074  0.88040868  1  0  0.726259  0  3.858825  0  0  0.675978  0  4.154617  0  0  0.710878  0  4.142156  0  1.580855  0  0.230119  0.652309  0  4.162382  0
C  C44  1  0.24299008  0.29056159  0.17042988  1  0  -0.093982  0  3.703578  0  0  -0.080683  0  3.942734  0  0  -0.08706  0  3.963701  0  -0.097548  0  -0.010963  -0.076496  0  3.928564  0
C  C45  1  0.75700898  0.79056122  0.32957046  1  0  -0.094019  0  3.703343  0  0  -0.080686  0  3.942526  0  0  -0.087064  0  3.963491  0  -0.097589  0  -0.010956  -0.0765  0  3.928356  0
C  C46  1  0.75701042  0.70943533  0.82956816  1  0  -0.09396  0  3.70353  0  0  -0.080656  0  3.942766  0  0  -0.087031  0  3.963725  0  -0.097567  0  -0.010903  -0.076469  0  3.928596  0
C  C47  1  0.24298145  0.20944192  0.67042924  1  0  -0.093939  0  3.703538  0  0  -0.080678  0  3.942686  0  0  -0.087054  0  3.963649  0  -0.097575  0  -0.010955  -0.076491  0  3.928517  0
C  C48  1  0.09428434  0.29647996  0.22245938  1  0  -0.074787  0  3.767422  0  0  -0.101462  0  4.027885  0  0  -0.102168  0  4.047722  0  0.019739  0  -0.085987  -0.100871  0  4.014527  0
C  C49  1  0.90571472  0.79647726  0.27754269  1  0  -0.074704  0  3.767218  0  0  -0.101403  0  4.027696  0  0  -0.102097  0  4.047533  0  0.020152  0  -0.085962  -0.100815  0  4.014335  0
C  C50  1  0.90572047  0.70351929  0.77754100  1  0  -0.074754  0  3.767302  0  0  -0.101445  0  4.027772  0  0  -0.102131  0  4.047614  0  0.019875  0  -0.085988  -0.100854  0  4.014413  0
C  C51  1  0.09427859  0.20352743  0.72245761  1  0  -0.07485  0  3.767291  0  0  -0.101551  0  4.027787  0  0  -0.10224  0  4.047627  0  0.02014  0  -0.086055  -0.10096  0  4.014429  0
C  C52  1  0.09663911  0.23534363  0.28955406  1  0  -0.071215  0  3.77676  0  0  -0.097586  0  4.03448  0  0  -0.098448  0  4.054685  0  -0.048102  0  -0.086554  -0.096906  0  4.020847  0
C  C53  1  0.90336857  0.73534093  0.21044576  1  0  -0.071274  0  3.776661  0  0  -0.097658  0  4.034397  0  0  -0.098521  0  4.0546  0  -0.04888  0  -0.086603  -0.096978  0  4.020766  0
C  C54  1  0.90336857  0.76465407  0.71044460  1  0  -0.07124  0  3.776648  0  0  -0.097609  0  4.034387  0  0  -0.098473  0  4.054586  0  -0.048571  0  -0.086569  -0.09693  0  4.020756  0
C  C55  1  0.09663480  0.26465910  0.78955692  1  0  -0.071263  0  3.776583  0  0  -0.097661  0  4.034333  0  0  -0.098522  0  4.05453  0  -0.048554  0  -0.086589  -0.096981  0  4.020702  0
C  C56  1  0.24692620  0.16767248  0.30542310  1  0  -0.095246  0  3.701614  0  0  -0.081719  0  3.938468  0  0  -0.088081  0  3.959466  0  -0.035851  0  -0.011718  -0.077572  0  3.924316  0
C  C57  1  0.75306998  0.66767055  0.19457780  1  0  -0.095289  0  3.701648  0  0  -0.081737  0  3.938505  0  0  -0.088098  0  3.959502  0  -0.036907  0  -0.011694  -0.077591  0  3.924354  0
C  C58  1  0.75307142  0.83232522  0.69457607  1  0  -0.095256  0  3.701535  0  0  -0.08176  0  3.938389  0  0  -0.08812  0  3.959385  0  -0.036859  0  -0.011748  -0.077613  0  3.924238  0
C  C59  1  0.24693051  0.33233103  0.80542544  1  0  -0.095443  0  3.701844  0  0  -0.081843  0  3.938663  0  0  -0.088203  0  3.959658  0  -0.036094  0  -0.01168  -0.077696  0  3.924511  0
C  C60  1  0.39851430  0.15508730  0.25112790  1  0  0.048114  0  3.736355  0  0  0.058822  0  3.960906  0  0  0.058835  0  3.986036  0  0.057593  0  -0.002168  0.058816  0  3.943903  0
C  C61  1  0.60148331  0.65508692  0.24887186  1  0  0.048121  0  3.736334  0  0  0.058856  0  3.960842  0  0  0.058868  0  3.985972  0  0.058467  0  -0.002181  0.05885  0  3.94384  0
C  C62  1  0.60148188  0.84490885  0.74887011  1  0  0.048076  0  3.736301  0  0  0.058847  0  3.9608  0  0  0.058859  0  3.98593  0  0.058491  0  -0.002175  0.058841  0  3.943798  0
C  C63  1  0.39851143  0.34491854  0.75112788  1  0  0.048251  0  3.736379  0  0  0.058948  0  3.960876  0  0  0.05896  0  3.986008  0  0.057481  0  -0.002109  0.058942  0  3.943874  0
C  C64  1  0.39647436  0.21816614  0.18245704  1  0  0.049159  0  3.744846  0  0  0.059468  0  3.968753  0  0  0.059479  0  3.994166  0  -0.002423  0  -0.002063  0.059461  0  3.951556  0
C  C65  1  0.60351894  0.71816654  0.31754384  1  0  0.049246  0  3.744628  0  0  0.059535  0  3.968554  0  0  0.059546  0  3.993968  0  -0.00211  0  -0.002001  0.059528  0  3.951355  0
C  C66  1  0.60352325  0.78182923  0.81754213  1  0  0.049212  0  3.744777  0  0  0.059448  0  3.968782  0  0  0.059459  0  3.994197  0  -0.002336  0  -0.002093  0.059442  0  3.951584  0
C  C67  1  0.39647293  0.28183581  0.68245646  1  0  0.049189  0  3.744637  0  0  0.059521  0  3.968509  0  0  0.059533  0  3.993922  0  -0.001642  0  -0.001993  0.059514  0  3.951311  0
C  C68  1  0.54238830  0.20261285  0.12705809  1  0  -0.123816  0  3.7665  0  0  -0.144176  0  4.017935  0  0  -0.147598  0  4.039747  0  -0.05955  0  -0.098812  -0.141808  0  4.003094  0
C  C69  1  0.45760356  0.70261558  0.37294220  1  0  -0.123822  0  3.766436  0  0  -0.144189  0  4.017906  0  0  -0.147612  0  4.039718  0  -0.059858  0  -0.09877  -0.141819  0  4.003066  0
C  C70  1  0.45760356  0.79738097  0.87293816  1  0  -0.123718  0  3.766546  0  0  -0.144037  0  4.018001  0  0  -0.147459  0  4.039815  0  -0.059189  0  -0.098703  -0.141669  0  4.00316  0
C  C71  1  0.54239262  0.29738678  0.62705986  1  0  -0.123838  0  3.766518  0  0  -0.144215  0  4.017964  0  0  -0.147639  0  4.039776  0  -0.060027  0  -0.098837  -0.141847  0  4.003123  0
C  C72  1  0.68514673  0.12981446  0.13869761  1  0  -0.072949  0  3.820464  0  0  -0.087494  0  4.073456  0  0  -0.089373  0  4.095855  0  -0.042177  0  -0.096831  -0.08609  0  4.058213  0
C  C73  1  0.31485520  0.62981641  0.36130506  1  0  -0.073035  0  3.820326  0  0  -0.087597  0  4.07334  0  0  -0.089475  0  4.095736  0  -0.042051  0  -0.096922  -0.086197  0  4.058101  0
C  C74  1  0.31484657  0.87017936  0.86130154  1  0  -0.073064  0  3.820498  0  0  -0.087628  0  4.073526  0  0  -0.089506  0  4.095924  0  -0.042729  0  -0.096963  -0.086228  0  4.058288  0
C  C75  1  0.68514673  0.37018672  0.63869761  1  0  -0.072876  0  3.820393  0  0  -0.087416  0  4.073388  0  0  -0.089292  0  4.095787  0  -0.04213  0  -0.096832  -0.086014  0  4.058147  0
C  C76  1  0.68684453  0.06773326  0.20592242  1  0  -0.06226  0  3.796963  0  0  -0.075451  0  4.047916  0  0  -0.077717  0  4.070802  0  -0.079001  0  -0.093614  -0.073849  0  4.032378  0
C  C77  1  0.31316603  0.56772823  0.29407915  1  0  -0.062122  0  3.796636  0  0  -0.075301  0  4.047581  0  0  -0.077567  0  4.070467  0  -0.078622  0  -0.093601  -0.0737  0  4.032044  0
C  C78  1  0.31316028  0.93226754  0.79407796  1  0  -0.062254  0  3.796955  0  0  -0.075442  0  4.047895  0  0  -0.077708  0  4.070783  0  -0.078912  0  -0.093613  -0.07384  0  4.032359  0
C  C79  1  0.68684309  0.43227102  0.70592183  1  0  -0.06231  0  3.796851  0  0  -0.075492  0  4.047793  0  0  -0.07776  0  4.070683  0  -0.078822  0  -0.093626  -0.07389  0  4.032256  0
C  C80  1  0.54622523  0.07936815  0.26040768  1  0  -0.120816  0  3.73125  0  0  -0.142191  0  3.982069  0  0  -0.14518  0  4.002842  0  -0.048652  0  -0.096995  -0.140116  0  3.968023  0
C  C81  1  0.45378101  0.57936312  0.23959329  1  0  -0.120867  0  3.731254  0  0  -0.142229  0  3.982064  0  0  -0.145218  0  4.002838  0  -0.048731  0  -0.097004  -0.140152  0  3.968016  0
C  C82  1  0.45377239  0.92063033  0.73959265  1  0  -0.120785  0  3.731384  0  0  -0.142113  0  3.982177  0  0  -0.1451  0  4.002951  0  -0.048807  0  -0.096929  -0.140038  0  3.96813  0
C  C83  1  0.54622092  0.42063924  0.76040592  1  0  -0.120899  0  3.731372  0  0  -0.142236  0  3.982208  0  0  -0.145226  0  4.002984  0  -0.048647  0  -0.097095  -0.14016  0  3.968161  0
O  O84  1  0.07542603  0.38044120  0.07065457  1  0  -0.755905  0  2.027902  0  0  -0.698227  0  2.265471  0  0  -0.722353  0  2.250846  0  -1.245345  0  -0.368699  -0.68133  0  2.275091  0
O  O85  1  0.92457015  0.88044393  0.42934402  1  0  -0.755917  0  2.027887  0  0  -0.698213  0  2.265496  0  0  -0.722341  0  2.250874  0  -1.245813  0  -0.368675  -0.681315  0  2.275115  0
O  O86  1  0.92457446  0.61955961  0.92934751  1  0  -0.755966  0  2.027946  0  0  -0.698269  0  2.265543  0  0  -0.722392  0  2.250914  0  -1.245382  0  -0.368726  -0.681371  0  2.275163  0
O  O87  1  0.07541884  0.11956076  0.57065626  1  0  -0.755908  0  2.027886  0  0  -0.698258  0  2.26543  0  0  -0.722384  0  2.250802  0  -1.245383  0  -0.368705  -0.681359  0  2.275049  0
O  O88  1  0.39173319  0.41127994  0.08623941  1  0  -0.729946  0  2.028359  0  0  -0.674759  0  2.270426  0  0  -0.698118  0  2.25693  0  -1.239491  0  -0.353239  -0.658457  0  2.279263  0
O  O89  1  0.60826299  0.91128655  0.41375282  1  0  -0.729939  0  2.028392  0  0  -0.674775  0  2.270549  0  0  -0.698133  0  2.257048  0  -1.239467  0  -0.353254  -0.658473  0  2.279388  0
O  O90  1  0.60827018  0.58871544  0.91375633  1  0  -0.730008  0  2.028407  0  0  -0.67481  0  2.270515  0  0  -0.698169  0  2.257015  0  -1.239371  0  -0.353236  -0.658508  0  2.279353  0
O  O91  1  0.39172744  0.08872202  0.58623938  1  0  -0.729928  0  2.028596  0  0  -0.674758  0  2.270582  0  0  -0.698115  0  2.257085  0  -1.239676  0  -0.35325  -0.658456  0  2.279419  0
O  O92  1  0.08242566  0.07720670  0.40356985  1  0  -0.73579  0  1.994127  0  0  -0.683394  0  2.229983  0  0  -0.707034  0  2.216556  0  -1.24629  0  -0.366861  -0.666856  0  2.238727  0
O  O93  1  0.91756334  0.57720011  0.09643158  1  0  -0.735745  0  1.994254  0  0  -0.683309  0  2.230128  0  0  -0.706948  0  2.216702  0  -1.24627  0  -0.366849  -0.666775  0  2.238872  0
O  O94  1  0.91757627  0.92279644  0.59643167  1  0  -0.735714  0  1.99419  0  0  -0.68331  0  2.230021  0  0  -0.706951  0  2.216595  0  -1.246377  0  -0.366822  -0.666774  0  2.238765  0
O  O95  1  0.08244147  0.42280069  0.90357053  1  0  -0.735768  0  1.993972  0  0  -0.683331  0  2.229846  0  0  -0.706971  0  2.216421  0  -1.2462  0  -0.366911  -0.666796  0  2.23859  0
O  O96  1  0.40272932  0.09727699  0.41713154  1  0  -0.751216  0  2.029982  0  0  -0.695917  0  2.269041  0  0  -0.719097  0  2.254297  0  -1.246908  0  -0.369305  -0.679682  0  2.278757  0
O  O97  1  0.59726255  0.59727740  0.08286702  1  0  -0.751392  0  2.029735  0  0  -0.696049  0  2.268848  0  0  -0.719236  0  2.254104  0  -1.246421  0  -0.369358  -0.679811  0  2.278561  0
O  O98  1  0.59727405  0.90272459  0.58286652  1  0  -0.75128  0  2.029845  0  0  -0.695989  0  2.268904  0  0  -0.719172  0  2.254158  0  -1.246897  0  -0.369325  -0.679752  0  2.278622  0
O  O99  1  0.40274082  0.40272263  0.91713393  1  0  -0.751262  0  2.029705  0  0  -0.695918  0  2.268818  0  0  -0.719102  0  2.254074  0  -1.24638  0  -0.36928  -0.679682  0  2.278533  0
O  O100  1  0.74813618  0.39935002  0.99594321  1  0  -0.897467  0  1.903317  0  0  -0.838364  0  2.109813  0  0  -0.853433  0  2.078678  0  -1.298666  0  -0.566117  -0.828044  0  2.131906  0
O  O101  1  0.25185569  0.89935198  0.50405650  1  0  -0.897505  0  1.903215  0  0  -0.83844  0  2.109634  0  0  -0.853511  0  2.078492  0  -1.298696  0  -0.566164  -0.828121  0  2.131727  0
O  O102  1  0.25186288  0.60064923  0.00405713  1  0  -0.897436  0  1.903286  0  0  -0.838325  0  2.109853  0  0  -0.853394  0  2.078716  0  -1.298634  0  -0.56612  -0.828006  0  2.131946  0
O  O103  1  0.74813618  0.10064960  0.49594321  1  0  -0.897498  0  1.903302  0  0  -0.83844  0  2.109761  0  0  -0.85351  0  2.07862  0  -1.29863  0  -0.566145  -0.828121  0  2.131856  0
