# generated using pymatgen
data_GaH8C4(ClO)2
_symmetry_space_group_name_H-M   'P 1'
_cell_length_a   8.17881022
_cell_length_b   8.22771924
_cell_length_c   11.19856810
_cell_angle_alpha   89.99997006
_cell_angle_beta   89.99992951
_cell_angle_gamma   89.99989462
_symmetry_Int_Tables_number   1
_chemical_formula_structural   GaH8C4(ClO)2
_chemical_formula_sum   'Ga4 H32 C16 Cl8 O8'
_cell_volume   753.58473020
_cell_formula_units_Z   4
loop_
 _symmetry_equiv_pos_site_id
 _symmetry_equiv_pos_as_xyz
  1  'x, y, z'
loop_
 _atom_site_type_symbol
 _atom_site_label
 _atom_site_symmetry_multiplicity
 _atom_site_fract_x
 _atom_site_fract_y
 _atom_site_fract_z
 _atom_site_occupancy
 _atom_site_hle17_bader_spin_density
 _atom_site_hle17_ddec_charge
 _atom_site_hle17_ddec_spin_density
 _atom_site_hle17_ddec_sum_bond_order
 _atom_site_hle17_magmom
 _atom_site_hse06_10hf_bader_spin_density
 _atom_site_hse06_10hf_ddec_charge
 _atom_site_hse06_10hf_ddec_spin_density
 _atom_site_hse06_10hf_ddec_sum_bond_order
 _atom_site_hse06_10hf_magmom
 _atom_site_hse06_bader_spin_density
 _atom_site_hse06_ddec_charge
 _atom_site_hse06_ddec_spin_density
 _atom_site_hse06_ddec_sum_bond_order
 _atom_site_hse06_magmom
 _atom_site_pbe_bader_spin_density
 _atom_site_pbe_cm5_charge
 _atom_site_pbe_ddec_charge
 _atom_site_pbe_ddec_spin_density
 _atom_site_pbe_ddec_sum_bond_order
 _atom_site_pbe_magmom
Ga  Ga0  1  0.10259639  0.25000106  0.25000151  1  0  0.722194  0  2.618727  0  0  0.583154  0  3.089505  0  0  0.617766  0  3.063509  0  0  0.263557  0.558745  0  3.108105  0
Ga  Ga1  1  0.39740210  0.24999957  0.24999959  1  0  0.722221  0  2.618719  0  0  0.5832  0  3.089477  0  0  0.617811  0  3.063484  0  0  0.263552  0.55878  0  3.108092  0
Ga  Ga2  1  0.89740304  0.75000020  0.74999891  1  0  0.722147  0  2.618828  0  0  0.583099  0  3.089625  0  0  0.617713  0  3.063626  0  0  0.263515  0.558685  0  3.108226  0
Ga  Ga3  1  0.60259733  0.74999925  0.75000083  1  0  0.722214  0  2.618758  0  0  0.583181  0  3.089538  0  0  0.617792  0  3.06354  0  0  0.263549  0.55876  0  3.108153  0
H  H4  1  0.15377946  0.61488338  0.33758583  1  0  0.063582  0  0.937562  0  0  0.077926  0  1.004305  0  0  0.077897  0  1.004336  0  0  0.103739  0.077862  0  1.004378  0
H  H5  1  0.34622163  0.88511484  0.33758569  1  0  0.06359  0  0.937531  0  0  0.077921  0  1.004277  0  0  0.077895  0  1.004307  0  0  0.103733  0.077851  0  1.004353  0
H  H6  1  0.15377936  0.88511508  0.16241428  1  0  0.063595  0  0.937521  0  0  0.077919  0  1.004278  0  0  0.077899  0  1.00431  0  0  0.103741  0.077854  0  1.004346  0
H  H7  1  0.34622080  0.61488449  0.16241424  1  0  0.063573  0  0.937583  0  0  0.077897  0  1.004321  0  0  0.077873  0  1.004352  0  0  0.103731  0.077831  0  1.004398  0
H  H8  1  0.84621997  0.38511544  0.66241370  1  0  0.063572  0  0.937558  0  0  0.07791  0  1.004304  0  0  0.077886  0  1.004334  0  0  0.103733  0.077845  0  1.004377  0
H  H9  1  0.65377903  0.11488520  0.66241384  1  0  0.063605  0  0.937522  0  0  0.077931  0  1.004273  0  0  0.077909  0  1.004307  0  0  0.103747  0.077862  0  1.00435  0
H  H10  1  0.84622130  0.11488860  0.83758436  1  0  0.063612  0  0.937422  0  0  0.077969  0  1.004141  0  0  0.077947  0  1.004172  0  0  0.103782  0.077904  0  1.004215  0
H  H11  1  0.65377985  0.38511555  0.83758529  1  0  0.063574  0  0.9375  0  0  0.077927  0  1.004243  0  0  0.077898  0  1.004272  0  0  0.103764  0.077857  0  1.004317  0
H  H12  1  0.20686651  0.61826210  0.49363611  1  0  0.066449  0  0.947431  0  0  0.076947  0  1.019599  0  0  0.077757  0  1.018769  0  0  0.096956  0.076253  0  1.020378  0
H  H13  1  0.29313432  0.88173601  0.49363692  1  0  0.066454  0  0.947435  0  0  0.076932  0  1.019636  0  0  0.077751  0  1.018797  0  0  0.09695  0.076231  0  1.020419  0
H  H14  1  0.20686668  0.88173626  0.00636394  1  0  0.06644  0  0.947431  0  0  0.076932  0  1.019599  0  0  0.07775  0  1.018774  0  0  0.096949  0.076232  0  1.020382  0
H  H15  1  0.29313375  0.61826341  0.00636306  1  0  0.066418  0  0.947451  0  0  0.076899  0  1.019634  0  0  0.077715  0  1.018806  0  0  0.096946  0.076203  0  1.020416  0
H  H16  1  0.79313292  0.38173550  0.50636341  1  0  0.066449  0  0.947418  0  0  0.076931  0  1.01962  0  0  0.077748  0  1.018785  0  0  0.096957  0.076233  0  1.020402  0
H  H17  1  0.70686512  0.11826403  0.50636261  1  0  0.066439  0  0.947437  0  0  0.076916  0  1.019639  0  0  0.077737  0  1.018803  0  0  0.096949  0.07621  0  1.020432  0
H  H18  1  0.79313642  0.11826377  0.99363648  1  0  0.066463  0  0.947425  0  0  0.076949  0  1.019608  0  0  0.077766  0  1.01878  0  0  0.096951  0.07625  0  1.02039  0
H  H19  1  0.70686691  0.38173541  0.99363646  1  0  0.066439  0  0.947424  0  0  0.076942  0  1.019594  0  0  0.077754  0  1.018763  0  0  0.096947  0.076239  0  1.020377  0
H  H20  1  0.14077022  0.38434432  0.61262551  1  0  0.069157  0  0.9345  0  0  0.07997  0  1.003728  0  0  0.080918  0  1.002667  0  0  0.095652  0.079218  0  1.004617  0
H  H21  1  0.35922767  0.11565483  0.61262457  1  0  0.069178  0  0.934468  0  0  0.079992  0  1.003699  0  0  0.08094  0  1.002637  0  0  0.09565  0.079236  0  1.004592  0
H  H22  1  0.14077390  0.11565494  0.88737586  1  0  0.069131  0  0.934501  0  0  0.079941  0  1.00375  0  0  0.080889  0  1.002689  0  0  0.095637  0.079189  0  1.004643  0
H  H23  1  0.35922841  0.38434524  0.88737571  1  0  0.06915  0  0.934495  0  0  0.079958  0  1.003741  0  0  0.080907  0  1.00268  0  0  0.095644  0.079201  0  1.004635  0
H  H24  1  0.85922799  0.61565329  0.38737491  1  0  0.069157  0  0.934462  0  0  0.079971  0  1.003698  0  0  0.080916  0  1.002636  0  0  0.095661  0.07922  0  1.004587  0
H  H25  1  0.64077176  0.88434520  0.38737496  1  0  0.069143  0  0.934496  0  0  0.079958  0  1.003734  0  0  0.080906  0  1.002674  0  0  0.095637  0.079204  0  1.004627  0
H  H26  1  0.85923042  0.88434510  0.11262366  1  0  0.069184  0  0.934474  0  0  0.079994  0  1.00371  0  0  0.080943  0  1.002649  0  0  0.09565  0.079237  0  1.004602  0
H  H27  1  0.64077102  0.61565359  0.11262381  1  0  0.069152  0  0.934497  0  0  0.079955  0  1.003743  0  0  0.080903  0  1.002681  0  0  0.095649  0.079201  0  1.004634  0
H  H28  1  0.04312909  0.21533040  0.53907332  1  0  0.078912  0  0.96581  0  0  0.09112  0  1.032984  0  0  0.091656  0  1.032713  0  0  0.09638  0.090634  0  1.033352  0
H  H29  1  0.45686769  0.28466880  0.53907223  1  0  0.07893  0  0.96578  0  0  0.091142  0  1.032956  0  0  0.091678  0  1.032686  0  0  0.096379  0.090652  0  1.033326  0
H  H30  1  0.04313357  0.28466903  0.96092903  1  0  0.078872  0  0.96587  0  0  0.091117  0  1.033004  0  0  0.091654  0  1.032737  0  0  0.096378  0.090631  0  1.033373  0
H  H31  1  0.45686985  0.21533109  0.96092796  1  0  0.078919  0  0.965801  0  0  0.091127  0  1.032972  0  0  0.091664  0  1.032706  0  0  0.096382  0.09064  0  1.033337  0
H  H32  1  0.95687034  0.78466721  0.46092710  1  0  0.078887  0  0.965835  0  0  0.091096  0  1.033013  0  0  0.091631  0  1.032743  0  0  0.096365  0.090611  0  1.033382  0
H  H33  1  0.54313174  0.71533124  0.46092730  1  0  0.078905  0  0.965847  0  0  0.091138  0  1.032984  0  0  0.091675  0  1.032716  0  0  0.09639  0.090649  0  1.033354  0
H  H34  1  0.95687076  0.71533101  0.03907139  1  0  0.078941  0  0.965777  0  0  0.091155  0  1.03294  0  0  0.091692  0  1.032673  0  0  0.096396  0.090666  0  1.03331  0
H  H35  1  0.54313081  0.78466895  0.03907246  1  0  0.078924  0  0.965805  0  0  0.091133  0  1.032974  0  0  0.091668  0  1.032705  0  0  0.096389  0.090647  0  1.033341  0
C  C36  1  0.11492658  0.57951879  0.42768398  1  0  0.047815  0  3.628325  0  0  -0.015818  0  3.895169  0  0  -0.008976  0  3.901237  0  0  -0.075588  -0.02041  0  3.890975  0
C  C37  1  0.38507314  0.92047816  0.42768558  1  0  0.047868  0  3.628187  0  0  -0.015773  0  3.895068  0  0  -0.008942  0  3.901154  0  0  -0.075565  -0.020356  0  3.890867  0
C  C38  1  0.11492778  0.92047853  0.07231527  1  0  0.047903  0  3.628119  0  0  -0.015696  0  3.894933  0  0  -0.008891  0  3.901052  0  0  -0.075553  -0.020285  0  3.890731  0
C  C39  1  0.38507375  0.57952110  0.07231700  1  0  0.047833  0  3.628379  0  0  -0.015736  0  3.895119  0  0  -0.008914  0  3.901218  0  0  -0.075582  -0.020328  0  3.89093  0
C  C40  1  0.88507285  0.42047882  0.57231644  1  0  0.047881  0  3.628211  0  0  -0.01575  0  3.895046  0  0  -0.008922  0  3.901143  0  0  -0.075581  -0.020336  0  3.890849  0
C  C41  1  0.61492752  0.07952188  0.57231484  1  0  0.047899  0  3.628119  0  0  -0.015698  0  3.894923  0  0  -0.008888  0  3.901037  0  0  -0.075543  -0.02028  0  3.890722  0
C  C42  1  0.88507409  0.07952394  0.92768605  1  0  0.047831  0  3.628038  0  0  -0.015817  0  3.894912  0  0  -0.009  0  3.90101  0  0  -0.075607  -0.020406  0  3.890717  0
C  C43  1  0.61492690  0.42047894  0.92768432  1  0  0.047835  0  3.628178  0  0  -0.015822  0  3.895068  0  0  -0.008978  0  3.901137  0  0  -0.07562  -0.0204  0  3.890861  0
C  C44  1  0.05086970  0.34804761  0.54439808  1  0  0.043581  0  3.602568  0  0  -0.018234  0  3.864332  0  0  -0.011522  0  3.869466  0  0  -0.079868  -0.022795  0  3.860865  0
C  C45  1  0.44912830  0.15194916  0.54439794  1  0  0.043477  0  3.60255  0  0  -0.01835  0  3.864313  0  0  -0.01163  0  3.869443  0  0  -0.079921  -0.022906  0  3.860843  0
C  C46  1  0.05087321  0.15195302  0.95560158  1  0  0.043641  0  3.602651  0  0  -0.018194  0  3.864387  0  0  -0.011478  0  3.869516  0  0  -0.079867  -0.022758  0  3.860925  0
C  C47  1  0.44912899  0.34804832  0.95560226  1  0  0.043586  0  3.602533  0  0  -0.018225  0  3.86431  0  0  -0.011519  0  3.869439  0  0  -0.079858  -0.022785  0  3.86084  0
C  C48  1  0.94912973  0.65195121  0.45560144  1  0  0.043606  0  3.602546  0  0  -0.018205  0  3.864312  0  0  -0.011486  0  3.869419  0  0  -0.079892  -0.022767  0  3.860848  0
C  C49  1  0.55087113  0.84804845  0.45560159  1  0  0.043596  0  3.602631  0  0  -0.018231  0  3.864379  0  0  -0.01152  0  3.86951  0  0  -0.079859  -0.022791  0  3.860915  0
C  C50  1  0.94912989  0.84805066  0.04439705  1  0  0.043509  0  3.602514  0  0  -0.018331  0  3.864305  0  0  -0.011616  0  3.869444  0  0  -0.079913  -0.022887  0  3.860834  0
C  C51  1  0.55087044  0.65195172  0.04439816  1  0  0.043591  0  3.602591  0  0  -0.018225  0  3.864327  0  0  -0.01151  0  3.869459  0  0  -0.079861  -0.022788  0  3.860865  0
Cl  Cl52  1  0.95184471  0.05985156  0.33558889  1  0  -0.400484  0  1.088954  0  0  -0.350142  0  1.361863  0  0  -0.362155  0  1.345864  0  0  -0.163039  -0.341607  0  1.372987  0
Cl  Cl53  1  0.54815361  0.44014809  0.33558811  1  0  -0.400503  0  1.088968  0  0  -0.350165  0  1.361865  0  0  -0.362178  0  1.345865  0  0  -0.163043  -0.341627  0  1.372995  0
Cl  Cl54  1  0.95184450  0.44014900  0.16441247  1  0  -0.400485  0  1.088961  0  0  -0.350153  0  1.361867  0  0  -0.362165  0  1.345868  0  0  -0.163047  -0.341616  0  1.372988  0
Cl  Cl55  1  0.54815533  0.05985078  0.16441183  1  0  -0.40052  0  1.088976  0  0  -0.35018  0  1.361867  0  0  -0.362191  0  1.345866  0  0  -0.163058  -0.341644  0  1.372989  0
Cl  Cl56  1  0.04815350  0.94014969  0.66441063  1  0  -0.400495  0  1.08901  0  0  -0.350144  0  1.361906  0  0  -0.362164  0  1.345921  0  0  -0.163047  -0.341608  0  1.373026  0
Cl  Cl57  1  0.45184582  0.55985073  0.66441142  1  0  -0.400498  0  1.088953  0  0  -0.350163  0  1.361852  0  0  -0.362177  0  1.345858  0  0  -0.163049  -0.341629  0  1.372977  0
Cl  Cl58  1  0.04815615  0.55985104  0.83558795  1  0  -0.400479  0  1.088971  0  0  -0.350144  0  1.361883  0  0  -0.362157  0  1.345885  0  0  -0.163044  -0.341611  0  1.373  0
Cl  Cl59  1  0.45184532  0.94014926  0.83558859  1  0  -0.400495  0  1.088966  0  0  -0.350155  0  1.361863  0  0  -0.362169  0  1.345871  0  0  -0.163041  -0.341621  0  1.372988  0
O  O60  1  0.10790616  0.40387838  0.42914938  1  0  -0.330105  0  2.347956  0  0  -0.233329  0  2.588807  0  0  -0.254439  0  2.594885  0  0  -0.205973  -0.218505  0  2.584287  0
O  O61  1  0.39209203  0.09612090  0.42914842  1  0  -0.330116  0  2.347842  0  0  -0.23334  0  2.588686  0  0  -0.254452  0  2.594774  0  0  -0.205979  -0.218509  0  2.584145  0
O  O62  1  0.10790674  0.09612007  0.07085096  1  0  -0.330187  0  2.347858  0  0  -0.233418  0  2.588714  0  0  -0.254519  0  2.594804  0  0  -0.206012  -0.21859  0  2.584186  0
O  O63  1  0.39209327  0.40387947  0.07085077  1  0  -0.330106  0  2.347978  0  0  -0.233345  0  2.588794  0  0  -0.254454  0  2.594888  0  0  -0.205998  -0.218523  0  2.584276  0
O  O64  1  0.89209327  0.59612044  0.57085014  1  0  -0.330129  0  2.34789  0  0  -0.233351  0  2.588737  0  0  -0.254465  0  2.594828  0  0  -0.205968  -0.218524  0  2.584213  0
O  O65  1  0.60790740  0.90387914  0.57085111  1  0  -0.330181  0  2.347862  0  0  -0.233414  0  2.588713  0  0  -0.254515  0  2.594797  0  0  -0.206037  -0.218589  0  2.584188  0
O  O66  1  0.89209635  0.90388118  0.92914679  1  0  -0.330155  0  2.347792  0  0  -0.233378  0  2.588644  0  0  -0.254484  0  2.594738  0  0  -0.205984  -0.21855  0  2.584112  0
O  O67  1  0.60790616  0.59612057  0.92914876  1  0  -0.330084  0  2.347929  0  0  -0.233319  0  2.588799  0  0  -0.254428  0  2.594874  0  0  -0.205986  -0.218495  0  2.584272  0
