# generated using pymatgen
data_AlH8C13NO7
_symmetry_space_group_name_H-M   'P 1'
_cell_length_a   6.80918168
_cell_length_b   11.20121816
_cell_length_c   17.85125253
_cell_angle_alpha   78.25123764
_cell_angle_beta   76.23822811
_cell_angle_gamma   71.06944608
_symmetry_Int_Tables_number   1
_chemical_formula_structural   AlH8C13NO7
_chemical_formula_sum   'Al2 H16 C26 N2 O14'
_cell_volume   1239.01837706
_cell_formula_units_Z   2
loop_
 _symmetry_equiv_pos_site_id
 _symmetry_equiv_pos_as_xyz
  1  'x, y, z'
loop_
 _atom_site_type_symbol
 _atom_site_label
 _atom_site_symmetry_multiplicity
 _atom_site_fract_x
 _atom_site_fract_y
 _atom_site_fract_z
 _atom_site_occupancy
 _atom_site_pbe_bader_charge
 _atom_site_pbe_bader_spin_density
 _atom_site_pbe_cm5_charge
 _atom_site_pbe_ddec_charge
 _atom_site_pbe_ddec_spin_density
 _atom_site_pbe_ddec_sum_bond_order
 _atom_site_pbe_magmom
Al  Al0  1  0.50246913  0.50086787  0.50052792  1  2.50723  0  0.404886  1.643142  0  2.547634  0
Al  Al1  1  0.00284755  0.50068350  0.49985255  1  2.508041  0  0.399103  1.649095  0  2.543028  0
H  H2  1  0.22076682  0.64444380  0.43271196  1  0.620665  0  0.336313  0.416232  0  0.887245  0
H  H3  1  0.78618561  0.35631538  0.56707986  1  0.626116  0  0.336292  0.416944  0  0.886039  0
H  H4  1  0.77643174  0.11487924  0.47149067  1  0.189944  0  0.120702  0.127164  0  1.084551  0
H  H5  1  0.23103557  0.88683255  0.52781901  1  0.197499  0  0.120556  0.126784  0  1.083795  0
H  H6  1  0.54935364  0.58256809  0.27174319  1  0.098573  0  0.111694  0.120792  0  0.990397  0
H  H7  1  0.60984068  0.58236065  0.12794894  1  0.039573  0  0.105934  0.109468  0  0.994698  0
H  H8  1  0.21590123  0.41915618  0.26748985  1  0.099857  0  0.109133  0.119481  0  0.996405  0
H  H9  1  0.78420909  0.58025039  0.73068608  1  0.086373  0  0.109223  0.11945  0  0.994779  0
H  H10  1  0.44848352  0.41710813  0.73148339  1  0.070344  0  0.110882  0.119303  0  0.990741  0
H  H11  1  0.37876664  0.41542705  0.87575425  1  0.043876  0  0.106223  0.109842  0  0.99527  0
H  H12  1  0.45797623  0.36215844  0.15034403  1  0.052558  0  0.094253  0.132154  0  0.998866  0
H  H13  1  0.34750590  0.31351684  0.08463154  1  0.055978  0  0.096958  0.136252  0  0.983272  0
H  H14  1  0.38819048  0.46509919  0.06451658  1  0.021119  0  0.090905  0.124083  0  1.012887  0
H  H15  1  0.59967688  0.53166828  0.93250402  1  0.037775  0  0.091607  0.124957  0  1.011938  0
H  H16  1  0.63984439  0.68322254  0.91477083  1  0.06975  0  0.096628  0.135656  0  0.984158  0
H  H17  1  0.53555825  0.63610764  0.84652538  1  0.028329  0  0.094068  0.132235  0  0.997999  0
C  C18  1  0.84107805  0.50687395  0.36265279  1  1.571961  0  0.269224  0.648159  0  4.080197  0
C  C19  1  0.62259780  0.72474819  0.50470521  1  1.634328  0  0.278435  0.65077  0  4.081168  0
C  C20  1  0.16234595  0.49452037  0.63773661  1  1.581656  0  0.269322  0.648858  0  4.076312  0
C  C21  1  0.38389671  0.27683064  0.49530307  1  1.626625  0  0.278287  0.64987  0  4.080769  0
C  C22  1  0.56145291  0.86608803  0.50497006  1  0.075223  0  0.010002  -0.047184  0  3.908649  0
C  C23  1  0.44588063  0.13560982  0.49446630  1  0.019216  0  0.010612  -0.04604  0  3.908333  0
C  C24  1  0.71144123  0.93268264  0.49018911  1  0.175343  0  0.093345  0.063631  0  3.936597  0
C  C25  1  0.29602209  0.06899107  0.50903161  1  0.157781  0  0.09285  0.063034  0  3.939657  0
C  C26  1  0.65791041  0.06423844  0.48404303  1  0.070548  0  -0.067646  -0.126867  0  3.921658  0
C  C27  1  0.34951199  0.93748613  0.51523664  1  0.049612  0  -0.067441  -0.125692  0  3.923058  0
C  C28  1  0.87976784  0.50223661  0.27754481  1  -0.056843  0  -0.015555  -0.040315  0  3.995038  0
C  C29  1  0.70777801  0.54681181  0.23862431  1  -0.038158  0  -0.084334  -0.098418  0  4.00465  0
C  C30  1  0.74167176  0.54586014  0.15906238  1  0.000849  0  -0.083766  -0.125424  0  3.984157  0
C  C31  1  0.94760497  0.49773207  0.11695368  1  0.100826  0  0.000569  0.07698  0  4.080177  0
C  C32  1  0.12245021  0.44933527  0.15623065  1  0.052345  0  0.001006  0.132466  0  3.921966  0
C  C33  1  0.08462782  0.45420301  0.23602385  1  -0.058183  0  -0.081271  -0.152879  0  3.936076  0
C  C34  1  0.97885615  0.49826992  0.03580022  1  -0.546364  0  -0.038851  -0.096421  0  4.126238  0
C  C35  1  0.00688394  0.49927377  0.96547589  1  0.126114  0  -0.039148  -0.096722  0  4.12554  0
C  C36  1  0.04181827  0.50017734  0.88415266  1  0.071646  0  0.00074  0.078608  0  4.079927  0
C  C37  1  0.87002130  0.54885669  0.84336727  1  0.011666  0  0.001527  0.132003  0  3.92566  0
C  C38  1  0.91293383  0.54506978  0.76336409  1  -0.008353  0  -0.081254  -0.152835  0  3.933863  0
C  C39  1  0.11965273  0.49785905  0.72308758  1  -0.075313  0  -0.015741  -0.039886  0  3.993682  0
C  C40  1  0.28857172  0.45252265  0.76353003  1  0.072594  0  -0.082965  -0.09619  0  4.001153  0
C  C41  1  0.24958165  0.45236799  0.84335800  1  -0.015755  0  -0.084411  -0.127836  0  3.981298  0
C  C42  1  0.34094174  0.39456284  0.11211833  1  -0.051253  0  -0.235605  -0.410837  0  3.984334  0
C  C43  1  0.64940900  0.60288711  0.88602266  1  -0.060192  0  -0.235865  -0.410965  0  3.983959  0
N  N44  1  0.93586461  0.86264764  0.48814932  1  0.39367  0  0.059841  0.514995  0  4.22173  0
N  N45  1  0.07153334  0.13884084  0.51100430  1  0.400502  0  0.061091  0.51668  0  4.222931  0
O  O46  1  0.64781617  0.53349369  0.39740258  1  -1.276641  0  -0.241442  -0.610968  0  2.362773  0
O  O47  1  0.82010369  0.67071365  0.48847962  1  -1.251378  0  -0.225215  -0.592767  0  2.414316  0
O  O48  1  0.00486266  0.51462798  0.60507703  1  -1.258007  0  -0.237035  -0.591906  0  2.33444  0
O  O49  1  0.53007451  0.32883826  0.48335905  1  -1.229525  0  -0.218655  -0.55371  0  2.331716  0
O  O50  1  0.35627040  0.46894876  0.60370635  1  -1.272792  0  -0.241319  -0.610311  0  2.354867  0
O  O51  1  0.18617997  0.33061603  0.51104230  1  -1.256141  0  -0.225211  -0.59202  0  2.412391  0
O  O52  1  0.00010980  0.48671449  0.39450629  1  -1.252456  0  -0.237377  -0.591396  0  2.329626  0
O  O53  1  0.47601104  0.67281885  0.51761946  1  -1.230058  0  -0.218869  -0.554211  0  2.330167  0
O  O54  1  0.24265779  0.56170139  0.46478810  1  -1.42499  0  -0.451921  -0.988494  0  2.159887  0
O  O55  1  0.76306092  0.43959510  0.53559466  1  -1.43055  0  -0.451656  -0.98796  0  2.157613  0
O  O56  1  0.98587370  0.81980228  0.55271423  1  -0.430775  0  -0.088466  -0.274797  0  1.953199  0
O  O57  1  0.05814431  0.85783324  0.42450161  1  -0.449778  0  -0.110738  -0.309487  0  1.891888  0
O  O58  1  0.94903657  0.14333895  0.57460263  1  -0.446244  0  -0.111207  -0.310621  0  1.893807  0
O  O59  1  0.02156359  0.18172603  0.44643492  1  -0.426353  0  -0.089247  -0.275928  0  1.954805  0
