# generated using pymatgen
data_LaH15(C11O5)2
_symmetry_space_group_name_H-M   'P 1'
_cell_length_a   8.78214916
_cell_length_b   9.95399634
_cell_length_c   13.04858730
_cell_angle_alpha   108.29291273
_cell_angle_beta   104.44400819
_cell_angle_gamma   93.64351561
_symmetry_Int_Tables_number   1
_chemical_formula_structural   LaH15(C11O5)2
_chemical_formula_sum   'La2 H30 C44 O20'
_cell_volume   1036.24266501
_cell_formula_units_Z   2
loop_
 _symmetry_equiv_pos_site_id
 _symmetry_equiv_pos_as_xyz
  1  'x, y, z'
loop_
 _atom_site_type_symbol
 _atom_site_label
 _atom_site_symmetry_multiplicity
 _atom_site_fract_x
 _atom_site_fract_y
 _atom_site_fract_z
 _atom_site_occupancy
 _atom_site_hle17_bader_spin_density
 _atom_site_hle17_ddec_charge
 _atom_site_hle17_ddec_spin_density
 _atom_site_hle17_ddec_sum_bond_order
 _atom_site_hle17_magmom
 _atom_site_hse06_10hf_bader_spin_density
 _atom_site_hse06_10hf_ddec_charge
 _atom_site_hse06_10hf_ddec_spin_density
 _atom_site_hse06_10hf_ddec_sum_bond_order
 _atom_site_hse06_10hf_magmom
 _atom_site_hse06_bader_spin_density
 _atom_site_hse06_ddec_charge
 _atom_site_hse06_ddec_spin_density
 _atom_site_hse06_ddec_sum_bond_order
 _atom_site_hse06_magmom
 _atom_site_pbe_bader_spin_density
 _atom_site_pbe_cm5_charge
 _atom_site_pbe_ddec_charge
 _atom_site_pbe_ddec_spin_density
 _atom_site_pbe_ddec_sum_bond_order
 _atom_site_pbe_magmom
La  La0  1  0.12223571  0.79619744  0.07937283  1  0  2.167509  0  1.749359  0  0  2.058188  0  2.269036  0  0  2.157181  0  2.166186  0  0  1.414815  1.982177  0  2.343181  0
La  La1  1  0.87776056  0.20380102  0.92062776  1  0  2.167548  0  1.749276  0  0  2.058225  0  2.268924  0  0  2.157216  0  2.166079  0  0  1.414817  1.982208  0  2.343049  0
H  H2  1  0.31913674  0.89502031  0.93675508  1  0  0.430599  0  0.834293  0  0  0.406803  0  0.899846  0  0  0.415841  0  0.886706  0  0  0.321751  0.400374  0  0.909197  0
H  H3  1  0.68086169  0.10497704  0.06324486  1  0  0.430562  0  0.834319  0  0  0.406766  0  0.899895  0  0  0.415805  0  0.886755  0  0  0.321738  0.400332  0  0.909254  0
H  H4  1  0.43394460  0.80463902  0.98574219  1  0  0.431054  0  0.810848  0  0  0.419845  0  0.8562  0  0  0.42766  0  0.848189  0  0  0.336805  0.414144  0  0.862113  0
H  H5  1  0.56605382  0.19535835  0.01425852  1  0  0.431068  0  0.810803  0  0  0.419856  0  0.856161  0  0  0.427671  0  0.84815  0  0  0.336814  0.414157  0  0.862074  0
H  H6  1  0.22224198  0.94829264  0.38812214  1  0  0.403603  0  0.903361  0  0  0.368507  0  0.983846  0  0  0.38284  0  0.964015  0  0  0.30174  0.358502  0  0.996983  0
H  H7  1  0.77776059  0.05170779  0.61187385  1  0  0.403585  0  0.903365  0  0  0.368473  0  0.983891  0  0  0.382808  0  0.964059  0  0  0.301722  0.358475  0  0.996991  0
H  H8  1  0.23272079  0.53621645  0.88858938  1  0  0.41973  0  0.853167  0  0  0.399677  0  0.912142  0  0  0.407961  0  0.900528  0  0  0.311101  0.393649  0  0.920586  0
H  H9  1  0.76727568  0.46378308  0.11141149  1  0  0.41971  0  0.853224  0  0  0.399657  0  0.91218  0  0  0.40794  0  0.900567  0  0  0.311092  0.393625  0  0.920633  0
H  H10  1  0.18873825  0.49005328  0.98418253  1  0  0.427235  0  0.877722  0  0  0.393905  0  0.94703  0  0  0.40587  0  0.929623  0  0  0.300322  0.385291  0  0.95951  0
H  H11  1  0.81126076  0.50994729  0.01581901  1  0  0.427187  0  0.877769  0  0  0.393871  0  0.947065  0  0  0.405836  0  0.929658  0  0  0.300317  0.385258  0  0.959545  0
H  H12  1  0.81526838  0.81551792  0.62291107  1  0  0.113071  0  0.967018  0  0  0.12037  0  1.032191  0  0  0.124098  0  1.03042  0  0  0.110357  0.117552  0  1.033695  0
H  H13  1  0.18473415  0.18448264  0.37709184  1  0  0.113075  0  0.966975  0  0  0.120379  0  1.032156  0  0  0.124103  0  1.030385  0  0  0.110339  0.117562  0  1.033662  0
H  H14  1  0.95527942  0.76193463  0.47588792  1  0  0.108808  0  0.961442  0  0  0.115563  0  1.028747  0  0  0.119084  0  1.026792  0  0  0.10552  0.113028  0  1.030278  0
H  H15  1  0.04471962  0.23807231  0.52411126  1  0  0.108819  0  0.961449  0  0  0.115536  0  1.028782  0  0  0.119056  0  1.02683  0  0  0.105526  0.113  0  1.030314  0
H  H16  1  0.50951431  0.47337731  0.33943853  1  0  0.093715  0  0.967768  0  0  0.103338  0  1.031393  0  0  0.105125  0  1.032511  0  0  0.099838  0.101981  0  1.030763  0
H  H17  1  0.49049252  0.52662110  0.66056693  1  0  0.09375  0  0.967793  0  0  0.103363  0  1.031418  0  0  0.105148  0  1.032531  0  0  0.099829  0.102004  0  1.030786  0
H  H18  1  0.77606703  0.33478928  0.65399446  1  0  0.117162  0  0.962131  0  0  0.122139  0  1.03045  0  0  0.126165  0  1.027772  0  0  0.11178  0.119178  0  1.03242  0
H  H19  1  0.22394237  0.66521006  0.34600476  1  0  0.117041  0  0.962266  0  0  0.122044  0  1.030564  0  0  0.126071  0  1.027885  0  0  0.111726  0.119083  0  1.032543  0
H  H20  1  0.67212393  0.69279533  0.13972792  1  0  0.096676  0  0.944368  0  0  0.108162  0  1.002418  0  0  0.111929  0  0.998969  0  0  0.107156  0.105382  0  1.004944  0
H  H21  1  0.32786647  0.30720318  0.86027167  1  0  0.09672  0  0.944342  0  0  0.108201  0  1.002388  0  0  0.11197  0  0.998936  0  0  0.107162  0.105416  0  1.004916  0
H  H22  1  0.83644950  0.12620123  0.22097552  1  0  0.093136  0  0.989618  0  0  0.10355  0  1.049805  0  0  0.106702  0  1.048375  0  0  0.100478  0.10115  0  1.051196  0
H  H23  1  0.16354837  0.87379929  0.77902198  1  0  0.093124  0  0.989552  0  0  0.103533  0  1.049749  0  0  0.106687  0  1.048316  0  0  0.100473  0.101126  0  1.051156  0
H  H24  1  0.51779162  0.23355921  0.49396842  1  0  0.107212  0  0.953054  0  0  0.114579  0  1.020165  0  0  0.1175  0  1.018852  0  0  0.106539  0.112463  0  1.021054  0
H  H25  1  0.48221679  0.76644127  0.50603472  1  0  0.107302  0  0.952956  0  0  0.114643  0  1.020103  0  0  0.117564  0  1.018788  0  0  0.106578  0.112532  0  1.020993  0
H  H26  1  0.61056299  0.94504532  0.20176503  1  0  0.096253  0  0.959585  0  0  0.10416  0  1.026583  0  0  0.107303  0  1.0243  0  0  0.105578  0.101619  0  1.029004  0
H  H27  1  0.38943487  0.05495519  0.79823170  1  0  0.096219  0  0.95965  0  0  0.104165  0  1.026594  0  0  0.107307  0  1.024313  0  0  0.105581  0.101622  0  1.029011  0
H  H28  1  0.89005402  0.36576950  0.36878695  1  0  0.090033  0  0.964203  0  0  0.098687  0  1.030117  0  0  0.100449  0  1.031172  0  0  0.098453  0.097569  0  1.029209  0
H  H29  1  0.10994541  0.63423314  0.63121054  1  0  0.090041  0  0.964217  0  0  0.098724  0  1.030089  0  0  0.100484  0  1.031149  0  0  0.09848  0.097607  0  1.029177  0
H  H30  1  0.46596016  0.52728169  0.16196952  1  0  0.097155  0  0.950751  0  0  0.108025  0  1.008122  0  0  0.111  0  1.006854  0  0  0.10187  0.10581  0  1.009312  0
H  H31  1  0.53403903  0.47271359  0.83803467  1  0  0.09713  0  0.950743  0  0  0.108012  0  1.0081  0  0  0.110986  0  1.006833  0  0  0.101892  0.105793  0  1.009292  0
C  C32  1  0.73513845  0.61435058  0.42107255  1  0  0.043195  0  3.783042  0  0  0.063541  0  4.014464  0  0  0.061484  0  4.037926  0  0  -0.006805  0.06481  0  3.998769  0
C  C33  1  0.26486428  0.38565105  0.57893064  1  0  0.043189  0  3.783174  0  0  0.063588  0  4.014481  0  0  0.061532  0  4.037941  0  0  -0.006816  0.064848  0  3.998792  0
C  C34  1  0.83199977  0.55985710  0.74557583  1  0  -0.086139  0  3.728179  0  0  -0.073902  0  3.965228  0  0  -0.080665  0  3.98565  0  0  -0.014965  -0.069752  0  3.952208  0
C  C35  1  0.16800239  0.44014126  0.25442345  1  0  -0.086253  0  3.728168  0  0  -0.074043  0  3.965242  0  0  -0.080813  0  3.985658  0  0  -0.015006  -0.069902  0  3.952244  0
C  C36  1  0.80785097  0.70914116  0.62946696  1  0  -0.11906  0  3.701682  0  0  -0.150184  0  3.957405  0  0  -0.153139  0  3.976865  0  0  -0.080903  -0.147893  0  3.944483  0
C  C37  1  0.19215392  0.29085934  0.37053481  1  0  -0.119067  0  3.701648  0  0  -0.150205  0  3.957368  0  0  -0.153163  0  3.976819  0  0  -0.08088  -0.147913  0  3.944449  0
C  C38  1  0.84725680  0.70934485  0.40796990  1  0  -0.087855  0  3.665695  0  0  -0.119381  0  3.906097  0  0  -0.11881  0  3.925137  0  0  -0.074791  -0.120356  0  3.893657  0
C  C39  1  0.15273968  0.29066110  0.59203168  1  0  -0.087869  0  3.66574  0  0  -0.119389  0  3.906071  0  0  -0.118819  0  3.925108  0  0  -0.074794  -0.120365  0  3.893633  0
C  C40  1  0.86173924  0.52846291  0.85340402  1  0  0.681848  0  3.881607  0  0  0.635126  0  4.176266  0  0  0.670991  0  4.16825  0  0  0.228761  0.61033  0  4.180968  0
C  C41  1  0.13826449  0.47153758  0.14659601  1  0  0.681962  0  3.881596  0  0  0.635277  0  4.176203  0  0  0.671141  0  4.168185  0  0  0.228807  0.610484  0  4.18092  0
C  C42  1  0.76377737  0.58957111  0.53015187  1  0  0.030023  0  3.729364  0  0  0.037224  0  3.966971  0  0  0.038533  0  3.988907  0  0  0.004482  0.036331  0  3.952374  0
C  C43  1  0.23622655  0.41043046  0.46984921  1  0  0.030003  0  3.729362  0  0  0.037222  0  3.96694  0  0  0.038528  0  3.988873  0  0  0.004444  0.036335  0  3.952345  0
C  C44  1  0.90001027  0.83553520  0.83434928  1  0  0.716622  0  3.868339  0  0  0.669081  0  4.16979  0  0  0.706387  0  4.157871  0  0  0.239019  0.643182  0  4.17714  0
C  C45  1  0.09998580  0.16446223  0.16565334  1  0  0.716738  0  3.868131  0  0  0.669138  0  4.169686  0  0  0.706444  0  4.15776  0  0  0.239047  0.643242  0  4.177041  0
C  C46  1  0.70787518  0.31618068  0.44191263  1  0  0.045151  0  3.787473  0  0  0.064919  0  4.020292  0  0  0.062534  0  4.044128  0  0  -0.005556  0.066917  0  4.004142  0
C  C47  1  0.29212991  0.68382088  0.55808865  1  0  0.045224  0  3.787524  0  0  0.065042  0  4.020305  0  0  0.062656  0  4.044139  0  0  -0.005569  0.067035  0  4.004167  0
C  C48  1  0.59848237  0.54705356  0.33063571  1  0  -0.090727  0  3.71691  0  0  -0.114482  0  3.963413  0  0  -0.1151  0  3.984657  0  0  -0.082258  -0.113371  0  3.949177  0
C  C49  1  0.40151996  0.45294594  0.66936769  1  0  -0.09093  0  3.716864  0  0  -0.114696  0  3.963355  0  0  -0.11531  0  3.984601  0  0  -0.082336  -0.113583  0  3.949112  0
C  C50  1  0.54870227  0.08000167  0.34509878  1  0  -0.068337  0  3.757539  0  0  -0.043324  0  3.989313  0  0  -0.052744  0  4.011719  0  0  -0.012747  -0.036624  0  3.973998  0
C  C51  1  0.45130164  0.91999989  0.65490153  1  0  -0.068378  0  3.75764  0  0  -0.04326  0  3.989247  0  0  -0.052677  0  4.011649  0  0  -0.012767  -0.036548  0  3.973924  0
C  C52  1  0.78403632  0.44063415  0.64647000  1  0  -0.099239  0  3.701561  0  0  -0.131406  0  3.957553  0  0  -0.131609  0  3.976296  0  0  -0.07646  -0.13096  0  3.945104  0
C  C53  1  0.21596858  0.55936632  0.35353023  1  0  -0.098947  0  3.701437  0  0  -0.131099  0  3.957396  0  0  -0.131307  0  3.976138  0  0  -0.076336  -0.130654  0  3.944962  0
C  C54  1  0.84253587  0.69747716  0.73663867  1  0  -0.053292  0  3.701768  0  0  -0.040064  0  3.935691  0  0  -0.042779  0  3.953537  0  0  -0.004598  -0.038522  0  3.924449  0
C  C55  1  0.15746530  0.30252231  0.26336222  1  0  -0.053335  0  3.701744  0  0  -0.040081  0  3.935683  0  0  -0.042776  0  3.953497  0  0  -0.004592  -0.038529  0  3.924443  0
C  C56  1  0.82672375  0.73570213  0.30658975  1  0  -0.067889  0  3.755199  0  0  -0.043829  0  3.987239  0  0  -0.052459  0  4.010695  0  0  -0.016589  -0.038239  0  3.972331  0
C  C57  1  0.17326783  0.26430281  0.69341153  1  0  -0.067853  0  3.755157  0  0  -0.043724  0  3.987087  0  0  -0.052353  0  4.010545  0  0  -0.016516  -0.038132  0  3.972167  0
C  C58  1  0.40903557  0.97656918  0.33007563  1  0  0.697792  0  3.797755  0  0  0.644337  0  4.095224  0  0  0.681761  0  4.083582  0  0  0.247113  0.618653  0  4.102173  0
C  C59  1  0.59096954  0.02343231  0.66992180  1  0  0.697588  0  3.798074  0  0  0.644147  0  4.095467  0  0  0.68157  0  4.083828  0  0  0.247066  0.61844  0  4.102427  0
C  C60  1  0.68847013  0.67012616  0.21793695  1  0  -0.085928  0  3.763099  0  0  -0.110125  0  4.01154  0  0  -0.108712  0  4.029788  0  0  -0.084528  -0.110416  0  3.999447  0
C  C61  1  0.31152203  0.32987557  0.78206445  1  0  -0.086074  0  3.763178  0  0  -0.110294  0  4.011619  0  0  -0.108882  0  4.029867  0  0  -0.084616  -0.110583  0  3.999517  0
C  C62  1  0.76211192  0.15148857  0.27790518  1  0  -0.096069  0  3.782278  0  0  -0.10525  0  4.032622  0  0  -0.109537  0  4.053652  0  0  -0.097464  -0.103099  0  4.019518  0
C  C63  1  0.23788770  0.84851514  0.72209259  1  0  -0.096016  0  3.782226  0  0  -0.105203  0  4.032599  0  0  -0.109489  0  4.053629  0  0  -0.097447  -0.103045  0  4.019482  0
C  C64  1  0.75008069  0.45176789  0.53919750  1  0  0.01796  0  3.736707  0  0  0.025871  0  3.974085  0  0  0.025193  0  3.996757  0  0  -0.001478  0.025869  0  3.959182  0
C  C65  1  0.24992656  0.54823257  0.46080314  1  0  0.017902  0  3.736669  0  0  0.025746  0  3.974108  0  0  0.025077  0  3.996768  0  0  -0.001474  0.02575  0  3.959208  0
C  C66  1  0.58616985  0.21184820  0.43304994  1  0  -0.082723  0  3.660241  0  0  -0.1175  0  3.906943  0  0  -0.116127  0  3.925899  0  0  -0.071947  -0.118202  0  3.893503  0
C  C67  1  0.41383309  0.78815444  0.56695045  1  0  -0.082877  0  3.660328  0  0  -0.117694  0  3.906993  0  0  -0.116322  0  3.925948  0  0  -0.072005  -0.118406  0  3.893569  0
C  C68  1  0.63855167  0.04912499  0.26815287  1  0  -0.046213  0  3.713303  0  0  -0.07539  0  3.961256  0  0  -0.073451  0  3.980694  0  0  -0.076736  -0.077151  0  3.949602  0
C  C69  1  0.36144873  0.95087659  0.73184608  1  0  -0.04614  0  3.713401  0  0  -0.075386  0  3.961327  0  0  -0.073448  0  3.980764  0  0  -0.076728  -0.077146  0  3.949657  0
C  C70  1  0.79407909  0.28566949  0.36221615  1  0  -0.082087  0  3.717713  0  0  -0.105389  0  3.964678  0  0  -0.105443  0  3.985273  0  0  -0.079712  -0.1053  0  3.951219  0
C  C71  1  0.20592249  0.71433208  0.63778300  1  0  -0.082113  0  3.717709  0  0  -0.105449  0  3.964655  0  0  -0.105504  0  3.985253  0  0  -0.079728  -0.105361  0  3.951192  0
C  C72  1  0.95826155  0.82819166  0.29455078  1  0  0.686872  0  3.86443  0  0  0.635486  0  4.166771  0  0  0.671215  0  4.158448  0  0  0.23011  0.61092  0  4.171961  0
C  C73  1  0.04173280  0.17180242  0.70544235  1  0  0.687128  0  3.864182  0  0  0.635681  0  4.166554  0  0  0.671412  0  4.158227  0  0  0.230172  0.611115  0  4.171727  0
C  C74  1  0.57451523  0.57658731  0.23047906  1  0  -0.077294  0  3.769888  0  0  -0.088463  0  4.023063  0  0  -0.09181  0  4.043535  0  0  -0.092753  -0.0866  0  4.009341  0
C  C75  1  0.42548357  0.42341224  0.76952451  1  0  -0.077108  0  3.769687  0  0  -0.088287  0  4.022842  0  0  -0.091633  0  4.043313  0  0  -0.0927  -0.086425  0  4.009107  0
O  O76  1  0.03277230  0.84675867  0.90735366  1  0  -0.751631  0  2.047305  0  0  -0.708399  0  2.313275  0  0  -0.743038  0  2.301471  0  0  -0.41097  -0.682558  0  2.320236  0
O  O77  1  0.96722809  0.15324294  0.09264683  1  0  -0.751655  0  2.047245  0  0  -0.708399  0  2.313245  0  0  -0.743037  0  2.301434  0  0  -0.410952  -0.68256  0  2.320215  0
O  O78  1  0.88008728  0.40094925  0.84652279  1  0  -0.692676  0  2.073271  0  0  -0.644849  0  2.334788  0  0  -0.677798  0  2.326724  0  0  -0.385898  -0.620727  0  2.339591  0
O  O79  1  0.11991271  0.59905024  0.15347867  1  0  -0.692707  0  2.073295  0  0  -0.644901  0  2.334814  0  0  -0.677849  0  2.326747  0  0  -0.385926  -0.620782  0  2.339634  0
O  O80  1  0.86315526  0.62561082  0.94613916  1  0  -0.719008  0  1.987588  0  0  -0.665529  0  2.224399  0  0  -0.696176  0  2.212151  0  0  -0.365312  -0.643117  0  2.232071  0
O  O81  1  0.13684474  0.37438865  0.05386077  1  0  -0.719064  0  1.987593  0  0  -0.665592  0  2.224383  0  0  -0.69624  0  2.212136  0  0  -0.365308  -0.643176  0  2.232061  0
O  O82  1  0.94546635  0.84419988  0.19924194  1  0  -0.716328  0  1.961792  0  0  -0.673978  0  2.221423  0  0  -0.707127  0  2.209985  0  0  -0.408639  -0.649764  0  2.228663  0
O  O83  1  0.05452174  0.15579855  0.80075111  1  0  -0.716518  0  1.96161  0  0  -0.674151  0  2.221235  0  0  -0.707297  0  2.209794  0  0  -0.40872  -0.649942  0  2.228469  0
O  O84  1  0.36428804  0.87459723  0.00565446  1  0  -0.822933  0  1.818946  0  0  -0.784837  0  1.994823  0  0  -0.805736  0  1.968425  0  0  -0.581179  -0.769548  0  2.013207  0
O  O85  1  0.63571020  0.12539905  0.99434520  1  0  -0.822915  0  1.818917  0  0  -0.78482  0  1.994805  0  0  -0.805717  0  1.968409  0  0  -0.581186  -0.76953  0  2.013197  0
O  O86  1  0.33822895  0.01230108  0.40917621  1  0  -0.546236  0  2.121549  0  0  -0.4902  0  2.34441  0  0  -0.514616  0  2.327469  0  0  -0.303368  -0.473124  0  2.354797  0
O  O87  1  0.66177321  0.98769727  0.59082230  1  0  -0.546134  0  2.121704  0  0  -0.490082  0  2.344524  0  0  -0.514498  0  2.327586  0  0  -0.303323  -0.473014  0  2.354897  0
O  O88  1  0.82007399  0.93651644  0.83461587  1  0  -0.67141  0  1.999159  0  0  -0.630244  0  2.251153  0  0  -0.662615  0  2.241344  0  0  -0.361874  -0.606131  0  2.256828  0
O  O89  1  0.17991698  0.06347894  0.16538770  1  0  -0.671449  0  1.999136  0  0  -0.630282  0  2.251205  0  0  -0.662637  0  2.241348  0  0  -0.361922  -0.606171  0  2.256888  0
O  O90  1  0.36108809  0.86481287  0.24455461  1  0  -0.674859  0  1.993233  0  0  -0.629178  0  2.247206  0  0  -0.661157  0  2.237292  0  0  -0.373183  -0.605811  0  2.253274  0
O  O91  1  0.63891466  0.13518867  0.75544397  1  0  -0.674771  0  1.993334  0  0  -0.629116  0  2.247294  0  0  -0.661093  0  2.237381  0  0  -0.373164  -0.605735  0  2.25335  0
O  O92  1  0.22730807  0.57430823  0.96598619  1  0  -0.889555  0  1.86629  0  0  -0.843962  0  2.049575  0  0  -0.868114  0  2.017478  0  0  -0.617088  -0.826009  0  2.072296  0
O  O93  1  0.77268860  0.42569237  0.03401496  1  0  -0.8895  0  1.866357  0  0  -0.843913  0  2.049559  0  0  -0.868065  0  2.017464  0  0  -0.617071  -0.825956  0  2.072284  0
O  O94  1  0.07698426  0.88140661  0.38119486  1  0  -0.58492  0  2.017866  0  0  -0.531226  0  2.240714  0  0  -0.556068  0  2.228516  0  0  -0.29578  -0.5136  0  2.248148  0
O  O95  1  0.92301011  0.11859384  0.61879666  1  0  -0.58495  0  2.01785  0  0  -0.531216  0  2.240698  0  0  -0.55606  0  2.228507  0  0  -0.295749  -0.513598  0  2.248112  0
