# generated using pymatgen
data_NaH16(C3N)4
_symmetry_space_group_name_H-M   'P 1'
_cell_length_a   8.26304461
_cell_length_b   8.26343481
_cell_length_c   10.32906126
_cell_angle_alpha   73.80913520
_cell_angle_beta   73.79612842
_cell_angle_gamma   72.32355824
_symmetry_Int_Tables_number   1
_chemical_formula_structural   NaH16(C3N)4
_chemical_formula_sum   'Na2 H32 C24 N8'
_cell_volume   630.59784283
_cell_formula_units_Z   2
loop_
 _symmetry_equiv_pos_site_id
 _symmetry_equiv_pos_as_xyz
  1  'x, y, z'
loop_
 _atom_site_type_symbol
 _atom_site_label
 _atom_site_symmetry_multiplicity
 _atom_site_fract_x
 _atom_site_fract_y
 _atom_site_fract_z
 _atom_site_occupancy
 _atom_site_pbe_bader_spin_density
 _atom_site_pbe_cm5_charge
 _atom_site_pbe_ddec_charge
 _atom_site_pbe_ddec_spin_density
 _atom_site_pbe_ddec_sum_bond_order
 _atom_site_pbe_magmom
Na  Na0  1  0.11384633  0.88610408  0.24998063  1  0  0.64936  0.723902  0  0.658427  0
Na  Na1  1  0.88617656  0.11391672  0.74998861  1  0  0.649345  0.723893  0  0.658437  0
H  H2  1  0.67967641  0.10584601  0.28445658  1  0  0.10048  0.062766  0  1.018027  0
H  H3  1  0.89413596  0.32033739  0.21549423  1  0  0.100462  0.062892  0  1.017475  0
H  H4  1  0.32032054  0.89412254  0.71554756  1  0  0.100431  0.062728  0  1.017996  0
H  H5  1  0.10583393  0.67959845  0.78454650  1  0  0.10043  0.062883  0  1.017573  0
H  H6  1  0.43170917  0.15646688  0.18096337  1  0  0.096161  0.101437  0  1.046433  0
H  H7  1  0.84352525  0.56831243  0.31902998  1  0  0.09622  0.101431  0  1.046464  0
H  H8  1  0.56829147  0.84347696  0.81904547  1  0  0.096187  0.101435  0  1.046422  0
H  H9  1  0.15644420  0.43167025  0.68096360  1  0  0.096215  0.101418  0  1.04638  0
H  H10  1  0.76119687  0.79408518  0.92138168  1  0  0.094057  0.092337  0  1.080587  0
H  H11  1  0.20588216  0.23875208  0.57861520  1  0  0.094001  0.092472  0  1.080363  0
H  H12  1  0.23884634  0.20591492  0.07859345  1  0  0.09403  0.092419  0  1.080302  0
H  H13  1  0.79406884  0.76128909  0.42141493  1  0  0.094008  0.092419  0  1.080235  0
H  H14  1  0.99260347  0.76207985  0.03593172  1  0  0.104336  0.063585  0  1.030813  0
H  H15  1  0.23795420  0.00732435  0.46402787  1  0  0.104335  0.063724  0  1.030463  0
H  H16  1  0.00742601  0.23790975  0.96406432  1  0  0.104362  0.063465  0  1.030941  0
H  H17  1  0.76201503  0.99268442  0.53603834  1  0  0.104369  0.063761  0  1.030402  0
H  H18  1  0.46048233  0.80008483  0.31874399  1  0  0.275456  0.25649  0  1.003513  0
H  H19  1  0.19997759  0.53942597  0.18124369  1  0  0.275637  0.256823  0  1.003461  0
H  H20  1  0.53951693  0.19993972  0.68124711  1  0  0.275516  0.25652  0  1.003273  0
H  H21  1  0.80002969  0.46058170  0.81873875  1  0  0.275612  0.256797  0  1.003421  0
H  H22  1  0.33740268  0.71701955  0.46277051  1  0  0.277119  0.25116  0  1.017533  0
H  H23  1  0.28302027  0.66254404  0.03720313  1  0  0.277172  0.25143  0  1.017157  0
H  H24  1  0.66257981  0.28301660  0.53722175  1  0  0.277173  0.251245  0  1.017369  0
H  H25  1  0.71700491  0.33743251  0.96277646  1  0  0.277142  0.251258  0  1.017253  0
H  H26  1  0.35081333  0.47316555  0.39232692  1  0  0.098365  0.07092  0  1.015475  0
H  H27  1  0.52680164  0.64916597  0.10768381  1  0  0.098301  0.070766  0  1.015534  0
H  H28  1  0.64916058  0.52687966  0.60766524  1  0  0.098393  0.070957  0  1.015375  0
H  H29  1  0.47320480  0.35082999  0.89231401  1  0  0.098316  0.070794  0  1.015484  0
H  H30  1  0.56916267  0.49073755  0.34587180  1  0  0.083024  0.03638  0  1.032622  0
H  H31  1  0.50924477  0.43079773  0.15416327  1  0  0.083051  0.036362  0  1.032562  0
H  H32  1  0.43081055  0.50928032  0.65413727  1  0  0.082982  0.036286  0  1.032651  0
H  H33  1  0.49075856  0.56919561  0.84585133  1  0  0.083078  0.036349  0  1.032651  0
C  C34  1  0.69369711  0.04001572  0.20200343  1  0  0.00919  0.053077  0  4.101373  0
C  C35  1  0.95997976  0.30632887  0.29794814  1  0  0.009046  0.052766  0  4.100745  0
C  C36  1  0.30630547  0.95995548  0.79799886  1  0  0.009139  0.052933  0  4.101236  0
C  C37  1  0.04001398  0.69364748  0.70206853  1  0  0.009158  0.052839  0  4.100949  0
C  C38  1  0.55384122  0.06946961  0.14247783  1  0  -0.110031  -0.216631  0  4.01348  0
C  C39  1  0.93052473  0.44618302  0.35748852  1  0  -0.110193  -0.216635  0  4.013275  0
C  C40  1  0.44617418  0.93051078  0.85750792  1  0  -0.11006  -0.216468  0  4.013336  0
C  C41  1  0.06947286  0.55381808  0.64250045  1  0  -0.11019  -0.216604  0  4.013274  0
C  C42  1  0.73437423  0.86745198  0.00090666  1  0  -0.121184  -0.243615  0  4.048915  0
C  C43  1  0.13255212  0.26560904  0.49906206  1  0  -0.121436  -0.24425  0  4.047873  0
C  C44  1  0.26565654  0.13253242  0.99908154  1  0  -0.121357  -0.243916  0  4.048412  0
C  C45  1  0.86743480  0.73442454  0.50094528  1  0  -0.121338  -0.243934  0  4.04789  0
C  C46  1  0.86607952  0.84909477  0.06569697  1  0  0.013647  0.071279  0  4.093951  0
C  C47  1  0.15093823  0.13388480  0.43426125  1  0  0.01381  0.071428  0  4.093137  0
C  C48  1  0.13394985  0.15090525  0.93428901  1  0  0.013686  0.071526  0  4.094001  0
C  C49  1  0.84907180  0.86613203  0.56575531  1  0  0.013719  0.071194  0  4.093346  0
C  C50  1  0.56902520  0.98527000  0.03419878  1  0  -0.028999  0.051909  0  4.038044  0
C  C51  1  0.01472985  0.43098946  0.46577164  1  0  -0.028887  0.051962  0  4.03656  0
C  C52  1  0.43100278  0.01471048  0.96578317  1  0  -0.028938  0.051841  0  4.037836  0
C  C53  1  0.98525744  0.56903761  0.53421674  1  0  -0.029026  0.051849  0  4.037121  0
C  C54  1  0.43762925  0.55526880  0.32535418  1  0  -0.081256  0.01386  0  3.945503  0
C  C55  1  0.44472284  0.56233894  0.17465549  1  0  -0.081105  0.014226  0  3.945011  0
C  C56  1  0.56235296  0.44476345  0.67464192  1  0  -0.081112  0.014073  0  3.945377  0
C  C57  1  0.55527914  0.43766480  0.82534257  1  0  -0.081082  0.014288  0  3.945  0
N  N58  1  0.85282844  0.93312203  0.16564712  1  0  -0.439129  -0.392993  0  3.416232  0
N  N59  1  0.06687759  0.14721122  0.33431175  1  0  -0.438758  -0.392894  0  3.415909  0
N  N60  1  0.14718184  0.06686875  0.83435004  1  0  -0.439012  -0.392923  0  3.416323  0
N  N61  1  0.93311298  0.85276773  0.66572635  1  0  -0.438802  -0.392941  0  3.416384  0
N  N62  1  0.36922217  0.72861326  0.35828801  1  0  -0.69594  -0.633789  0  3.273138  0
N  N63  1  0.27138414  0.63073172  0.14169731  1  0  -0.696266  -0.634522  0  3.272756  0
N  N64  1  0.63076693  0.27142163  0.64170306  1  0  -0.696146  -0.634054  0  3.273054  0
N  N65  1  0.72862790  0.36927208  0.85828396  1  0  -0.696278  -0.634381  0  3.272858  0
