# generated using pymatgen
data_FeH7(C2O)3
_symmetry_space_group_name_H-M   'P 1'
_cell_length_a   6.80844121
_cell_length_b   15.33081089
_cell_length_c   15.33935397
_cell_angle_alpha   117.98274068
_cell_angle_beta   97.74070584
_cell_angle_gamma   99.52164023
_symmetry_Int_Tables_number   1
_chemical_formula_structural   FeH7(C2O)3
_chemical_formula_sum   'Fe6 H42 C36 O18'
_cell_volume   1352.37263054
_cell_formula_units_Z   6
loop_
 _symmetry_equiv_pos_site_id
 _symmetry_equiv_pos_as_xyz
  1  'x, y, z'
loop_
 _atom_site_type_symbol
 _atom_site_label
 _atom_site_symmetry_multiplicity
 _atom_site_fract_x
 _atom_site_fract_y
 _atom_site_fract_z
 _atom_site_occupancy
 _atom_site_pbe_bader_charge
 _atom_site_pbe_bader_spin_density
 _atom_site_pbe_cm5_charge
 _atom_site_pbe_ddec_charge
 _atom_site_pbe_ddec_spin_density
 _atom_site_pbe_ddec_sum_bond_order
 _atom_site_pbe_magmom
Fe  Fe0  1  0.49273864  0.26980039  0.59033055  1  1.365864  -3.59104  0.679072  0.922728  -3.771246  2.548504  -3.541
Fe  Fe1  1  0.21077861  0.32343531  0.73494452  1  1.386816  3.569077  0.684111  0.958575  3.756709  2.477241  3.526
Fe  Fe2  1  0.87176687  0.39729550  0.67072254  1  1.374386  -3.589874  0.68639  0.936486  -3.770265  2.594946  -3.542
Fe  Fe3  1  0.51826757  0.73292422  0.40999187  1  1.382445  3.579364  0.679206  0.939662  3.766155  2.500587  3.535
Fe  Fe4  1  0.79191623  0.67769448  0.26545933  1  1.389874  -3.572323  0.687017  0.958713  -3.753446  2.491741  -3.529
Fe  Fe5  1  0.11571131  0.59221588  0.32265849  1  1.374288  3.573745  0.680839  0.943708  3.759837  2.515419  3.527
H  H6  1  0.18225028  0.55494318  0.53495925  1  0.126207  -0.000276  0.113084  0.136304  -0.000112  1.002154  0.0
H  H7  1  0.62804725  0.97502109  0.44180322  1  0.090733  -0.000508  0.11243  0.136011  -0.000208  1.004914  0.0
H  H8  1  0.64901608  0.46710154  0.02426384  1  0.094225  0.0006  0.112707  0.13577  0.000185  1.006807  0.0
H  H9  1  0.81673163  0.44684630  0.46528467  1  0.102316  7.9e-05  0.113751  0.136666  8e-05  1.002281  0.0
H  H10  1  0.37269512  0.02466043  0.55830771  1  0.140857  0.000483  0.112268  0.136211  0.000129  1.005394  0.0
H  H11  1  0.35021608  0.53388511  0.97560432  1  0.093839  -0.000472  0.112032  0.135131  -0.000159  1.008188  0.0
H  H12  1  0.91916878  0.70895249  0.82335252  1  0.028478  -0.001556  0.086786  0.110539  -0.000308  0.995938  -0.001
H  H13  1  0.20758718  0.11462789  0.29166040  1  0.01414  -0.001844  0.088192  0.113383  -0.000375  0.993788  -0.001
H  H14  1  0.09200078  0.17691391  0.88469914  1  0.024094  0.002167  0.088258  0.114233  0.000491  0.991894  0.001
H  H15  1  0.08036272  0.29137838  0.17685720  1  0.007592  0.002064  0.08815  0.113042  0.000473  0.993846  0.001
H  H16  1  0.79366496  0.88594800  0.70927993  1  0.035983  0.001667  0.087799  0.113094  0.000354  0.99401  0.001
H  H17  1  0.90817019  0.82314244  0.11547702  1  0.026944  -0.002275  0.089012  0.115631  -0.000534  0.991286  -0.001
H  H18  1  0.93262168  0.59814668  0.82976693  1  0.011213  -0.002449  0.082171  0.105144  -0.001185  1.034217  -0.001
H  H19  1  0.33474420  0.23314530  0.40159847  1  0.025889  -0.003004  0.081694  0.101397  -0.001347  1.039805  -0.001
H  H20  1  0.10352208  0.16972579  0.76765402  1  0.025289  0.003289  0.083182  0.103253  0.00163  1.039876  0.001
H  H21  1  0.06767142  0.40185240  0.16993060  1  0.007728  0.003227  0.082854  0.103441  0.001495  1.036459  0.001
H  H22  1  0.66534085  0.76770269  0.59927617  1  0.028475  0.002858  0.082533  0.103771  0.001245  1.038989  0.001
H  H23  1  0.89659714  0.83031894  0.23250560  1  0.021658  -0.003307  0.08317  0.103045  -0.001625  1.039909  -0.001
H  H24  1  0.79610576  0.58793897  0.71596643  1  0.046498  -0.002656  0.080422  0.099557  -0.001257  1.045419  -0.001
H  H25  1  0.20370382  0.12815402  0.41192626  1  -0.002894  -0.00289  0.081012  0.098731  -0.00147  1.046666  -0.001
H  H26  1  0.07995864  0.28457216  0.87249499  1  -0.013039  0.003777  0.081723  0.098506  0.001852  1.050408  0.001
H  H27  1  0.20487121  0.41229744  0.28408118  1  0.046056  0.002808  0.080733  0.097663  0.001399  1.049407  0.001
H  H28  1  0.79672672  0.87253075  0.58900683  1  -0.006759  0.003456  0.080609  0.097404  0.001694  1.048155  0.001
H  H29  1  0.91977883  0.71538431  0.12752865  1  -0.012434  -0.003755  0.082175  0.099159  -0.001826  1.049575  -0.001
H  H30  1  0.54515125  0.55526436  0.81378463  1  0.002385  -0.000407  0.081519  0.109794  -4.2e-05  1.028062  0.0
H  H31  1  0.99017940  0.25754593  0.44391274  1  0.021614  0.000114  0.081718  0.109569  0.00019  1.028461  0.0
H  H32  1  0.73418917  0.18572447  0.74261890  1  0.019363  0.000309  0.0832  0.113109  0.00027  1.024121  0.0
H  H33  1  0.45521735  0.44437030  0.18605633  1  0.008293  0.000194  0.082426  0.111547  -7.7e-05  1.026271  0.0
H  H34  1  0.00921493  0.74261187  0.55618776  1  0.023925  3e-06  0.081905  0.110582  -0.000115  1.026028  0.0
H  H35  1  0.26541251  0.81386165  0.25741982  1  0.014735  -0.000142  0.082225  0.110509  -0.000116  1.024569  0.0
H  H36  1  0.66861739  0.67704944  0.92130549  1  -0.00323  -0.000135  0.083594  0.10581  2.1e-05  1.010889  0.0
H  H37  1  0.99326016  0.24366309  0.32300069  1  0.006696  -8.2e-05  0.084793  0.107316  -1.9e-05  1.010177  0.0
H  H38  1  0.74570369  0.07776122  0.75558174  1  0.044483  0.000174  0.084379  0.10697  -1.5e-05  1.010343  0.0
H  H39  1  0.33109419  0.32261290  0.07849292  1  -0.00343  0.000144  0.084355  0.107003  -4e-06  1.009687  0.0
H  H40  1  0.00688282  0.75637561  0.67714979  1  0.005195  0.000146  0.084444  0.106878  4.8e-05  1.011001  0.0
H  H41  1  0.25451425  0.92198574  0.24463203  1  0.048716  -0.000173  0.084197  0.106407  5e-06  1.010253  0.0
H  H42  1  0.53342346  0.66682574  0.80807124  1  0.02382  -4.9e-05  0.084097  0.108592  3.9e-05  0.99777  0.0
H  H43  1  0.86330859  0.13923838  0.33271085  1  0.02728  -0.000166  0.085104  0.11004  1e-06  0.997039  0.0
H  H44  1  0.72329453  0.19164528  0.85965701  1  0.018158  0.000123  0.085036  0.110005  -1.3e-05  0.997387  0.0
H  H45  1  0.46621870  0.33275841  0.19174681  1  0.02047  0.000111  0.08485  0.109886  -1.3e-05  0.99656  0.0
H  H46  1  0.13720265  0.86065793  0.66734824  1  0.046084  0.00016  0.08466  0.109976  6e-06  0.996998  0.0
H  H47  1  0.27664296  0.80808559  0.14043034  1  0.021017  -0.000129  0.085473  0.111156  -1e-06  0.996352  0.0
C  C48  1  0.25278340  0.43372342  0.60750933  1  1.489964  -0.011472  0.230846  0.617295  -0.005903  4.102318  -0.008
C  C49  1  0.81835064  0.16943555  0.56311343  1  1.478376  0.017883  0.220615  0.599252  0.008782  4.111172  0.014
C  C50  1  0.64238756  0.39187648  0.83144599  1  1.503711  0.014571  0.228949  0.622087  0.006908  4.102098  0.009
C  C51  1  0.74625166  0.56625263  0.39193243  1  1.482014  -0.013782  0.224396  0.610185  -0.006504  4.110422  -0.009
C  C52  1  0.18337508  0.83001794  0.43664118  1  1.494684  0.016609  0.225826  0.612493  0.008486  4.111682  0.01
C  C53  1  0.35551619  0.60615803  0.16949922  1  1.48385  -0.000537  0.229564  0.61841  0.000465  4.096486  0.001
C  C54  1  0.38140331  0.46610891  0.55204858  1  0.008592  -0.025535  -0.02306  -0.140334  -0.010954  3.962801  -0.017
C  C55  1  0.91673700  0.08534131  0.53284451  1  0.00859  -0.008356  -0.026591  -0.141157  -0.003838  3.981611  -0.008
C  C56  1  0.82914867  0.44738319  0.91503037  1  -0.029836  0.003092  -0.024045  -0.140334  0.001472  3.97177  0.001
C  C57  1  0.61660303  0.53500210  0.44690526  1  -0.016207  0.012649  -0.025051  -0.143262  0.004873  3.97297  0.01
C  C58  1  0.08436444  0.91473976  0.46701582  1  0.014749  0.018658  -0.026505  -0.143447  0.008729  3.968733  0.012
C  C59  1  0.17024436  0.55259278  0.08498959  1  -0.003272  -0.001757  -0.026723  -0.146069  -0.000786  3.971961  -0.001
C  C60  1  0.56525750  0.43555200  0.53239590  1  0.520976  0.011648  0.078558  0.3068  0.004201  4.077889  0.009
C  C61  1  0.13287047  0.10092729  0.56746203  1  0.540563  0.008926  0.078504  0.298092  0.003949  4.070639  0.005
C  C62  1  0.03123319  0.46636013  0.89971010  1  0.557975  -0.002729  0.077335  0.299285  -0.000784  4.078853  -0.002
C  C63  1  0.43409571  0.56714849  0.46742532  1  0.551293  -0.018948  0.081048  0.30544  -0.00764  4.07013  -0.012
C  C64  1  0.86869607  0.89970066  0.43277097  1  0.526292  -0.002261  0.076728  0.295099  -0.000898  4.076392  -0.002
C  C65  1  0.96805309  0.53373597  0.09972880  1  0.538631  0.004057  0.076524  0.298996  0.001568  4.089  0.002
C  C66  1  0.32159382  0.53105970  0.51931103  1  -0.020188  0.017621  -0.090207  -0.19155  0.007662  3.930172  0.013
C  C67  1  0.79196402  0.98582154  0.46693282  1  0.001216  0.006437  -0.094384  -0.196595  0.002699  3.948317  0.004
C  C68  1  0.80357459  0.48153412  0.01374615  1  0.007383  0.001106  -0.094582  -0.195646  0.000562  3.949314  0.0
C  C69  1  0.67686629  0.47047734  0.48009841  1  0.025516  -0.029666  -0.091637  -0.190373  -0.013182  3.939898  -0.019
C  C70  1  0.20903776  0.01433097  0.53302237  1  -0.05581  0.009016  -0.092561  -0.19216  0.004374  3.936538  0.005
C  C71  1  0.19555064  0.51921697  0.98591184  1  0.00523  0.0064  -0.094972  -0.196885  0.002813  3.939248  0.004
C  C72  1  0.83018342  0.63140700  0.79964651  1  -0.097071  -0.006992  -0.246939  -0.306269  -0.003973  3.982871  -0.004
C  C73  1  0.19686057  0.16848921  0.36860628  1  -0.050939  -0.008546  -0.245255  -0.304294  -0.00485  3.981608  -0.005
C  C74  1  0.02940413  0.20035736  0.83148128  1  -0.04648  0.009663  -0.244484  -0.308519  0.005569  3.985079  0.006
C  C75  1  0.17010843  0.36872021  0.20034230  1  -0.072951  0.008741  -0.244935  -0.305926  0.00493  3.984848  0.005
C  C76  1  0.80367490  0.83205311  0.63219191  1  -0.06998  0.008346  -0.245662  -0.306765  0.00476  3.985448  0.005
C  C77  1  0.97058867  0.79959988  0.16863394  1  -0.045792  -0.009934  -0.244243  -0.308578  -0.005686  3.984029  -0.007
C  C78  1  0.63416789  0.63276082  0.83776308  1  -0.00759  -0.000458  -0.249702  -0.302045  -3.2e-05  3.983732  0.0
C  C79  1  0.00051343  0.20409661  0.36689070  1  -0.036512  -0.000391  -0.249061  -0.301623  3.5e-05  3.980929  0.0
C  C80  1  0.79581156  0.16174248  0.79538995  1  -0.063802  0.000365  -0.249456  -0.301833  -2.1e-05  3.981864  0.0
C  C81  1  0.36587140  0.36693776  0.16203075  1  -0.007432  0.000247  -0.249477  -0.302257  -0.000147  3.980767  0.0
C  C82  1  0.99958789  0.79604811  0.63336081  1  -0.057439  0.00041  -0.249116  -0.301643  -4.2e-05  3.982803  0.0
C  C83  1  0.20417565  0.83799848  0.20470137  1  -0.066839  -0.000196  -0.248428  -0.300754  0.000146  3.981603  0.0
O  O84  1  0.30979715  0.37392030  0.63770105  1  -1.178524  -0.002356  -0.318691  -0.577162  -0.001345  2.577144  0.002
O  O85  1  0.93284547  0.26109615  0.62528766  1  -1.185886  -0.030238  -0.326194  -0.588209  -0.013638  2.698008  -0.03
O  O86  1  0.66251239  0.36050525  0.73983423  1  -1.195988  -0.116588  -0.327222  -0.592749  -0.057902  2.671245  -0.098
O  O87  1  0.69698723  0.62930577  0.36507890  1  -1.181476  0.00266  -0.31782  -0.582623  0.001494  2.628881  0.005
O  O88  1  0.07076592  0.73879099  0.37141982  1  -1.18695  0.00951  -0.321667  -0.592211  0.003  2.638571  0.007
O  O89  1  0.33486988  0.63167172  0.26056468  1  -1.183213  0.11482  -0.32463  -0.589694  0.056123  2.630378  0.088
O  O90  1  0.09214314  0.46433362  0.62450744  1  -1.160105  -0.072355  -0.303086  -0.52569  -0.033402  2.304743  -0.05
O  O91  1  0.62541492  0.15467027  0.53085011  1  -1.161229  -0.076076  -0.309417  -0.527476  -0.036102  2.328991  -0.055
O  O92  1  0.46610688  0.37557919  0.84889855  1  -1.156373  0.067638  -0.308158  -0.535484  0.031719  2.320716  0.045
O  O93  1  0.90345186  0.53189466  0.37236389  1  -1.16092  0.07066  -0.312525  -0.533961  0.033103  2.318538  0.045
O  O94  1  0.37428106  0.84608621  0.47284574  1  -1.166121  0.066321  -0.3087  -0.534331  0.030581  2.313191  0.044
O  O95  1  0.53184786  0.62654116  0.15376149  1  -1.15874  -0.054836  -0.305302  -0.530793  -0.026039  2.318618  -0.034
O  O96  1  0.63849448  0.37418895  0.56162524  1  -1.162518  -0.173309  -0.364906  -0.578891  -0.083827  2.621186  -0.141
O  O97  1  0.26655741  0.19347973  0.63106144  1  -1.166284  0.043614  -0.357191  -0.566791  0.019902  2.49833  0.035
O  O98  1  0.07194083  0.43568850  0.80724360  1  -1.171703  0.009256  -0.359598  -0.574879  0.004286  2.502757  0.004
O  O99  1  0.36380291  0.63012157  0.43995369  1  -1.167681  0.149732  -0.357557  -0.574629  0.072469  2.546254  0.113
O  O100  1  0.73361644  0.80711589  0.36946941  1  -1.163704  -0.020034  -0.36071  -0.56785  -0.009207  2.528546  -0.019
O  O101  1  0.92540440  0.56371092  0.19151003  1  -1.166382  0.006095  -0.359801  -0.573802  0.002532  2.547286  0.01
