# generated using pymatgen
data_Zn4H51C82N20O5F13
_symmetry_space_group_name_H-M   'P 1'
_cell_length_a   20.26648551
_cell_length_b   19.92972542
_cell_length_c   21.48181744
_cell_angle_alpha   106.42516337
_cell_angle_beta   109.01170515
_cell_angle_gamma   111.51251326
_symmetry_Int_Tables_number   1
_chemical_formula_structural   Zn4H51C82N20O5F13
_chemical_formula_sum   'Zn4 H51 C82 N20 O5 F13'
_cell_volume   6787.18376132
_cell_formula_units_Z   1
loop_
 _symmetry_equiv_pos_site_id
 _symmetry_equiv_pos_as_xyz
  1  'x, y, z'
loop_
 _atom_site_type_symbol
 _atom_site_label
 _atom_site_symmetry_multiplicity
 _atom_site_fract_x
 _atom_site_fract_y
 _atom_site_fract_z
 _atom_site_occupancy
 _atom_site_pbe_bader_charge
 _atom_site_pbe_bader_spin_density
 _atom_site_pbe_cm5_charge
 _atom_site_pbe_ddec_charge
 _atom_site_pbe_ddec_spin_density
 _atom_site_pbe_ddec_sum_bond_order
 _atom_site_pbe_magmom
Zn  Zn0  1  0.35878631  0.38977533  0.48371031  1  1.180798  0  0.804877  0.750442  0  2.261248  0
Zn  Zn1  1  0.58310423  0.59843230  0.48669547  1  1.194044  0  0.741807  0.679033  0  2.308598  0
Zn  Zn2  1  0.37068347  0.49121707  0.37951521  1  1.221151  0  0.771692  0.745006  0  2.189706  0
Zn  Zn3  1  0.58857129  0.52947722  0.61520955  1  1.198444  0  0.759915  0.694785  0  2.323124  0
H  H4  1  0.22196272  0.53048925  0.40204704  1  0.096515  0  0.122851  0.110616  0  0.995316  0
H  H5  1  0.53590380  0.11635535  0.70915726  1  0.08474  0  0.112256  0.121722  0  0.97231  0
H  H6  1  0.93318720  0.48827088  0.44771632  1  0.075777  0  0.110106  0.1157  0  0.979121  0
H  H7  1  0.06848621  0.62602906  0.47193968  1  0.094489  0  0.109385  0.116486  0  0.9755  0
H  H8  1  0.16264025  0.70309382  0.69108817  1  0.121333  0  0.118688  0.146053  0  0.961381  0
H  H9  1  0.41117390  0.46473305  0.11828040  1  0.080186  0  0.100971  0.106624  0  0.998661  0
H  H10  1  0.41420350  0.39639577  0.00397863  1  0.089878  0  0.105849  0.111377  0  1.01649  0
H  H11  1  0.34906442  0.29734066  0.82269626  1  0.109913  0  0.110491  0.113171  0  0.987745  0
H  H12  1  0.35938905  0.34773822  0.73075601  1  0.078402  0  0.099901  0.112946  0  1.010481  0
H  H13  1  0.62494404  0.39329929  0.13427337  1  0.115132  0  0.118342  0.149598  0  0.972094  0
H  H14  1  0.61173180  0.41407552  0.82373034  1  0.080275  0  0.112185  0.138726  0  0.983676  0
H  H15  1  0.71281162  0.68447495  0.75292669  1  0.098713  0  0.121492  0.113124  0  0.99663  0
H  H16  1  0.83905427  0.76230914  0.84201675  1  0.077864  0  0.108808  0.137401  0  0.994062  0
H  H17  1  0.19533332  0.96924246  0.13150325  1  0.059767  0  0.108853  0.112891  0  0.988355  0
H  H18  1  0.59900373  0.37607328  0.56892598  1  0.106603  0  0.125349  0.121983  0  0.98916  0
H  H19  1  0.27350966  0.09579602  0.25073566  1  0.081271  0  0.098926  0.10468  0  1.009359  0
H  H20  1  0.17995899  0.10655530  0.01066082  1  0.084536  0  0.107881  0.109802  0  1.009197  0
H  H21  1  0.25667675  0.23292222  0.12813855  1  0.045033  0  0.100458  0.10147  0  1.001912  0
H  H22  1  0.33323401  0.34763038  0.23403680  1  0.110284  0  0.113829  0.103088  0  1.057447  0
H  H23  1  0.36856460  0.75953797  0.40892458  1  0.064932  0  0.104717  0.070507  0  0.968021  0
H  H24  1  0.31658515  0.72585461  0.45648063  1  0.072761  0  0.106361  0.070218  0  0.962035  0
H  H25  1  0.19272884  0.61847575  0.33401995  1  0.015886  0  0.093265  0.124235  0  0.999193  0
H  H26  1  0.77834175  0.75392681  0.59864584  1  0.123135  0  0.122112  0.112337  0  1.028831  0
H  H27  1  0.22282583  0.71657135  0.33937589  1  0.046502  0  0.100527  0.134716  0  0.985789  0
H  H28  1  0.24556288  0.65082802  0.28645990  1  0.044658  0  0.097025  0.131713  0  0.989359  0
H  H29  1  0.62963915  0.02590195  0.48985934  1  0.033303  0  0.094708  0.04857  0  0.973496  0
H  H30  1  0.69829337  0.07109224  0.58640384  1  0.042175  0  0.099381  0.061371  0  0.972096  0
H  H31  1  0.77684681  0.19982481  0.58289194  1  0.023138  0  0.094638  0.128685  0  0.99056  0
H  H32  1  0.77076483  0.11602283  0.51773751  1  0.021638  0  0.093565  0.122886  0  1.000131  0
H  H33  1  0.70788197  0.15576915  0.48685251  1  0.04525  0  0.092845  0.125173  0  0.995264  0
H  H34  1  0.92199773  0.37227974  0.48685912  1  0.02716  0  0.09634  0.050501  0  0.973124  0
H  H35  1  0.96040294  0.40869041  0.58449274  1  0.038859  0  0.099339  0.059971  0  0.974372  0
H  H36  1  0.03444078  0.33161216  0.58561583  1  0.039629  0  0.095623  0.129804  0  0.989468  0
H  H37  1  0.33501819  0.50728690  0.59826290  1  0.148521  0  0.12621  0.124775  0  1.005445  0
H  H38  1  0.92908981  0.26486541  0.52275177  1  0.048743  0  0.0946  0.125606  0  0.999498  0
H  H39  1  0.99817285  0.29632586  0.48852403  1  0.031872  0  0.093962  0.12659  0  0.993234  0
H  H40  1  0.90018541  0.72757472  0.62606031  1  0.036731  0  0.087675  0.044462  0  1.016459  0
H  H41  1  0.00010727  0.81204322  0.66957146  1  0.049167  0  0.092587  0.051551  0  1.016691  0
H  H42  1  0.85240312  0.77877346  0.53565292  1  0.013462  0  0.085352  0.114553  0  1.007243  0
H  H43  1  0.95173152  0.86423073  0.58081530  1  0.0308  0  0.093029  0.129477  0  0.988874  0
H  H44  1  0.93352397  0.76475103  0.53338759  1  0.040601  0  0.089605  0.124601  0  1.010206  0
H  H45  1  0.13960170  0.88520223  0.82432769  1  0.046518  0  0.099126  0.059287  0  0.967031  0
H  H46  1  0.18463917  0.99146045  0.87948855  1  0.079078  0  0.098872  0.060004  0  0.996752  0
H  H47  1  0.18141590  0.01366675  0.76825342  1  0.0533  0  0.095119  0.13195  0  0.986084  0
H  H48  1  0.62443707  0.47112367  0.74422676  1  0.106262  0  0.118523  0.107806  0  0.99175  0
H  H49  1  0.24028852  0.96829629  0.79246359  1  0.034494  0  0.094236  0.126502  0  0.993646  0
H  H50  1  0.14092364  0.90792720  0.71512128  1  0.036259  0  0.088468  0.121173  0  1.016037  0
H  H51  1  0.37736167  0.00589741  0.49340068  1  0.069524  0  0.102607  0.092683  0  0.985344  0
H  H52  1  0.47704640  0.94870537  0.45925749  1  0.079128  0  0.102054  0.102766  0  0.99355  0
H  H53  1  0.39946659  0.95919831  0.60905386  1  0.066567  0  0.103106  0.093045  0  0.986162  0
H  H54  1  0.68037699  0.52914576  0.42506899  1  0.1361  0  0.114039  0.114495  0  1.029299  0
C  C55  1  0.30709212  0.25680284  0.33479024  1  1.00981  0  0.211818  0.34747  0  4.058301  0
C  C56  1  0.31180646  0.50573642  0.54431315  1  0.408981  0  0.028903  -0.014612  0  3.894261  0
C  C57  1  0.57064596  0.47651545  0.72797239  1  0.371798  0  0.00446  -0.036232  0  4.00311  0
C  C58  1  0.68531901  0.52604189  0.47582743  1  0.418577  0  0.012687  -0.029002  0  3.947571  0
C  C59  1  0.41360377  0.66472478  0.45498288  1  1.08025  0  0.197206  0.320162  0  4.096616  0
C  C60  1  0.50165481  0.43927563  0.73524177  1  0.058343  0  -0.046007  -0.161531  0  4.080909  0
C  C61  1  0.47550256  0.73788114  0.52009522  1  0.144915  0  -0.048375  -0.199188  0  4.227928  0
C  C62  1  0.26430604  0.53705052  0.51571713  1  0.12471  0  -0.022447  0.046369  0  4.163637  0
C  C63  1  0.78317373  0.74316929  0.70166202  1  -0.004652  0  -0.029818  -0.014527  0  4.033246  0
C  C64  1  0.49009386  0.98710204  0.51444518  1  -0.075457  0  -0.082228  -0.157648  0  3.65223  0
C  C65  1  0.43447024  0.01646118  0.53338885  1  -0.028008  0  -0.07258  -0.066318  0  3.647924  0
C  C66  1  0.75241264  0.53548951  0.53315178  1  0.156926  0  -0.036459  -0.074954  0  4.223204  0
C  C67  1  0.49981182  0.22848176  0.57718320  1  -0.358697  0  -0.061267  -0.089874  0  4.210867  0
C  C68  1  0.48560670  0.81587965  0.54620576  1  -0.457583  0  -0.063191  -0.075979  0  4.267855  0
C  C69  1  0.56643301  0.07428249  0.57020317  1  0.606237  0  0.087054  0.1513  0  3.753423  0
C  C70  1  0.43797764  0.48852329  0.26255159  1  1.046045  0  0.202878  0.33744  0  4.119728  0
C  C71  1  0.51001642  0.10465107  0.58899471  1  0.077282  0  0.005335  0.095248  0  3.806701  0
C  C72  1  0.57758543  0.04871940  0.63477554  1  0.589368  0  0.102249  0.192446  0  3.71064  0
C  C73  1  0.50234589  0.96049942  0.57846639  1  0.091936  0  -0.002901  0.076023  0  3.835394  0
C  C74  1  0.52235622  0.07876055  0.65352657  1  -0.035071  0  -0.075873  -0.151916  0  3.636512  0
C  C75  1  0.44677687  0.99238163  0.59771002  1  -0.027468  0  -0.070861  -0.065546  0  3.636573  0
C  C76  1  0.50879547  0.17481660  0.58797197  1  0.06207  0  -0.052787  -0.107499  0  4.12137  0
C  C77  1  0.50911185  0.50272997  0.25783903  1  0.109193  0  -0.044376  -0.241417  0  4.111275  0
C  C78  1  0.49590013  0.88431669  0.56668369  1  0.147748  0  -0.060125  -0.127552  0  4.13121  0
C  C79  1  0.05859145  0.61144251  0.51458699  1  -0.045872  0  -0.076629  -0.146193  0  3.650624  0
C  C80  1  0.98537492  0.53495581  0.50144142  1  -0.043116  0  -0.078347  -0.141493  0  3.657088  0
C  C81  1  0.83001676  0.55478553  0.54264012  1  -0.094651  0  -0.050886  -0.069896  0  4.196247  0
C  C82  1  0.53789314  0.35656794  0.56038360  1  0.454324  0  0.021522  -0.015992  0  3.938706  0
C  C83  1  0.22646488  0.57196477  0.54678942  1  -0.496193  0  -0.05177  -0.092192  0  4.175807  0
C  C84  1  0.05263760  0.66542332  0.57843415  1  0.582716  0  0.109329  0.277399  0  3.721738  0
C  C85  1  0.97627193  0.58874334  0.56477062  1  0.050677  0  -0.006188  0.007882  0  3.85003  0
C  C86  1  0.11227121  0.65484210  0.63695614  1  -0.07131  0  -0.081777  -0.235657  0  3.636847  0
C  C87  1  0.11925219  0.59941788  0.57261439  1  0.097003  0  0.007111  0.113434  0  3.804188  0
C  C88  1  0.48646890  0.28832074  0.56340995  1  0.16894  0  -0.032018  -0.064911  0  4.215818  0
C  C89  1  0.03848618  0.57863066  0.62346804  1  0.586956  0  0.102755  0.204512  0  3.724074  0
C  C90  1  0.04418865  0.52196634  0.55944586  1  0.609533  0  0.087317  0.152002  0  3.759148  0
C  C91  1  0.89967227  0.57542477  0.55584309  1  -0.185372  0  -0.058486  -0.110847  0  4.135432  0
C  C92  1  0.18538115  0.59489354  0.56690389  1  0.161435  0  -0.062356  -0.1285  0  4.11519  0
C  C93  1  0.48784232  0.39100272  0.77382936  1  0.066835  0  0.00586  0.161668  0  4.027945  0
C  C94  1  0.56623823  0.55338214  0.33302742  1  1.048306  0  0.204189  0.34069  0  4.101269  0
C  C95  1  0.55289700  0.38803348  0.82143831  1  0.060309  0  -0.102859  -0.26637  0  3.958051  0
C  C96  1  0.54518175  0.35770048  0.87054162  1  0.424817  0  0.107633  0.251087  0  4.033022  0
C  C97  1  0.47324258  0.33031138  0.87628102  1  0.413316  0  0.074039  0.044857  0  4.064363  0
C  C98  1  0.40530451  0.32118648  0.82000150  1  -0.051307  0  -0.077023  -0.107588  0  3.990353  0
C  C99  1  0.45398935  0.46909037  0.70165324  1  1.027897  0  0.191753  0.324965  0  4.118536  0
C  C100  1  0.41177462  0.35060701  0.76985425  1  -0.053862  0  -0.103524  -0.162957  0  3.987477  0
C  C101  1  0.45786654  0.40901942  0.05765791  1  -0.038591  0  -0.094606  -0.161734  0  3.988029  0
C  C102  1  0.45694851  0.44753486  0.12166708  1  -0.016027  0  -0.093682  -0.109324  0  4.013601  0
C  C103  1  0.51837735  0.38892164  0.06104491  1  0.409677  0  0.088491  0.199066  0  4.064844  0
C  C104  1  0.51498776  0.46701310  0.19196763  1  0.0574  0  -0.023979  0.006297  0  4.061795  0
C  C105  1  0.57344050  0.44462474  0.19306623  1  0.414127  0  0.093905  0.24425  0  4.044783  0
C  C106  1  0.41729791  0.29524019  0.54977872  1  1.057331  0  0.212859  0.337383  0  4.088487  0
C  C107  1  0.57715810  0.40756224  0.13019188  1  -0.001562  0  -0.094242  -0.271864  0  3.955254  0
C  C108  1  0.26933068  0.17368151  0.19846648  1  0.003668  0  -0.00873  0.103493  0  4.038192  0
C  C109  1  0.24530844  0.17568574  0.12971622  1  -0.030194  0  -0.091013  -0.122643  0  3.982299  0
C  C110  1  0.53122487  0.71502479  0.55088372  1  1.072001  0  0.212842  0.361883  0  4.074141  0
C  C111  1  0.20260601  0.10541986  0.06361311  1  -0.022825  0  -0.085791  -0.136963  0  3.970337  0
C  C112  1  0.18249737  0.02998166  0.06401181  1  0.333507  0  0.082087  0.162318  0  4.060317  0
C  C113  1  0.21104596  0.02804045  0.13213782  1  0.003004  0  -0.080885  -0.129797  0  3.967584  0
C  C114  1  0.25407240  0.09884490  0.19848064  1  -0.044374  0  -0.095822  -0.138136  0  3.990723  0
C  C115  1  0.96418763  0.84246571  0.88753507  1  0.450112  0  0.096304  0.243529  0  4.066022  0
C  C116  1  0.88569294  0.79672067  0.83093033  1  0.002066  0  -0.117251  -0.281148  0  4.040989  0
C  C117  1  0.02932093  0.89334313  0.88073343  1  0.420777  0  0.068227  -0.043836  0  4.080361  0
C  C118  1  0.72388621  0.52554281  0.58333094  1  1.07367  0  0.212245  0.335292  0  4.082869  0
C  C119  1  0.86660132  0.79450864  0.76085364  1  0.066084  0  -0.005333  0.043686  0  4.050641  0
C  C120  1  0.93041182  0.83989232  0.75028698  1  0.5071  0  0.065193  0.083476  0  4.038749  0
C  C121  1  0.25370493  0.51620749  0.44299377  1  0.483633  0  0.025844  -0.012622  0  3.944033  0
C  C122  1  0.01039216  0.88872585  0.80907973  1  0.590166  0  0.088398  0.110945  0  4.053909  0
C  C123  1  0.32801851  0.32621885  0.27413779  1  0.437658  0  0.018046  -0.015163  0  3.967881  0
C  C124  1  0.30231536  0.24690582  0.26582789  1  0.079318  0  -0.033586  -0.140922  0  4.070067  0
C  C125  1  0.32068437  0.70671050  0.40520861  1  0.385792  0  -0.059353  0.096898  0  3.878062  0
C  C126  1  0.24078354  0.67055932  0.33717694  1  -0.048014  0  -0.239292  -0.398382  0  3.982035  0
C  C127  1  0.67112338  0.08400505  0.54103280  1  0.418484  0  -0.067011  0.089262  0  3.920943  0
C  C128  1  0.73542513  0.14253295  0.53157537  1  -0.034767  0  -0.242764  -0.395972  0  3.989683  0
C  C129  1  0.97273767  0.38755782  0.53857562  1  0.436388  0  -0.065449  0.089733  0  3.920865  0
C  C130  1  0.98448159  0.31588582  0.53355241  1  -0.064797  0  -0.241585  -0.39499  0  3.985877  0
C  C131  1  0.93549851  0.79128916  0.63820779  1  0.426083  0  -0.072955  0.080388  0  3.91322  0
C  C132  1  0.71650452  0.69285574  0.70611518  1  0.392471  0  0.010715  -0.045681  0  3.951736  0
C  C133  1  0.91707488  0.80044197  0.56796716  1  -0.050216  0  -0.245242  -0.391025  0  3.98328  0
C  C134  1  0.14587244  0.94193841  0.82271736  1  0.37935  0  -0.065948  0.083022  0  3.901514  0
C  C135  1  0.17868682  0.95871214  0.77134877  1  -0.066361  0  -0.243568  -0.396869  0  3.978144  0
C  C136  1  0.74969283  0.72691420  0.62664560  1  0.473021  0  0.020254  -0.027127  0  3.944511  0
N  N137  1  0.33101502  0.33303019  0.37911699  1  -0.81997  0  -0.293242  -0.308106  0  3.594043  0
N  N138  1  0.52894476  0.36248227  0.99883164  1  -0.486135  0  -0.166753  -0.153652  0  3.232231  0
N  N139  1  0.12555354  0.95457670  0.00113932  1  -0.427636  0  -0.163805  -0.152834  0  3.265646  0
N  N140  1  0.62381086  0.51318191  0.49195542  1  -0.78444  0  -0.278923  -0.222429  0  3.446977  0
N  N141  1  0.10185298  0.95897734  0.94036768  1  -0.518124  0  -0.153765  -0.103566  0  3.378462  0
N  N142  1  0.44960885  0.52199778  0.33080999  1  -0.808791  0  -0.274083  -0.306053  0  3.45961  0
N  N143  1  0.50260072  0.40030564  0.54740961  1  -0.76014  0  -0.276851  -0.220565  0  3.489195  0
N  N144  1  0.53293959  0.56464180  0.37691131  1  -0.798161  0  -0.282309  -0.277753  0  3.511374  0
N  N145  1  0.42715536  0.36163747  0.54154416  1  -0.848496  0  -0.306213  -0.312228  0  3.687112  0
N  N146  1  0.64888062  0.51187227  0.55933172  1  -0.828731  0  -0.287549  -0.296549  0  3.614752  0
N  N147  1  0.34483538  0.37689980  0.34109712  1  -0.794294  0  -0.283605  -0.192535  0  3.633256  0
N  N148  1  0.50771384  0.63756127  0.50992445  1  -0.798483  0  -0.289706  -0.323932  0  3.492191  0
N  N149  1  0.48798966  0.51800749  0.67705262  1  -0.741247  0  -0.286913  -0.355631  0  3.227754  0
N  N150  1  0.29039707  0.47479304  0.42839820  1  -0.791029  0  -0.273247  -0.230516  0  3.474325  0
N  N151  1  0.64943881  0.64934361  0.63924775  1  -0.795779  0  -0.285076  -0.216163  0  3.536475  0
N  N152  1  0.67097651  0.67091919  0.59060184  1  -0.816426  0  -0.286854  -0.187015  0  3.653355  0
N  N153  1  0.32663917  0.46864152  0.49167395  1  -0.830497  0  -0.302477  -0.2186  0  3.698014  0
N  N154  1  0.56223569  0.52280400  0.69414153  1  -0.824905  0  -0.297343  -0.190145  0  3.617868  0
N  N155  1  0.43303970  0.60682005  0.45040813  1  -0.822161  0  -0.305092  -0.29179  0  3.620361  0
N  N156  1  0.46444717  0.33028654  0.93785462  1  -0.488244  0  -0.156815  -0.12318  0  3.353648  0
O  O157  1  0.34328394  0.64475723  0.39956932  1  -1.085494  0  -0.179691  -0.228656  0  2.535593  0
O  O158  1  0.62530468  0.12067587  0.55795629  1  -1.070342  0  -0.205295  -0.234634  0  2.494132  0
O  O159  1  0.04650420  0.45250914  0.55125938  1  -1.070085  0  -0.200916  -0.227427  0  2.500779  0
O  O160  1  0.91437519  0.84032140  0.68303316  1  -1.066615  0  -0.205135  -0.223724  0  2.523374  0
O  O161  1  0.06614413  0.93356664  0.79389282  1  -1.061799  0  -0.181784  -0.190062  0  2.551509  0
F  F162  1  0.28972836  0.20107328  0.35941556  1  -0.634747  0  -0.080381  -0.131865  0  1.345048  0
F  F163  1  0.64723176  0.59370330  0.36335318  1  -0.656862  0  -0.076751  -0.129028  0  1.386954  0
F  F164  1  0.34768362  0.24545739  0.54438739  1  -0.632603  0  -0.085215  -0.130563  0  1.338191  0
F  F165  1  0.76250105  0.52718747  0.64820841  1  -0.63823  0  -0.087078  -0.135522  0  1.331245  0
F  F166  1  0.37963823  0.45246704  0.69357960  1  -0.643376  0  -0.098858  -0.154688  0  1.332529  0
F  F167  1  0.60126021  0.76463445  0.61339212  1  -0.628972  0  -0.069494  -0.102632  0  1.392911  0
F  F168  1  0.64972576  0.06486089  0.68706627  1  -0.636171  0  -0.127928  -0.176052  0  1.289621  0
F  F169  1  0.02896093  0.56421601  0.67953539  1  -0.63135  0  -0.12312  -0.169626  0  1.291787  0
F  F170  1  0.05795475  0.73881737  0.58867779  1  -0.639367  0  -0.116417  -0.179217  0  1.307607  0
F  F171  1  0.36149281  0.44488919  0.20564660  1  -0.647651  0  -0.07899  -0.135567  0  1.363181  0
F  F172  1  0.62922271  0.45921090  0.25951004  1  -0.635457  0  -0.115145  -0.158984  0  1.332527  0
F  F173  1  0.61023182  0.35891106  0.91684300  1  -0.629242  0  -0.105562  -0.148254  0  1.353512  0
F  F174  1  0.97693160  0.84341759  0.95395964  1  -0.623043  0  -0.106417  -0.144271  0  1.369371  0
