# generated using pymatgen
data_MnH10C12(N4O)2
_symmetry_space_group_name_H-M   'P 1'
_cell_length_a   11.23641713
_cell_length_b   13.05930695
_cell_length_c   13.05798967
_cell_angle_alpha   79.35297065
_cell_angle_beta   64.50787007
_cell_angle_gamma   64.52257382
_symmetry_Int_Tables_number   1
_chemical_formula_structural   MnH10C12(N4O)2
_chemical_formula_sum   'Mn4 H40 C48 N32 O8'
_cell_volume   1561.38777687
_cell_formula_units_Z   4
loop_
 _symmetry_equiv_pos_site_id
 _symmetry_equiv_pos_as_xyz
  1  'x, y, z'
loop_
 _atom_site_type_symbol
 _atom_site_label
 _atom_site_symmetry_multiplicity
 _atom_site_fract_x
 _atom_site_fract_y
 _atom_site_fract_z
 _atom_site_occupancy
 _atom_site_pbe_bader_charge
 _atom_site_pbe_bader_spin_density
 _atom_site_pbe_cm5_charge
 _atom_site_pbe_ddec_charge
 _atom_site_pbe_ddec_spin_density
 _atom_site_pbe_ddec_sum_bond_order
 _atom_site_pbe_magmom
Mn  Mn0  1  0.49998320  0.50012918  0.49999788  1  1.468363  4.551444  0.625124  0.78228  4.684641  2.461884  4.468
Mn  Mn1  1  0.00025958  0.99980318  0.99986097  1  1.466613  4.553062  0.625217  0.781972  4.686509  2.461086  4.469
Mn  Mn2  1  0.99980074  0.50015750  0.99988135  1  1.46664  4.553328  0.625357  0.78372  4.686213  2.457672  4.469
Mn  Mn3  1  0.99985769  0.99988971  0.50013690  1  1.469123  4.552243  0.624966  0.783147  4.685861  2.459077  4.469
H  H4  1  0.82210877  0.31695777  0.46561663  1  0.137302  0.000531  0.14272  0.101063  -5.8e-05  0.991049  0.0
H  H5  1  0.55821139  0.93349258  0.62579852  1  0.092803  0.000231  0.111745  0.15537  4.3e-05  0.979841  0.0
H  H6  1  0.22117686  0.17763605  0.73668604  1  0.048861  9.7e-05  0.096467  0.148487  -7.3e-05  1.000431  0.0
H  H7  1  0.30223313  0.02818031  0.71293335  1  0.0455  0.000188  0.092636  0.136636  -9.7e-05  1.010993  0.0
H  H8  1  0.25603422  0.12560765  0.60677121  1  0.071565  0.000326  0.095647  0.145229  4.6e-05  1.008196  0.0
H  H9  1  0.10459071  0.18315632  0.03439929  1  0.105335  0.000576  0.142919  0.10091  -4.8e-05  0.992006  0.0
H  H10  1  0.61752400  0.56636585  0.87423073  1  0.085113  0.000234  0.112442  0.156618  4.4e-05  0.980602  0.0
H  H11  1  0.63565276  0.32208495  0.76344285  1  0.037723  0.000105  0.096487  0.148145  -6.8e-05  1.001274  0.0
H  H12  1  0.54358989  0.47160818  0.78698704  1  0.050886  0.000178  0.09219  0.135978  -0.000107  1.011022  0.0
H  H13  1  0.48844342  0.37432137  0.89330364  1  0.066882  0.000336  0.095825  0.14487  5.5e-05  1.008326  0.0
H  H14  1  0.28759355  0.53476106  0.81690612  1  0.15124  0.000515  0.142144  0.100171  -5.6e-05  0.989209  0.0
H  H15  1  0.18440891  0.37420302  0.43336140  1  0.091126  0.000224  0.111869  0.155917  3.7e-05  0.979841  0.0
H  H16  1  0.95818293  0.26340154  0.67764985  1  0.081984  9.2e-05  0.096853  0.148401  -7.5e-05  1.000073  0.0
H  H17  1  0.01524222  0.28714923  0.52818759  1  0.041841  0.000181  0.091725  0.135911  -0.000105  1.010455  0.0
H  H18  1  0.86298710  0.39335278  0.62586176  1  0.071963  0.000333  0.095744  0.144757  5.4e-05  1.007174  0.0
H  H19  1  0.13935569  0.96536797  0.68290103  1  0.112163  0.000575  0.142717  0.100654  -4.7e-05  0.992412  0.0
H  H20  1  0.49211789  0.12566990  0.06670625  1  0.089807  0.000243  0.112006  0.155924  5.1e-05  0.980153  0.0
H  H21  1  0.39938229  0.23645656  0.82237003  1  0.0738  0.000106  0.096985  0.149172  -6.5e-05  1.000141  0.0
H  H22  1  0.33064518  0.21283894  0.97186277  1  0.048482  0.000185  0.091891  0.136405  -9.9e-05  1.011166  0.0
H  H23  1  0.38224911  0.10655817  0.87429319  1  0.066701  0.000333  0.095425  0.145131  5.3e-05  1.008608  0.0
H  H24  1  0.17791218  0.68314454  0.53445838  1  0.136765  0.000536  0.142569  0.10073  -5.4e-05  0.991684  0.0
H  H25  1  0.44163126  0.06667673  0.37426105  1  0.092296  0.000231  0.111797  0.155421  4.3e-05  0.97995  0.0
H  H26  1  0.77873368  0.82238227  0.26333059  1  0.048519  9.7e-05  0.096486  0.148407  -7.3e-05  1.000338  0.0
H  H27  1  0.69790613  0.97178880  0.28704476  1  0.045046  0.000187  0.092512  0.136595  -9.8e-05  1.010993  0.0
H  H28  1  0.74393050  0.87433007  0.39322443  1  0.070602  0.000326  0.095648  0.145198  4.5e-05  1.008131  0.0
H  H29  1  0.89548061  0.81672799  0.96567340  1  0.126114  0.00056  0.142813  0.100877  -4.4e-05  0.992081  0.0
H  H30  1  0.38263310  0.43343953  0.12565527  1  0.084239  0.000233  0.112146  0.15634  4.4e-05  0.980241  0.0
H  H31  1  0.36429535  0.67800797  0.23643961  1  0.038487  0.000105  0.096555  0.148205  -6.8e-05  1.001109  0.0
H  H32  1  0.45655904  0.52851277  0.21302567  1  0.053019  0.000178  0.09212  0.136251  -0.000107  1.011269  0.0
H  H33  1  0.51146804  0.62582415  0.10661507  1  0.067046  0.000336  0.095809  0.145068  5.5e-05  1.008079  0.0
H  H34  1  0.71246012  0.46515546  0.18305006  1  0.150729  0.000517  0.142052  0.099956  -5.5e-05  0.98931  0.0
H  H35  1  0.81552204  0.62602987  0.56652726  1  0.093443  0.000223  0.111583  0.155713  3.8e-05  0.980046  0.0
H  H36  1  0.04188132  0.73663966  0.32230115  1  0.081479  9.2e-05  0.096777  0.148421  -7.5e-05  0.999634  0.0
H  H37  1  0.98472661  0.71285127  0.47180792  1  0.041956  0.000183  0.091698  0.135986  -0.000104  1.010428  0.0
H  H38  1  0.13704740  0.60667317  0.37415577  1  0.071807  0.000334  0.095681  0.144676  5.5e-05  1.007311  0.0
H  H39  1  0.86053188  0.03466137  0.31712728  1  0.110879  0.000573  0.142671  0.10037  -4.9e-05  0.992724  0.0
H  H40  1  0.50791882  0.87417880  0.93344121  1  0.088321  0.000244  0.111955  0.15601  5.1e-05  0.979897  0.0
H  H41  1  0.60070453  0.76349304  0.17760739  1  0.073959  0.000106  0.096887  0.149133  -6.5e-05  1.000258  0.0
H  H42  1  0.66923922  0.78717002  0.02808080  1  0.049534  0.000187  0.092018  0.136259  -9.8e-05  1.011065  0.0
H  H43  1  0.61790233  0.89339989  0.12560080  1  0.06349  0.000334  0.095344  0.145139  5.4e-05  1.008937  0.0
C  C44  1  0.75650664  0.26797703  0.49298427  1  1.007916  0.016788  0.170047  0.186172  0.013612  3.989875  0.013
C  C45  1  0.57296462  0.22435652  0.55577860  1  1.482267  0.006449  0.344351  0.440009  0.00486  4.073449  0.005
C  C46  1  0.44290839  0.11563305  0.62250956  1  0.483504  0.001849  0.12695  0.364059  0.001587  3.996565  0.001
C  C47  1  0.56646265  0.01534160  0.60319543  1  0.029143  0.00593  -0.119814  -0.397969  0.004662  3.925175  0.004
C  C48  1  0.70408585  0.01773692  0.55907599  1  1.161283  0.004703  0.218091  0.445507  0.004999  4.203086  0.004
C  C49  1  0.29776989  0.11058918  0.67295169  1  -0.050774  0.00043  -0.241078  -0.457328  0.000297  3.915563  0.0
C  C50  1  0.01740328  0.23206065  0.00703382  1  1.042145  0.01676  0.169691  0.185275  0.013627  3.993483  0.013
C  C51  1  0.85311182  0.27560871  0.94425504  1  1.488909  0.006349  0.343842  0.437571  0.004771  4.073217  0.005
C  C52  1  0.68107889  0.38428378  0.87752703  1  0.501281  0.001787  0.126386  0.364165  0.001539  3.997308  0.001
C  C53  1  0.68501051  0.48456781  0.89687095  1  0.014049  0.005982  -0.120484  -0.399591  0.004698  3.926376  0.004
C  C54  1  0.78083991  0.48221132  0.94100937  1  1.164483  0.004818  0.218736  0.441811  0.005073  4.206348  0.004
C  C55  1  0.58142553  0.38923846  0.82708725  1  -0.04697  0.000442  -0.239938  -0.454897  0.000303  3.914233  0.0
C  C56  1  0.24941268  0.50729829  0.76796031  1  0.989359  0.01703  0.170333  0.186299  0.013782  3.986483  0.013
C  C57  1  0.12889405  0.44431720  0.72428892  1  1.483787  0.006486  0.34348  0.438279  0.00491  4.076414  0.005
C  C58  1  0.06573315  0.37748101  0.61550345  1  0.48171  0.001885  0.124329  0.361485  0.001623  3.998961  0.001
C  C59  1  0.16997346  0.39685691  0.51523371  1  0.022806  0.005909  -0.12005  -0.398541  0.004638  3.925566  0.004
C  C60  1  0.26327796  0.44114564  0.51768337  1  1.171875  0.004731  0.219986  0.445282  0.005044  4.204918  0.004
C  C61  1  0.97093966  0.32711852  0.61061177  1  -0.081378  0.000417  -0.238866  -0.453611  0.000279  3.912725  0.0
C  C62  1  0.02476467  0.99279081  0.73191295  1  1.025314  0.016927  0.170544  0.186262  0.013729  3.990757  0.013
C  C63  1  0.79755566  0.05574672  0.77566127  1  1.486615  0.006387  0.344682  0.438646  0.004838  4.076433  0.005
C  C64  1  0.55882129  0.12245310  0.88452413  1  0.50271  0.001791  0.124807  0.362614  0.001545  4.000421  0.001
C  C65  1  0.58218110  0.10302736  0.98479019  1  0.031007  0.006027  -0.118117  -0.396654  0.004749  3.92616  0.004
C  C66  1  0.72222574  0.05873418  0.98230233  1  1.137116  0.004842  0.218167  0.443351  0.005087  4.207624  0.004
C  C67  1  0.40874025  0.17282081  0.88948147  1  -0.076188  0.000459  -0.239803  -0.456757  0.00032  3.916604  0.0
C  C68  1  0.24351560  0.73210576  0.50706059  1  1.011004  0.016858  0.169996  0.18617  0.013686  3.990011  0.013
C  C69  1  0.42701649  0.77576866  0.44418621  1  1.482359  0.006492  0.344353  0.439235  0.004896  4.075299  0.005
C  C70  1  0.55701336  0.88452945  0.37744279  1  0.472627  0.001845  0.126945  0.36399  0.001582  3.997163  0.001
C  C71  1  0.43342096  0.98482431  0.39683242  1  0.041849  0.005924  -0.119917  -0.397879  0.004666  3.924134  0.004
C  C72  1  0.29580758  0.98236624  0.44102622  1  1.158388  0.004682  0.218599  0.446013  0.004961  4.202598  0.004
C  C73  1  0.70217408  0.88943677  0.32705013  1  -0.04881  0.00043  -0.241014  -0.45703  0.000295  3.916411  0.0
C  C74  1  0.98266580  0.76782536  0.99302241  1  1.022721  0.0169  0.170129  0.185538  0.013739  3.994369  0.013
C  C75  1  0.14695613  0.72424167  0.05579155  1  1.496017  0.006404  0.344098  0.438166  0.004828  4.073994  0.005
C  C76  1  0.31898517  0.61555216  0.12247225  1  0.510399  0.001766  0.125961  0.363646  0.001529  3.997819  0.001
C  C77  1  0.31507372  0.51526558  0.10309336  1  0.010106  0.005992  -0.119874  -0.398921  0.004707  3.925285  0.004
C  C78  1  0.21922451  0.51764581  0.05893716  1  1.165915  0.004778  0.218447  0.441647  0.005015  4.206867  0.004
C  C79  1  0.41859334  0.61078578  0.17286061  1  -0.049515  0.000443  -0.240012  -0.455461  0.000304  3.914605  0.0
C  C80  1  0.75061564  0.49264028  0.23200936  1  0.988465  0.017021  0.170436  0.186505  0.013769  3.986583  0.013
C  C81  1  0.87115866  0.55563240  0.27565451  1  1.482317  0.006466  0.34367  0.438956  0.004885  4.075082  0.005
C  C82  1  0.93434249  0.62252710  0.38439521  1  0.479932  0.001888  0.124501  0.362148  0.001623  3.997741  0.001
C  C83  1  0.83002477  0.60326741  0.48466958  1  0.021351  0.005897  -0.11981  -0.39862  0.004625  3.925845  0.003
C  C84  1  0.73667187  0.55900753  0.48226913  1  1.172538  0.004735  0.22043  0.445999  0.005057  4.204426  0.004
C  C85  1  0.02910808  0.67291505  0.38934687  1  -0.081352  0.000417  -0.238704  -0.453801  0.000281  3.9115  0.0
C  C86  1  0.97513589  0.00723090  0.26811701  1  1.025875  0.016832  0.170522  0.186892  0.013638  3.990137  0.013
C  C87  1  0.20234456  0.94433523  0.22441105  1  1.486791  0.006341  0.344412  0.438093  0.004795  4.076862  0.005
C  C88  1  0.44113140  0.87758984  0.11558632  1  0.501018  0.001799  0.125179  0.363339  0.001547  4.000268  0.001
C  C89  1  0.41782181  0.89689258  0.01533063  1  0.036847  0.006009  -0.118259  -0.397205  0.004733  3.927076  0.004
C  C90  1  0.27782147  0.94110093  0.01776895  1  1.134198  0.00487  0.217672  0.443006  0.005121  4.207185  0.004
C  C91  1  0.59128136  0.82716018  0.11053506  1  -0.073719  0.000459  -0.239837  -0.456855  0.000322  3.916332  0.0
N  N92  1  0.81439537  0.15509616  0.49547180  1  -0.754676  0.054673  -0.24127  -0.247093  0.03681  3.364194  0.017
N  N93  1  0.61212959  0.31493871  0.52702256  1  -1.239842  0.05891  -0.33912  -0.418785  0.041169  3.389943  0.023
N  N94  1  0.44410693  0.22105885  0.59955252  1  -1.212601  0.005665  -0.331892  -0.440268  0.00362  3.241995  0.004
N  N95  1  0.69749485  0.12809352  0.53359225  1  -0.85019  0.00658  -0.131497  -0.04622  0.003486  3.772714  0.004
N  N96  1  0.96484044  0.34492242  0.00461567  1  -0.760249  0.054112  -0.242163  -0.249429  0.036593  3.363248  0.017
N  N97  1  0.95414033  0.18504658  0.97295452  1  -1.241661  0.058394  -0.339378  -0.41875  0.040821  3.390047  0.022
N  N98  1  0.76475353  0.27885784  0.90048384  1  -1.208895  0.005661  -0.331852  -0.440218  0.003634  3.244576  0.004
N  N99  1  0.85912962  0.37188134  0.96647082  1  -0.853314  0.006603  -0.130663  -0.038751  0.003484  3.767782  0.004
N  N100  1  0.30979148  0.50487108  0.65506700  1  -0.759881  0.054562  -0.241069  -0.246857  0.036791  3.364298  0.017
N  N101  1  0.13922892  0.47310157  0.81490392  1  -1.232103  0.058962  -0.339363  -0.418875  0.0412  3.390845  0.023
N  N102  1  0.04391296  0.40045261  0.72098479  1  -1.212149  0.005707  -0.330109  -0.4391  0.003653  3.245898  0.004
N  N103  1  0.23113318  0.46663655  0.62804694  1  -0.845688  0.00661  -0.132391  -0.043947  0.003492  3.77272  0.004
N  N104  1  0.96984168  0.99507083  0.84480611  1  -0.751546  0.054298  -0.241649  -0.247118  0.036661  3.362887  0.017
N  N105  1  0.92728547  0.02707317  0.68503231  1  -1.239733  0.058602  -0.340493  -0.419506  0.040854  3.394187  0.022
N  N106  1  0.66538162  0.09961792  0.77902962  1  -1.200398  0.005653  -0.331104  -0.439999  0.003624  3.246166  0.004
N  N107  1  0.82590444  0.03330891  0.87189953  1  -0.856636  0.006648  -0.132224  -0.043663  0.003513  3.771271  0.004
N  N108  1  0.18559084  0.84497562  0.50462395  1  -0.756563  0.054701  -0.240958  -0.24701  0.036825  3.365314  0.017
N  N109  1  0.38790887  0.68517036  0.47293313  1  -1.240775  0.059048  -0.339312  -0.418326  0.041209  3.390755  0.023
N  N110  1  0.55585885  0.77907396  0.40035148  1  -1.211947  0.005663  -0.331869  -0.440264  0.003618  3.243172  0.004
N  N111  1  0.30247544  0.87199522  0.46647034  1  -0.851275  0.006578  -0.131954  -0.046019  0.003471  3.773334  0.004
N  N112  1  0.03520663  0.65498054  0.99541356  1  -0.763634  0.054228  -0.242741  -0.250195  0.036659  3.36575  0.017
N  N113  1  0.04593197  0.81481059  0.02711699  1  -1.243566  0.058586  -0.339727  -0.418763  0.040895  3.39215  0.022
N  N114  1  0.23528269  0.72097982  0.09957345  1  -1.220829  0.005659  -0.331785  -0.440545  0.003627  3.245629  0.004
N  N115  1  0.14094299  0.62798345  0.03353800  1  -0.85206  0.0066  -0.130665  -0.038487  0.003464  3.767436  0.004
N  N116  1  0.69021460  0.49511669  0.34490525  1  -0.760005  0.054619  -0.241087  -0.246533  0.036805  3.364029  0.017
N  N117  1  0.86081389  0.52681410  0.18504580  1  -1.229244  0.058934  -0.339174  -0.418925  0.041195  3.38976  0.023
N  N118  1  0.95619118  0.59945627  0.27894511  1  -1.212385  0.005699  -0.330436  -0.439648  0.003646  3.245842  0.004
N  N119  1  0.76886148  0.53339109  0.37191573  1  -0.84544  0.006624  -0.132687  -0.045074  0.003511  3.772812  0.004
N  N120  1  0.03012167  0.00484315  0.15521085  1  -0.750828  0.054198  -0.24114  -0.24707  0.036629  3.361492  0.017
N  N121  1  0.07257452  0.97304354  0.31502935  1  -1.240487  0.058511  -0.34003  -0.419463  0.04079  3.393345  0.022
N  N122  1  0.33452202  0.90051154  0.22106188  1  -1.202433  0.005652  -0.33106  -0.440015  0.003624  3.245911  0.004
N  N123  1  0.17404056  0.96662799  0.12814722  1  -0.855498  0.006638  -0.13242  -0.043466  0.003525  3.771251  0.004
O  O124  1  0.82647196  0.93757025  0.54006922  1  -1.187897  0.060658  -0.306289  -0.506261  0.042233  2.217097  0.032
O  O125  1  0.80395098  0.56237570  0.96013709  1  -1.178644  0.060622  -0.306783  -0.505684  0.042269  2.218871  0.032
O  O126  1  0.36654578  0.46036104  0.43761930  1  -1.189361  0.06061  -0.307101  -0.506492  0.042249  2.218823  0.032
O  O127  1  0.76465309  0.03948738  0.06234837  1  -1.182451  0.060594  -0.30648  -0.505438  0.042207  2.220187  0.032
O  O128  1  0.17334303  0.06242012  0.46015329  1  -1.186212  0.060486  -0.306449  -0.50679  0.042117  2.216738  0.032
O  O129  1  0.19598379  0.43760441  0.03976322  1  -1.177277  0.060249  -0.30676  -0.50594  0.042088  2.21878  0.032
O  O130  1  0.63335544  0.53990241  0.56240202  1  -1.1887  0.060654  -0.307188  -0.506611  0.042251  2.218587  0.032
O  O131  1  0.23560293  0.96018485  0.93760911  1  -1.181768  0.060873  -0.306086  -0.505034  0.042295  2.220645  0.032
