# generated using pymatgen
data_UH6(C4O3)2
_symmetry_space_group_name_H-M   'P 1'
_cell_length_a   7.78194584
_cell_length_b   9.45599846
_cell_length_c   13.19669598
_cell_angle_alpha   77.69292769
_cell_angle_beta   87.40301515
_cell_angle_gamma   82.99046748
_symmetry_Int_Tables_number   1
_chemical_formula_structural   UH6(C4O3)2
_chemical_formula_sum   'U4 H24 C32 O24'
_cell_volume   941.49875433
_cell_formula_units_Z   4
loop_
 _symmetry_equiv_pos_site_id
 _symmetry_equiv_pos_as_xyz
  1  'x, y, z'
loop_
 _atom_site_type_symbol
 _atom_site_label
 _atom_site_symmetry_multiplicity
 _atom_site_fract_x
 _atom_site_fract_y
 _atom_site_fract_z
 _atom_site_occupancy
 _atom_site_pbe_cm5_charge
 _atom_site_pbe_ddec_charge
 _atom_site_pbe_ddec_spin_density
 _atom_site_pbe_ddec_sum_bond_order
 _atom_site_pbe_magmom
U  U0  1  0.64466717  0.82703389  0.52070862  1  1.71152  2.504348  -2.017514  3.378054  -1.88
U  U1  1  0.35575506  0.17260860  0.47935330  1  1.709799  2.502696  -2.020132  3.375489  -1.883
U  U2  1  0.13546828  0.88551766  0.42288787  1  1.676911  2.484642  -2.081922  3.293224  -1.945
U  U3  1  0.86476881  0.11453384  0.57706702  1  1.679932  2.489008  -2.076264  3.296928  -1.939
H  H4  1  0.82347120  0.64714639  0.70811893  1  0.327649  0.410512  -9.8e-05  0.872308  -0.001
H  H5  1  0.17692616  0.35366658  0.29198681  1  0.327249  0.410325  -9.9e-05  0.872038  -0.001
H  H6  1  0.96109420  0.63504568  0.61923218  1  0.308128  0.396661  0.000114  0.932257  0.0
H  H7  1  0.03938433  0.36511907  0.38100028  1  0.308058  0.396849  0.000116  0.932004  0.0
H  H8  1  0.34656436  0.57801198  0.38509779  1  0.331558  0.435171  2.7e-05  0.858252  0.0
H  H9  1  0.65142531  0.42172891  0.61583493  1  0.332543  0.436805  2.8e-05  0.855883  0.0
H  H10  1  0.40065247  0.70965655  0.30054786  1  0.330063  0.411323  -4.4e-05  0.881932  0.0
H  H11  1  0.59771532  0.28847102  0.69938511  1  0.329604  0.410958  -4.2e-05  0.883658  0.0
H  H12  1  0.04293627  0.92667527  0.90370686  1  0.105788  0.108811  9e-05  1.009334  0.0
H  H13  1  0.95707269  0.07494983  0.09760028  1  0.105522  0.108079  9.2e-05  1.009469  0.0
H  H14  1  0.16229465  0.83259241  0.08227647  1  0.101203  0.096982  5.8e-05  1.034419  0.0
H  H15  1  0.83875895  0.16858369  0.91872105  1  0.101145  0.097237  5.8e-05  1.034546  0.0
H  H16  1  0.67879425  0.83576618  0.95336827  1  0.100373  0.099656  1.2e-05  1.024195  0.0
H  H17  1  0.32146691  0.16334107  0.04642293  1  0.100004  0.099438  1.3e-05  1.023542  0.0
H  H18  1  0.48068740  0.78029616  0.10481156  1  0.10058  0.096357  1e-06  1.010684  0.0
H  H19  1  0.52036798  0.21945868  0.89543677  1  0.10109  0.09653  1e-06  1.00953  0.0
H  H20  1  0.91004375  0.65977412  0.00401871  1  0.100462  0.097381  -2e-05  1.010695  0.0
H  H21  1  0.08891595  0.33957370  0.99504679  1  0.100639  0.097192  -2.1e-05  1.01093  0.0
H  H22  1  0.71578461  0.46364261  0.01847093  1  0.10023  0.098353  1.8e-05  1.007374  0.0
H  H23  1  0.28357817  0.53521608  0.98143115  1  0.099894  0.097676  2e-05  1.007201  0.0
H  H24  1  0.97156030  0.74771449  0.16315777  1  0.104315  0.102285  0.000123  1.034937  0.0
H  H25  1  0.02751076  0.25270087  0.83533900  1  0.104116  0.102259  0.000121  1.035316  0.0
H  H26  1  0.60309559  0.34733745  0.19201101  1  0.104081  0.108751  9.3e-05  1.036621  0.0
H  H27  1  0.39725153  0.65203360  0.80823462  1  0.10387  0.109051  9.2e-05  1.035775  0.0
C  C28  1  0.60064315  0.93611119  0.75366234  1  0.242017  0.652917  -0.006251  4.154327  -0.015
C  C29  1  0.39877634  0.06339274  0.24636699  1  0.242303  0.653003  -0.006337  4.153295  -0.015
C  C30  1  0.22093330  0.99640418  0.72475073  1  0.23468  0.628227  -0.011835  4.146311  -0.026
C  C31  1  0.77871812  0.00433308  0.27585589  1  0.234599  0.627931  -0.01196  4.147563  -0.026
C  C32  1  0.72959410  0.47761692  0.27402533  1  -0.007506  -0.054167  -0.003753  3.937366  -0.007
C  C33  1  0.27070898  0.52243230  0.72566347  1  -0.0076  -0.055224  -0.003761  3.940018  -0.007
C  C34  1  0.47437909  0.91238708  0.84365815  1  -0.002217  -0.03248  -0.002393  3.908836  -0.005
C  C35  1  0.52536444  0.08733646  0.15663284  1  -0.001667  -0.03138  -0.00244  3.908827  -0.005
C  C36  1  0.83224405  0.59257498  0.26552538  1  -0.013463  -0.063229  0.000795  3.962438  0.001
C  C37  1  0.16782362  0.40776550  0.73366010  1  -0.013548  -0.062807  0.000774  3.963613  0.001
C  C38  1  0.18222605  0.90558279  0.91602784  1  -0.084555  -0.098194  -0.00303  3.978119  -0.006
C  C39  1  0.81788278  0.09542690  0.08483584  1  -0.083938  -0.095726  -0.003071  3.978698  -0.006
C  C40  1  0.24876294  0.85125077  0.01481150  1  -0.09294  -0.095346  0.002406  4.023031  0.002
C  C41  1  0.75185667  0.14939126  0.98591648  1  -0.092817  -0.097252  0.002408  4.025573  0.002
C  C42  1  0.53938617  0.85452872  0.94267406  1  -0.088516  -0.110902  0.001487  3.986804  0.001
C  C43  1  0.46084802  0.14501247  0.05747966  1  -0.088141  -0.110712  0.001505  3.984536  0.001
C  C44  1  0.86499344  0.65316755  0.35683729  1  0.231812  0.638411  -0.014141  4.142534  -0.031
C  C45  1  0.13555747  0.34751351  0.64218170  1  0.231013  0.636782  -0.014125  4.144179  -0.031
C  C46  1  0.68707434  0.38486317  0.37688983  1  0.249758  0.659038  -0.006714  4.107628  -0.015
C  C47  1  0.31354450  0.61511737  0.62286757  1  0.250239  0.660612  -0.006776  4.104449  -0.016
C  C48  1  0.42755996  0.82321173  0.02794720  1  -0.082847  -0.06054  -0.00419  4.008622  -0.008
C  C49  1  0.57312239  0.17672057  0.97242730  1  -0.083393  -0.060096  -0.004256  4.006326  -0.008
C  C50  1  0.29359479  0.93587348  0.82955467  1  -0.01264  -0.066225  0.001601  3.942116  0.002
C  C51  1  0.70608065  0.06459779  0.17104316  1  -0.013041  -0.067759  0.001586  3.944323  0.002
C  C52  1  0.85639102  0.61047305  0.07923479  1  -0.092702  -0.09285  0.000961  4.034949  0.001
C  C53  1  0.14284808  0.38916170  0.91996583  1  -0.092465  -0.092758  0.00092  4.032216  0.001
C  C54  1  0.74861231  0.50031123  0.08734064  1  -0.089792  -0.078221  -0.005491  4.010054  -0.01
C  C55  1  0.25098544  0.49895434  0.91235727  1  -0.09012  -0.07819  -0.005485  4.008851  -0.01
C  C56  1  0.89441325  0.65799167  0.16764876  1  -0.085808  -0.09688  -0.003389  3.974745  -0.006
C  C57  1  0.10491095  0.34218873  0.83127613  1  -0.084913  -0.096306  -0.003377  3.973569  -0.006
C  C58  1  0.68419371  0.43527506  0.18440284  1  -0.087288  -0.10521  0.002445  3.963019  0.002
C  C59  1  0.31589660  0.56431601  0.81550422  1  -0.086544  -0.104634  0.002426  3.962626  0.002
O  O60  1  0.37988597  0.92393258  0.47937464  1  -0.853214  -1.170748  0.054146  2.254057  0.065
O  O61  1  0.62062104  0.07578607  0.52076161  1  -0.853171  -1.170632  0.054191  2.254964  0.065
O  O62  1  0.61581982  0.83888390  0.69836704  1  -0.375745  -0.678502  0.004307  2.36309  0.008
O  O63  1  0.38296826  0.16062593  0.30164545  1  -0.375476  -0.679031  0.004275  2.364327  0.008
O  O64  1  0.84052568  0.61779972  0.64161664  1  -0.581179  -0.782854  0.001505  2.067762  0.003
O  O65  1  0.16002195  0.38230742  0.35874164  1  -0.580552  -0.782708  0.001516  2.068416  0.003
O  O66  1  0.81723784  0.32396357  0.43266933  1  -0.337997  -0.610393  0.005497  2.294471  0.009
O  O67  1  0.18340292  0.67606590  0.56708211  1  -0.338811  -0.611134  0.005548  2.292944  0.009
O  O68  1  0.69192286  0.04104858  0.74023157  1  -0.336205  -0.611458  0.00624  2.25291  0.009
O  O69  1  0.30764114  0.95836909  0.25961127  1  -0.337091  -0.610883  0.006349  2.25089  0.009
O  O70  1  0.32143717  0.06414811  0.65697788  1  -0.355399  -0.647813  0.002258  2.418288  0.007
O  O71  1  0.67847905  0.93598390  0.34348718  1  -0.356135  -0.64824  0.002356  2.42161  0.007
O  O72  1  0.99913347  0.71891622  0.35508754  1  -0.379931  -0.663845  0.008091  2.401826  0.013
O  O73  1  0.00139227  0.28203806  0.64350722  1  -0.379025  -0.661535  0.008037  2.403989  0.013
O  O74  1  0.53043877  0.36351786  0.39810255  1  -0.35328  -0.629373  0.003617  2.309406  0.006
O  O75  1  0.47027029  0.63600306  0.60150659  1  -0.353585  -0.629596  0.003583  2.309464  0.006
O  O76  1  0.06489351  0.98040999  0.70840188  1  -0.357401  -0.640339  0.004291  2.290367  0.008
O  O77  1  0.93448395  0.02091292  0.29233521  1  -0.356969  -0.639081  0.004206  2.290339  0.008
O  O78  1  0.36125666  0.68175601  0.37222522  1  -0.57165  -0.817612  -0.000785  2.11613  0.001
O  O79  1  0.63881110  0.31763633  0.62816038  1  -0.572982  -0.819853  -0.000862  2.115819  0.001
O  O80  1  0.90195615  0.89411797  0.52826087  1  -0.844771  -1.192901  0.056361  2.251466  0.067
O  O81  1  0.09819792  0.10575354  0.47215858  1  -0.845538  -1.192329  0.056334  2.254083  0.067
O  O82  1  0.75220299  0.64333465  0.43075038  1  -0.373822  -0.632465  0.003757  2.329545  0.008
O  O83  1  0.24906385  0.35720951  0.56863208  1  -0.374356  -0.631841  0.003717  2.328371  0.008
