# generated using pymatgen
data_Ag2H12C16S(N2O3)2
_symmetry_space_group_name_H-M   'P 1'
_cell_length_a   8.05501964
_cell_length_b   10.13623295
_cell_length_c   12.07248742
_cell_angle_alpha   105.27945517
_cell_angle_beta   90.00000147
_cell_angle_gamma   90.00002356
_symmetry_Int_Tables_number   1
_chemical_formula_structural   Ag2H12C16S(N2O3)2
_chemical_formula_sum   'Ag4 H24 C32 S2 N8 O12'
_cell_volume   950.84692381
_cell_formula_units_Z   2
loop_
 _symmetry_equiv_pos_site_id
 _symmetry_equiv_pos_as_xyz
  1  'x, y, z'
loop_
 _atom_site_type_symbol
 _atom_site_label
 _atom_site_symmetry_multiplicity
 _atom_site_fract_x
 _atom_site_fract_y
 _atom_site_fract_z
 _atom_site_occupancy
 _atom_site_hle17_bader_spin_density
 _atom_site_hle17_ddec_charge
 _atom_site_hle17_ddec_spin_density
 _atom_site_hle17_ddec_sum_bond_order
 _atom_site_hle17_magmom
 _atom_site_hse06_10hf_bader_spin_density
 _atom_site_hse06_10hf_ddec_charge
 _atom_site_hse06_10hf_ddec_spin_density
 _atom_site_hse06_10hf_ddec_sum_bond_order
 _atom_site_hse06_10hf_magmom
 _atom_site_hse06_bader_spin_density
 _atom_site_hse06_ddec_charge
 _atom_site_hse06_ddec_spin_density
 _atom_site_hse06_ddec_sum_bond_order
 _atom_site_hse06_magmom
 _atom_site_pbe_bader_spin_density
 _atom_site_pbe_cm5_charge
 _atom_site_pbe_ddec_charge
 _atom_site_pbe_ddec_spin_density
 _atom_site_pbe_ddec_sum_bond_order
 _atom_site_pbe_magmom
Ag  Ag0  1  0.16693703  0.47685881  0.63391136  1  0  0.537767  0  1.579592  0  0  0.422238  0  2.059834  0  0  0.445896  0  2.007625  0  0  0.456177  0.405949  0  2.09653  0
Ag  Ag1  1  0.66693706  0.52314123  0.36608891  1  0  0.537742  0  1.579583  0  0  0.422219  0  2.059848  0  0  0.445876  0  2.007638  0  0  0.456169  0.40593  0  2.096544  0
Ag  Ag2  1  0.32580816  0.54036278  0.15844404  1  0  0.550529  0  1.526975  0  0  0.433147  0  2.000106  0  0  0.457682  0  1.947944  0  0  0.456482  0.416049  0  2.036434  0
Ag  Ag3  1  0.82580694  0.45963731  0.84155624  1  0  0.550529  0  1.52699  0  0  0.433141  0  2.000121  0  0  0.457675  0  1.947962  0  0  0.456481  0.416045  0  2.036451  0
H  H4  1  0.35795843  0.98103324  0.71640331  1  0  0.106497  0  0.960446  0  0  0.112737  0  1.027983  0  0  0.115663  0  1.027175  0  0  0.103361  0.110556  0  1.028647  0
H  H5  1  0.85795819  0.01896585  0.28359592  1  0  0.1065  0  0.960445  0  0  0.112741  0  1.027984  0  0  0.115667  0  1.027176  0  0  0.103363  0.11056  0  1.028649  0
H  H6  1  0.48475138  0.85313120  0.84445056  1  0  0.11184  0  0.985348  0  0  0.116734  0  1.053673  0  0  0.120639  0  1.050744  0  0  0.103631  0.113977  0  1.055721  0
H  H7  1  0.98475121  0.14686895  0.15554974  1  0  0.111827  0  0.985376  0  0  0.116723  0  1.053693  0  0  0.120626  0  1.050768  0  0  0.103627  0.113966  0  1.055741  0
H  H8  1  0.60417259  0.97589252  0.03148992  1  0  0.098999  0  0.947712  0  0  0.106684  0  1.014019  0  0  0.109485  0  1.013228  0  0  0.102332  0.104683  0  1.01455  0
H  H9  1  0.10417233  0.02410750  0.96850951  1  0  0.098975  0  0.947742  0  0  0.10666  0  1.014055  0  0  0.10946  0  1.013265  0  0  0.102327  0.104662  0  1.014576  0
H  H10  1  0.47534967  0.36124573  0.96684659  1  0  0.10205  0  0.999995  0  0  0.106713  0  1.075538  0  0  0.110771  0  1.071751  0  0  0.097759  0.103804  0  1.07829  0
H  H11  1  0.97535098  0.63875340  0.03315265  1  0  0.102065  0  0.999951  0  0  0.106727  0  1.075495  0  0  0.110785  0  1.071709  0  0  0.097767  0.103819  0  1.078247  0
H  H12  1  0.72967056  0.31937729  0.10600169  1  0  0.134133  0  0.914079  0  0  0.149934  0  0.970246  0  0  0.151482  0  0.969385  0  0  0.113129  0.148719  0  0.971012  0
H  H13  1  0.22967065  0.68062277  0.89399858  1  0  0.134155  0  0.914063  0  0  0.149947  0  0.970227  0  0  0.151496  0  0.969365  0  0  0.113127  0.148733  0  0.970992  0
H  H14  1  0.68329696  0.18416656  0.16878751  1  0  0.115499  0  0.943075  0  0  0.131352  0  1.002766  0  0  0.131885  0  1.00418  0  0  0.106725  0.130818  0  1.002088  0
H  H15  1  0.18329711  0.81583451  0.83121216  1  0  0.115509  0  0.943089  0  0  0.131355  0  1.002777  0  0  0.13189  0  1.00419  0  0  0.106716  0.130822  0  1.002098  0
H  H16  1  0.25775986  0.31441393  0.31793029  1  0  0.133271  0  0.918105  0  0  0.150309  0  0.970692  0  0  0.151766  0  0.970189  0  0  0.113031  0.149077  0  0.971365  0
H  H17  1  0.75775998  0.68558614  0.68206916  1  0  0.133295  0  0.918092  0  0  0.150333  0  0.970677  0  0  0.151795  0  0.970168  0  0  0.113032  0.149101  0  0.971349  0
H  H18  1  0.29870199  0.18456822  0.19031933  1  0  0.118274  0  0.93063  0  0  0.133184  0  0.989766  0  0  0.134084  0  0.990777  0  0  0.107936  0.132579  0  0.989003  0
H  H19  1  0.79870219  0.81543187  0.80968012  1  0  0.118292  0  0.930633  0  0  0.133188  0  0.989787  0  0  0.134088  0  0.9908  0  0  0.107937  0.132584  0  0.989024  0
H  H20  1  0.39125815  0.97053553  0.22026578  1  0  0.106897  0  0.935519  0  0  0.118566  0  0.993813  0  0  0.121603  0  0.992557  0  0  0.107294  0.11637  0  0.994788  0
H  H21  1  0.89125670  0.02946459  0.77973451  1  0  0.106919  0  0.935439  0  0  0.118586  0  0.993744  0  0  0.121624  0  0.992483  0  0  0.107311  0.11639  0  0.994721  0
H  H22  1  0.52503557  0.83783543  0.34119991  1  0  0.098696  0  0.965718  0  0  0.10537  0  1.032676  0  0  0.10827  0  1.031542  0  0  0.10222  0.103134  0  1.033865  0
H  H23  1  0.02503538  0.16216558  0.65880057  1  0  0.098713  0  0.965709  0  0  0.105397  0  1.032642  0  0  0.108297  0  1.03151  0  0  0.102238  0.103162  0  1.033831  0
H  H24  1  0.65586458  0.95555707  0.52693914  1  0  0.113503  0  0.949404  0  0  0.121855  0  1.011859  0  0  0.124816  0  1.01096  0  0  0.107628  0.119576  0  1.012747  0
H  H25  1  0.15586308  0.04444296  0.47306113  1  0  0.113504  0  0.949408  0  0  0.121838  0  1.011878  0  0  0.124799  0  1.01098  0  0  0.107626  0.119559  0  1.012767  0
H  H26  1  0.50607584  0.34544369  0.47505074  1  0  0.106601  0  0.988461  0  0  0.111547  0  1.063316  0  0  0.11592  0  1.058887  0  0  0.099887  0.10831  0  1.066715  0
H  H27  1  0.00607714  0.65455731  0.52494973  1  0  0.106599  0  0.988451  0  0  0.111525  0  1.063336  0  0  0.1159  0  1.058905  0  0  0.099887  0.108289  0  1.066734  0
C  C28  1  0.33910168  0.25769614  0.76453549  1  0  0.326185  0  3.723972  0  0  0.306901  0  3.983294  0  0  0.320876  0  4.001346  0  0  0.216124  0.297273  0  3.971508  0
C  C29  1  0.83910181  0.74230396  0.23546396  1  0  0.326227  0  3.72399  0  0  0.306925  0  3.983298  0  0  0.320919  0  4.001369  0  0  0.216129  0.297296  0  3.971511  0
C  C30  1  0.40552111  0.17963005  0.83584601  1  0  0.012435  0  3.898605  0  0  0.037578  0  4.125717  0  0  0.033095  0  4.149098  0  0  -0.002986  0.040436  0  4.110116  0
C  C31  1  0.90552129  0.82037007  0.16415511  1  0  0.012384  0  3.898663  0  0  0.037584  0  4.125705  0  0  0.033035  0  4.149177  0  0  -0.002969  0.040443  0  4.110103  0
C  C32  1  0.40898351  0.03576188  0.79933832  1  0  -0.088416  0  3.706126  0  0  -0.112543  0  3.951217  0  0  -0.113193  0  3.971164  0  0  -0.078384  -0.111953  0  3.937958  0
C  C33  1  0.90898376  0.96423824  0.20066114  1  0  -0.08841  0  3.706227  0  0  -0.112565  0  3.951313  0  0  -0.113193  0  3.971278  0  0  -0.078396  -0.111975  0  3.938053  0
C  C34  1  0.48037153  0.96431024  0.87102608  1  0  -0.065467  0  3.757137  0  0  -0.079648  0  4.011752  0  0  -0.082677  0  4.03177  0  0  -0.088791  -0.07776  0  3.998393  0
C  C35  1  0.98037130  0.03568991  0.12897422  1  0  -0.065469  0  3.757197  0  0  -0.079635  0  4.011802  0  0  -0.082664  0  4.031815  0  0  -0.088783  -0.077746  0  3.998442  0
C  C36  1  0.54802849  0.03423193  0.97697978  1  0  -0.088273  0  3.677615  0  0  -0.110785  0  3.922675  0  0  -0.111055  0  3.942473  0  0  -0.075817  -0.110511  0  3.90923  0
C  C37  1  0.04802869  0.96576807  0.02301965  1  0  -0.088244  0  3.677622  0  0  -0.11075  0  3.922691  0  0  -0.111021  0  3.942486  0  0  -0.075815  -0.110476  0  3.909245  0
C  C38  1  0.54746985  0.17746467  0.01252665  1  0  0.103656  0  3.755693  0  0  0.128819  0  3.987396  0  0  0.126763  0  4.013417  0  0  -0.009172  0.130064  0  3.969863  0
C  C39  1  0.04747001  0.82253532  0.98747361  1  0  0.103677  0  3.755627  0  0  0.128789  0  3.987377  0  0  0.126736  0  4.013393  0  0  -0.009166  0.130034  0  3.969845  0
C  C40  1  0.47489402  0.24989804  0.94146053  1  0  -0.116796  0  3.671964  0  0  -0.15068  0  3.916807  0  0  -0.151998  0  3.936762  0  0  -0.077677  -0.149769  0  3.903429  0
C  C41  1  0.97489291  0.75010210  0.05853977  1  0  -0.116752  0  3.671887  0  0  -0.150662  0  3.916765  0  0  -0.15195  0  3.936719  0  0  -0.077689  -0.149752  0  3.903387  0
C  C42  1  0.62957643  0.25337215  0.12237561  1  0  -0.174396  0  3.612851  0  0  -0.214648  0  3.856305  0  0  -0.21421  0  3.867792  0  0  -0.137768  -0.214951  0  3.84864  0
C  C43  1  0.12957655  0.74662787  0.87762300  1  0  -0.174482  0  3.612829  0  0  -0.214676  0  3.856227  0  0  -0.214239  0  3.867713  0  0  -0.137751  -0.214977  0  3.848563  0
C  C44  1  0.35548524  0.24942380  0.26833608  1  0  -0.173612  0  3.604307  0  0  -0.21182  0  3.84589  0  0  -0.211707  0  3.857595  0  0  -0.136656  -0.211776  0  3.837991  0
C  C45  1  0.85548540  0.75057733  0.73166444  1  0  -0.173669  0  3.604354  0  0  -0.21185  0  3.845891  0  0  -0.211743  0  3.8576  0  0  -0.136655  -0.211805  0  3.837994  0
C  C46  1  0.44077862  0.16762890  0.33871822  1  0  0.106568  0  3.748926  0  0  0.129016  0  3.985676  0  0  0.127258  0  4.011052  0  0  -0.007898  0.129888  0  3.968804  0
C  C47  1  0.94077757  0.83237123  0.66128207  1  0  0.106559  0  3.748884  0  0  0.129013  0  3.985646  0  0  0.127254  0  4.011023  0  0  -0.007897  0.129885  0  3.968775  0
C  C48  1  0.44747626  0.02441933  0.30206382  1  0  -0.095425  0  3.675586  0  0  -0.11851  0  3.920899  0  0  -0.118814  0  3.940918  0  0  -0.075161  -0.118152  0  3.907499  0
C  C49  1  0.94747654  0.97558183  0.69793587  1  0  -0.09541  0  3.675469  0  0  -0.1185  0  3.920796  0  0  -0.118803  0  3.940814  0  0  -0.075166  -0.118143  0  3.907399  0
C  C50  1  0.52336086  0.94896148  0.36998362  1  0  -0.065201  0  3.772494  0  0  -0.078581  0  4.027292  0  0  -0.082768  0  4.050514  0  0  -0.088626  -0.075717  0  4.011374  0
C  C51  1  0.02336061  0.05103850  0.63001580  1  0  -0.065277  0  3.772496  0  0  -0.078655  0  4.027309  0  0  -0.082843  0  4.050534  0  0  -0.088646  -0.075791  0  4.011391  0
C  C52  1  0.59696069  0.01452227  0.47428019  1  0  -0.081882  0  3.690515  0  0  -0.106533  0  3.935132  0  0  -0.106708  0  3.955095  0  0  -0.074303  -0.106115  0  3.921181  0
C  C53  1  0.09696092  0.98547876  0.52571947  1  0  -0.081832  0  3.690556  0  0  -0.106476  0  3.93517  0  0  -0.106651  0  3.955132  0  0  -0.074321  -0.106058  0  3.921217  0
C  C54  1  0.59152685  0.15847736  0.51064724  1  0  0.01424  0  3.886181  0  0  0.038376  0  4.11525  0  0  0.033789  0  4.138476  0  0  -0.000429  0.041418  0  4.099566  0
C  C55  1  0.09152701  0.84152367  0.48935159  1  0  0.014149  0  3.886303  0  0  0.038315  0  4.115336  0  0  0.033727  0  4.138562  0  0  -0.000437  0.041357  0  4.09965  0
C  C56  1  0.51229925  0.23432052  0.44404277  1  0  -0.112936  0  3.659315  0  0  -0.146179  0  3.905824  0  0  -0.146938  0  3.92482  0  0  -0.073364  -0.145613  0  3.893446  0
C  C57  1  0.01229937  0.76567947  0.55595665  1  0  -0.112881  0  3.659285  0  0  -0.146116  0  3.905799  0  0  -0.146876  0  3.924794  0  0  -0.073349  -0.145549  0  3.89342  0
C  C58  1  0.66470360  0.23179090  0.61599861  1  0  0.327599  0  3.711695  0  0  0.309014  0  3.968648  0  0  0.322741  0  3.987508  0  0  0.218323  0.299456  0  3.956312  0
C  C59  1  0.16470372  0.76820913  0.38400166  1  0  0.32759  0  3.711783  0  0  0.308995  0  3.968731  0  0  0.322721  0  3.987592  0  0  0.218316  0.299436  0  3.956392  0
S  S60  1  0.49238251  0.36899910  0.22300529  1  0  0.007037  0  3.037186  0  0  0.041173  0  3.553107  0  0  0.035528  0  3.53115  0  0  -0.023218  0.045106  0  3.568401  0
S  S61  1  0.99238261  0.63100106  0.77699500  1  0  0.007041  0  3.037201  0  0  0.041163  0  3.553095  0  0  0.035516  0  3.531143  0  0  -0.02323  0.045095  0  3.568391  0
N  N62  1  0.29001553  0.32320155  0.70529928  1  0  -0.420619  0  2.912784  0  0  -0.371957  0  3.214865  0  0  -0.387121  0  3.217209  0  0  -0.340508  -0.362351  0  3.214222  0
N  N63  1  0.79001564  0.67679853  0.29470100  1  0  -0.420639  0  2.912759  0  0  -0.371967  0  3.21484  0  0  -0.387131  0  3.21718  0  0  -0.340504  -0.362361  0  3.214197  0
N  N64  1  0.72198840  0.29556109  0.70222506  1  0  -0.420327  0  2.917147  0  0  -0.370513  0  3.220348  0  0  -0.385938  0  3.222957  0  0  -0.338154  -0.360479  0  3.219219  0
N  N65  1  0.22198847  0.70443999  0.29777544  1  0  -0.420308  0  2.917147  0  0  -0.37049  0  3.220349  0  0  -0.385915  0  3.222957  0  0  -0.338155  -0.360456  0  3.219217  0
N  N66  1  0.93694381  0.34256100  0.42989699  1  0  0.681242  0  4.149116  0  0  0.714291  0  4.429174  0  0  0.742253  0  4.437473  0  0  0.0925  0.695199  0  4.422971  0
N  N67  1  0.43694263  0.65744015  0.57010270  1  0  0.681311  0  4.149049  0  0  0.714336  0  4.429142  0  0  0.742299  0  4.43744  0  0  0.092524  0.695244  0  4.422939  0
N  N68  1  0.06234259  0.36060903  0.01135085  1  0  0.684379  0  4.142906  0  0  0.717548  0  4.425398  0  0  0.743852  0  4.434364  0  0  0.090757  0.698584  0  4.418995  0
N  N69  1  0.56234270  0.63939097  0.98865024  1  0  0.684316  0  4.14297  0  0  0.717361  0  4.425639  0  0  0.743638  0  4.434607  0  0  0.09075  0.698396  0  4.419237  0
O  O70  1  0.06689999  0.29779479  0.46784709  1  0  -0.456327  0  1.801899  0  0  -0.431612  0  2.032772  0  0  -0.449372  0  2.024766  0  0  -0.19532  -0.418637  0  2.037776  0
O  O71  1  0.56690011  0.70220521  0.53215316  1  0  -0.456321  0  1.801877  0  0  -0.431612  0  2.032763  0  0  -0.449373  0  2.024759  0  0  -0.195319  -0.418637  0  2.037769  0
O  O72  1  0.87255537  0.27881785  0.33689416  1  0  -0.441019  0  1.802565  0  0  -0.428698  0  2.025064  0  0  -0.443367  0  2.020248  0  0  -0.171678  -0.418032  0  2.028102  0
O  O73  1  0.37255547  0.72118227  0.66310696  1  0  -0.441022  0  1.802526  0  0  -0.428724  0  2.025056  0  0  -0.443393  0  2.020239  0  0  -0.171692  -0.418062  0  2.028103  0
O  O74  1  0.87302841  0.45571457  0.48886375  1  0  -0.494604  0  1.83419  0  0  -0.468665  0  2.084409  0  0  -0.488067  0  2.074031  0  0  -0.212502  -0.454939  0  2.091411  0
O  O75  1  0.37302842  0.54428554  0.51113653  1  0  -0.494721  0  1.834292  0  0  -0.468684  0  2.084408  0  0  -0.488096  0  2.07405  0  0  -0.21251  -0.454958  0  2.09141  0
O  O76  1  0.14046907  0.46061016  0.98852992  1  0  -0.494195  0  1.820143  0  0  -0.469162  0  2.064173  0  0  -0.48801  0  2.055856  0  0  -0.206892  -0.45544  0  2.069503  0
O  O77  1  0.64046909  0.53938987  0.01147117  1  0  -0.494192  0  1.820173  0  0  -0.46912  0  2.064247  0  0  -0.487958  0  2.055928  0  0  -0.206895  -0.455399  0  2.069577  0
O  O78  1  0.94430195  0.30323699  0.94621441  1  0  -0.45815  0  1.779431  0  0  -0.434765  0  2.007937  0  0  -0.451624  0  1.999576  0  0  -0.200767  -0.422138  0  2.013266  0
O  O79  1  0.44430202  0.69676212  0.05378565  1  0  -0.458108  0  1.779464  0  0  -0.434695  0  2.008031  0  0  -0.451542  0  1.999669  0  0  -0.200746  -0.422065  0  2.013358  0
O  O80  1  0.10210784  0.32107825  0.09801430  1  0  -0.4502  0  1.791207  0  0  -0.437772  0  2.015925  0  0  -0.452531  0  2.010107  0  0  -0.179224  -0.426683  0  2.019273  0
O  O81  1  0.60210922  0.67892075  0.90198656  1  0  -0.450191  0  1.791232  0  0  -0.437698  0  2.01596  0  0  -0.452448  0  2.010151  0  0  -0.179234  -0.426607  0  2.019309  0
